# total energy = -381169.37148025195 ev
CRYSTAL
PRIMVEC
9.23527215398922 0.00000000000000 0.00000000000000

0.00000000000000 9.23527215398922 0.00000000000000

0.00000000000000 0.00000000000000 13.51675431297546

PRIMCOORD
 96 1
Ni 8.70638651768271 7.869643161499184 3.3005477119924165 0.5954042430160456 1.0624168501288542 0.9589906259217033
Ni 6.2086794780714065 7.830263961353863 0.9132880617568048 1.1098652734188048 -0.12556239398455796 -0.06335532432819413
Ni 6.664273920278019 5.377024756803472 6.770109214777401 0.17172783679702683 -1.1442257531765456 -0.16007559727007917
Ni 3.8620707249464097 0.6410544055176574 7.7046171611903755 1.2573074981955894 -0.8194357743127952 -0.9521448066444634
Ni 1.3606695765034644 0.4814051806133058 10.801211277533328 -1.0377088058592128 -1.1635447652201316 0.34603371873387506
Ni 0.48339722880076963 4.119956462483453 6.8602796407761995 0.21658870186545923 0.8589844831396948 -0.17574158594211026
Ni 0.7463549777636598 2.5823113671280202 9.795213089955972 1.540503198557321 1.8513745104574502 0.46797754212923925
Ni 2.3875856553400046 2.287632305627806 12.037440180406838 -0.08910106583373041 -0.2053187853785948 -0.05963545227444567
Ni 1.605025640444613 7.491015476799868 0.9415082826489385 -1.0682902781904957 2.06675247984426 1.2359354602777166
Ni 3.1474730772811825 6.168330574357779 1.6233484202495654 0.43890042225762477 -3.129250319722695 -0.5378315868078996
Ni 8.250459605681248 5.2740976494818 4.596994282930548 0.8505852033324061 0.1265700093134659 1.1424858876673032
Ni 4.420776979916274 3.1495140724106654 1.0446016248680337 0.7005585056578967 0.014204059414523925 0.926086933215147
Ni 3.5985976478015056 0.8936723438607769 4.9607033091132715 -1.1929931523882358 -0.9902030469687657 -1.5391417994334202
Ni 7.829885315198619 3.757638268275844 8.201317799421101 -0.8517262589153847 1.2655895356987235 0.9402100028800904
Ni 5.001093771551256 3.910306551015597 8.045712700160191 0.3494980231333916 -0.7662918432999641 -0.30203391611415725
Ni 3.2362055714172633 5.877179386791784 3.921669629781732 0.6447583679691411 0.04762222986365346 1.7109269718309437
Ni 7.163763610676636 4.16363006414556 0.8619076255446811 -0.5657316556522773 -0.00026430940498018996 -1.5292093708110566
Ni 8.602748294410945 3.7492711117721704 11.014735385638373 -2.2489027975261915 0.22885929170269617 -0.812263424934072
Ni 9.051231577116644 1.977973632815277 7.695723594178193 1.3137866642292404 -0.5759435631882726 -1.9310879644286936
Ni -0.14122208652490517 5.475583580431723 1.3257990361871643 1.238831293768273 -0.324151573948803 -2.128540973905966
Ni 7.462109075192256 6.022514863500724 2.5819160974830346 -2.4530069937713948 1.0379139798914834 0.33336075125189685
Ni 1.9022998133990567 1.1322812979870958 8.670849190722297 0.5709638505854941 0.5379094912336864 -0.7670415769817951
Ni 6.368440449767916 0.42045977310884886 2.5908373703114536 -1.11041548949532 1.062254870629693 -1.4735735266143073
Ni 2.461532478877431 8.218043800683576 3.871684643180762 -0.4941608853928263 0.414787331259505 0.10892581386914142
P 3.335392393546895 4.055226440480977 12.85793407536717 0.2306338671046157 0.8490178588452862 0.4988919723199085
Ni 5.1144936774106355 5.368666835571878 0.20557530942655342 -1.6167412923854543 0.05704583717039853 1.8906529963420988
P 4.122191398326597 1.1813944749037981 2.2442542326722306 0.46761218837002044 0.2564693401104809 0.7841746371176559
Ni 7.127542873582369 1.459052929962214 0.604320187295793 0.889190831519746 0.8919565671903413 -0.7947765810032184
P 2.9009559596735226 3.1129978066098682 8.660630362166762 -0.5952548619223748 1.4650672889155092 -0.16216461858862394
P 0.8002040022025293 6.715779032663209 10.581226173081744 -0.1703661805628098 -1.6968018452834714 -3.7594984098908033
P 4.498297853748317 8.07110138663287 4.9254513520601035 -0.819969278218762 -1.4266146413662655 -1.2808032673246845
Ni 2.1313715020492796 0.5833284138599779 0.4003841386632814 0.6213027080493623 0.007144581464581244 0.4012196198773993
Ni 5.4112137340403335 0.11299540094231603 11.604241272992066 -0.44289514523931467 -0.06081430307389526 -0.6409024845581608
Ni 5.5101696743679875 2.7493959095832627 3.592496827066046 -1.4066685372616419 -0.35555579929169734 -0.2425290758803049
Ni 6.650245541989851 1.7173727252869757 7.691776438891582 -0.41834316693156337 0.848781317354448 -0.46340072139183414
Ni 0.7593425408885109 7.155895158865235 5.3347650752966755 0.12461391402835958 -0.1495754690697037 -0.2102635309783798
Ni 1.5414315569078676 1.8845957968234046 3.661877732087561 1.5893670141375598 -1.8860640914198357 0.17022914076431328
Ni 8.232755589105597 1.1934557402391148 9.685984756494724 -0.5490086864706416 -0.6177088200505167 0.12182503842931279
Ni 3.910971490605293 7.7414298792249125 -0.09926070430626494 0.03542568779746157 0.5391492771780586 0.5288941751089536
Ni 3.083758935207409 5.336223324757968 8.790418258330522 0.13288566711884855 -1.6424268700770166 -0.19684700046215775
Ni 1.610169686992677 5.702420333238803 13.223264815326985 1.3241680074635647 -1.9937658030738885 -0.7024114997062354
Ni 6.472632789364425 8.001273494442726 3.993930092637514 -0.6734559930141499 -1.3625453216901824 1.1205543777015345
Ni 7.055507751365319 1.1528574841793509 4.688935110586911 -0.8012189941944523 0.3223366322272513 1.0532338980780054
Ni 6.739319741192859 3.4384765004939113 5.619279796346623 0.9596717111491279 0.3883311939505054 -0.26651232616877973
Ni 8.658298455966788 8.834350447610845 1.1160078250564975 -0.6475441582443945 -0.5012396466164788 -0.7621631658435711
Ni 8.621772954893911 1.4360016908527578 3.008856261009794 0.1153438015803433 -1.0853613747401696 -1.5197518249425825
Ni 1.7287690510325961 0.015502327711992584 6.290278648053584 -0.5983877511244017 0.04283920665271332 -0.18390381003792847
Ni 5.58188156206227 5.587201078779837 4.381050533540779 0.5738116044469344 0.1793832964597556 0.4026226708725131
Ni 3.8926117697120235 3.903971154369328 5.447927634663624 -0.4880223765952563 0.6776471482773619 -0.7364889010059187
Ni 5.058324752625495 2.0374026086443444 5.935368989107835 0.8232358647851756 0.7423713279286248 1.8701618183672826
Ni 5.784900548177326 6.917791374121643 12.285878234606953 1.1465374320288577 0.1699288359150751 -0.9775444776644906
Ni 4.984775045787469 2.5207490434486792 12.327428647218074 -0.7407808435130533 -0.7220020202436533 -1.4246634311771658
Ni 4.290698172682022 6.489828865975726 10.171681568043192 0.7025853062799383 2.582970859257758 0.56114635027444
Ni 0.6063445589355336 7.636757305480288 12.309559319272205 -2.4738820374481914 2.4462750743642 2.679807603172849
Ni 5.888252478014636 0.09409911074125084 9.155830268684634 0.07342376430778967 0.42894202549333227 0.119192228792156
Ni 8.304282771358297 8.158734883391537 10.06612979639664 0.4631482390613959 -0.1866934569679236 -0.8330047712464815
P 3.0963004346908387 0.1807370451697894 12.045509961149564 1.4945863814205487 -0.5774584571709023 -0.4218342108039574
Ni 5.720770818859992 9.02834657290461 6.335776215951314 0.5347244086374855 -0.18008983560847694 0.11621129178696116
P 1.1628777543851843 9.230386620179281 2.261974872737625 0.12678006844174294 0.2717887440763706 1.7573605807031345
Ni 4.940667386337644 0.8419991495237455 0.22511437456432462 -1.2555627475903408 -1.6838982498479258 1.953260129650359
P 7.317752537323702 1.6007497094719856 11.616987795515652 -0.41064451273572505 1.2203309209712403 0.6884779203442788
P 3.3103093945800346 7.52240616659676 7.7593472305855915 -0.1510181150535012 1.2366188594979863 1.1559587253427575
P 8.922870530489105 2.8316452427198087 1.1883347818712486 -0.5262608512511646 -0.31979483964200406 0.5402736205904888
Ni 2.1768552170388924 4.624026847833309 11.123964642626827 -0.4019981499146367 0.1385094410635292 -0.7143385901611246
Ni 7.802770556374354 7.266413659835934 6.0640615820030135 0.04703139035718997 0.6872314495316875 -1.9653088332847766
Ni 6.324332790318091 7.287414668543828 7.7911378076635085 -1.3643306957253793 0.7683212150251671 1.7832793574514256
Ni 8.529346351926186 6.445351795642737 8.0757744343049 0.006895184457936512 -0.06575802023241577 0.2765439993731689
Ni 0.92936389986491 4.009955136749184 2.9568441321874595 -2.040032290240596 -0.3180650014350909 0.6327302331600134
Ni 4.155863200327029 2.1542842120775494 9.955698106983482 0.1368287109269966 -2.105459923716787 0.44624323577594116
Ni 1.1373145212702103 6.253442841838849 3.0747240685324164 -0.17877523056211148 0.654983388131259 0.5012774418329496
Ni 1.883626093255098 2.8964768527151548 0.9584199128802031 0.774253521349202 0.5435792879249541 0.6076010421925536
Ni 2.4620681246580194 2.409962719587686 6.710919432495183 -0.47700468532851403 0.2381445736593641 -1.052237081382375
Ni 4.627111428707731 4.361588121161264 10.497692213598993 -1.0564608896557353 -1.4306677283897167 0.8250302376814371
Ni 6.438332988862614 2.783307828657751 9.963172212677105 -0.0851348820971308 0.3507172402524734 0.2796532344261119
Ni 0.4076938565138963 3.6652209005801986 12.868139051014586 0.32715153711739137 1.0634360354219878 0.5098240458513801
Ni 3.483932509667287 8.829372635960205 9.875651386237806 0.11632853409111578 -0.0525489777413095 -0.5359366837780319
Ni 6.28028054250074 4.1837814278221765 12.207197410601774 2.464184093434137 1.5691946529547427 -1.3656733257962028
Ni 0.9645410512142367 8.451123597416132 8.49215775831803 -0.228782929938806 -2.2335450841231985 0.46299705819551235
Ni 4.34038393646763 5.92636644588512 6.668044681867919 -0.07507544097859974 1.0962510250694797 -0.24805077702948247
Ni 8.08147259717771 9.073276171569477 7.555122117937004 -0.3063775377948337 -0.3614472250754679 0.212389319072131
Ni 2.6180518700741726 7.198996173658436 11.534941638364847 1.3797886821516625 -0.1759256769284583 -0.472488028405083
Ni 7.773947272215455 8.884978209148521 12.317466559226338 -1.009358536851294 -1.0938989798975354 0.2267263045200934
Ni 4.281019607543116 7.835565007527272 2.378124119094957 1.4526969402756145 2.011309211274291 0.9763142048018154
Ni 3.0586020540639156 3.6108897949387995 3.0357281321783782 2.241179974960637 -0.23522431468877555 0.396792180233665
Ni 7.647793455614825 3.567918073954705 2.963548016189685 0.8253513684662819 -0.20187839223847814 1.7799353806798572
Ni 0.6877562528945044 4.968031497508044 9.19674529457671 -0.25459269191305833 -0.07621341123778487 0.6342281578617787
Ni 6.347504087964575 5.513272725786568 9.58990745047413 1.3182886658646522 -0.8534658673143108 -1.3205455802196289
Ni 1.6227296570202654 6.270038625765008 7.376970948949365 -0.6960251365639174 0.4762755204719733 -1.4717644984300267
P 6.209926239802086 7.571500872969303 10.305227296415943 0.24132682804208758 -0.03068045980299232 -0.6117227776704109
Ni 9.045191709176907 2.6907057555205243 5.096627120046391 -0.13929079931424398 -0.2632411116166757 0.020253608042713506
P 1.6964086576673978 4.67471002100346 5.180282985120586 0.07727759083624111 0.23648878322349592 -0.7720323453281672
Ni 0.09959317410111286 1.3154813902203837 12.827548183172485 -0.360169901024941 0.5600646871744871 -0.17315762726501793
P 8.09163139646473 6.7812478764320145 13.325613794616503 -1.0495909020087795 0.15472898824618514 1.0542962779042488
P 8.741314316685898 0.1843157131004442 5.482422299406304 1.3947162499957724 -0.8342353012194729 0.40558458171431444
P 5.6957986431580805 4.64049333795036 2.471741148633678 -0.8259995435732419 -0.20849332645183447 -0.8277972589036131
Ni 7.976292083468737 6.093598752693628 11.198211612506826 0.2154378760904677 -0.5155190393536283 0.9254140755178384
