# total energy = -340866.68805140175 ev
CRYSTAL
PRIMVEC
9.28948919466136 0.00000000000000 0.00000000000000
0.00000000000000 9.28948919466136 0.00000000000000
0.00000000000000 0.00000000000000 13.59610643234684
PRIMCOORD
 96 1
Ni 2.02146710707748 2.3789823780371133 5.165500209126289 -0.10249959862782347 0.09390337231838021 0.9515254278929096
Ni 4.541445348093997 2.515686497130861 0.8119663589037227 -1.2189073011508362 1.5723131439790663 0.2611310072522083
Ni 1.0986492767721747 2.1911953593173457 7.816741715570258 0.3339001686951346 0.33155995059773224 -0.9266132380322623
Ni 4.727086494870936 7.782027824387775 10.892153362893223 0.396248391915053 -0.77713264266921 1.3555172111988076
Ni 4.007290445130585 1.0113652387859793 10.504079389149492 3.9607731071070114 -1.4136603951984428 0.9965112485749805
Ni 7.106765584577799 8.225461578460894 4.100409211113707 -1.425381797400429 1.9333749606906574 -0.4757258186160904
Ni 0.3462201813696573 4.563693674081326 4.251380127306135 0.12333916108099405 -1.2966908850892183 1.2172363412063167
Ni 0.6349514315471724 9.514387456986075 9.668136859317462 -1.6146702687890384 -1.2587923102712322 -1.6114928995023214
Ni 1.9103926879415778 3.7435339859413506 10.095026962555163 -0.8542698512728449 -1.9208536882951948 1.4704853746072868
Ni 1.6094782730323793 6.060629788726864 5.928351182159364 1.2109240258350435 1.7557850086858986 -1.048622624558239
Ni 7.577055251147524 6.15662736732939 4.561113054056574 -0.004767596591972434 -2.43583433864685 0.1932788234949252
Ni 7.412798507887423 -0.08052407689184093 6.0606139965956825 -1.3001598174744255 -0.3447689930888385 0.771282097425704
Ni 3.65077843897539 4.668181845565864 1.6414303991559767 -0.03771499805227053 -0.021942051488729953 0.3324508378431178
Ni 7.15840585353962 6.898114373721272 11.379532902247451 1.220860311112149 0.3643890813126111 0.7448889521441558
Ni 5.966517976377125 4.128146696109767 8.077079642833256 -0.9121183868501969 0.4368977900052992 -1.0852312769202084
Ni 8.416388444439 0.4822080808669024 13.428384493741653 -1.0093518519830746 0.4544072596439722 -0.23127252912987914
Ni 2.9290501755375997 0.7204583903010604 7.7887329774974425 0.25901010425446364 -0.868951878765052 -0.5459053649549696
Ni 2.172904355614193 5.908495828520401 10.452074043272724 2.681028105843512 0.6182477232731224 1.040000430106867
Ni 1.0628197179691996 -0.0155738281911299 12.14466723165952 0.6345438893299846 1.0412852103565615 -1.5340769833160033
Ni 3.4753650195103702 4.114175304759061 7.069920684634776 -0.8006168418340792 0.0476386849238857 -1.4294593099039123
Ni 8.340539767325623 5.555086511667824 8.65199124952811 -1.8254001978808756 0.07973762234095945 2.395492958715326
Ni 2.6193014566559802 2.0054427386732456 12.120208007306852 0.14872083437889225 0.16930997138415357 -0.6928104862813618
Ni 3.977099606108114 6.523320653351855 3.4815546059844236 1.1628865628108425 1.1434713915090242 -0.24247071183854374
Ni 3.545677161221472 7.546297753300323 7.255520957660424 1.4665775549124485 -1.533980566947455 0.35701464322541093
P 5.667860907277915 5.506465326608251 12.020466764665539 -0.10063529172557507 -0.6324978054342333 0.09353493323536795
P 9.450568668037036 4.900772069394978 10.584840348009049 -1.0515909631579436 0.3763238850769841 0.31330666081449915
P 7.029402720768834 5.022018478909221 6.409979598917035 0.07596298578987562 2.179130771038376 0.05474367139978314
P 5.179586790139728 7.822641469989695 5.045025756142129 0.1418665304612202 0.6446786637711414 0.12437582987562452
P 9.228382671809513 7.556376848789363 5.071062335715109 0.34134428367800573 0.5362498441430765 -1.991580879607428
P 3.9748236813202658 7.581672127145729 1.529548723432058 0.6520381894600061 -0.08118489631044727 -1.1429998511892443
P 2.5987252386760504 3.747816440338076 13.325897278172635 1.0397420342391577 0.8124264328744976 0.39238916606996294
P 5.5375293775901415 4.831518929421895 3.0875530093544645 -2.253982011821312 1.2821687802136434 -0.5717750336328797
Ni 9.275164538060947 1.9593018471579802 11.185325917728168 0.5363231205831731 0.5114962913474804 -0.29194824974338107
Ni 1.657569957222943 6.007874781093444 3.058620896082007 0.03567457058347404 0.2890241341180506 -0.6510107766367562
Ni 2.8510463369924657 9.205363318240995 13.53826800039673 1.2554676167733732 -0.7777900737475507 0.7743111140600148
Ni 6.110523633769845 4.7212898537786225 1.0009359295642786 0.6054292313522154 -0.6045010631109912 -0.7863927278148972
Ni 6.231463490149397 7.038850131010635 2.109191466838957 0.01084568446525229 -0.38911949417975567 0.7006603213430836
Ni 7.5276351700399715 3.570424359730968 11.392544689391691 0.47517508831894295 2.189339593250578 0.25173208253581164
Ni 5.46642762931999 1.6687266334278619 8.439347416329472 -1.0155376690788123 -1.0553702276947179 -0.10975165220454645
Ni 5.911877202490918 5.7913832415800055 9.811616731636745 -0.2871683118562344 -0.38252332901947667 0.10682676524826765
Ni 7.444707902361942 9.292833146005789 1.9888517114442816 0.7675064324333556 -1.504608541543241 0.25211106314178516
Ni 8.864596995822135 2.2481863739028403 4.976201790557612 -0.06427783614246349 -1.584861155847406 -1.6961642116994724
Ni 8.855511875648604 3.34194009000891 8.956692989074066 -1.1287495119178175 -0.09504931299736534 2.2677803511569845
Ni 1.2197935019081874 4.502513099988405 1.1307518926164375 0.5595262981725138 -0.5790643682054414 0.29430260890817056
Ni 6.2504512055223 1.9501331215840791 5.650677210655218 0.6741645890454003 -2.1472169530489147 0.0490965004163348
Ni 4.098215962777336 2.210991260227156 3.282086054935192 0.3000546809005994 0.829746412210184 0.730722945056419
Ni 6.255969161946714 6.880956687667578 7.593683436332207 0.06781027477575419 0.4913164739654959 0.22991472955040404
Ni 0.3182365249169525 7.142223563823575 10.780338571489603 -0.9431695997290467 0.7579635259399269 0.08925584624403983
Ni 6.8379928013663696 8.661733136568992 9.65286865531213 0.4508334262497848 -1.126301564597957 -1.0977600055148384
Ni 7.652300111480451 1.4933132139628422 7.931465045957861 1.31932019245296 -1.7752742277587619 0.6211412427708335
Ni 9.017251167408677 2.3862839163360863 2.2508896151814675 0.9557422941877346 -0.17174686296042035 0.5700997028129859
Ni 3.7691265279434756 0.34895965165511167 4.947378364305637 -1.4829310565698075 -0.8528721995943698 -0.5539945697210071
Ni 1.345006523195536 7.687182142412566 7.7406710196714545 -1.2283748743216394 -0.13147824524836066 1.8809637940787927
Ni 8.650251328251523 6.620460839092771 6.802838588408605 -0.410678451297454 0.13998474005747505 -0.7777602489508799
Ni 5.623819440260828 7.215898500527334 13.447989960128398 -0.0644945801389599 -1.0228293176442191 0.8085330113573623
Ni 8.711543376211603 5.148838581781458 13.196775239943547 -0.7096622677313779 0.4290124737199515 -0.41999098694763154
P 2.2255293104025924 1.4849340949479901 9.851901529330544 -3.3073984582237683 0.9395497435882723 -0.015480097913470112
P 2.1832435567932733 8.32414381936419 5.768814428224592 0.2679508583875192 0.28226958900303645 -0.20645418453461864
P 6.650828178404912 2.9189710800485598 9.613697667341038 0.925605108482722 -0.7024256407736225 -0.02446121836615787
P 4.0506816479225725 5.215834375944553 8.895116682752727 -1.2991701998676464 -0.26877695383324035 -0.14079875131833816
P 8.461052307214397 8.358004006514006 8.137772518757352 -0.6264001771769276 0.5435636041956703 0.2045312564802929
P 1.839021544492457 3.226443874142332 3.209632686025727 -0.12948332630551893 0.04056815123034949 -1.709908043648126
P 7.708102071482906 3.206815184033261 13.495004992551976 0.8507353557570252 -0.19772014709573046 0.8921342304187861
P 2.5105865677082955 7.610293042539031 11.866232451012005 0.4184192715851375 -0.015314261759567172 -0.5017811209422455
Ni 3.2009070690737866 4.578436093013221 4.329693305832638 -0.13125687326617394 -1.3204563629399324 0.704672013605638
Ni 4.786734303290409 9.12887366639145 2.925025039984235 -0.19471555594145176 -1.2547237966288134 3.0634524473912794
Ni 7.198109129226402 3.775684907128049 3.5412692987241914 1.827246249950679 -1.7324211371489777 0.05405204464939724
Ni 0.8027428253451346 7.40518112696483 13.351512114948191 -0.5917530194167034 -1.028915375937299 1.728580937467281
Ni 3.6990837814113435 6.039041016453564 12.844527109207217 -1.1928324584406553 -1.1650290630751419 0.4355500177281531
Ni 8.998031214812526 7.47825224688814 2.896935483357728 1.7290933583273254 1.0675634273268002 0.22851142144497422
Ni 2.288549203303651 8.46777789719971 2.608168004173386 0.32557827909300063 -1.1205350944278252 -1.1473640416952111
Ni 2.383506359146019 1.3956435273529169 1.795828207814678 -0.9598776565123468 1.2249067132673808 0.4255689952560413
Ni 3.5267266038042906 2.7601951352571534 8.938039695302644 1.609676672229189 1.693881843423199 -0.8291131495015591
Ni 4.794286657790491 5.850696628397998 5.864925338592065 -0.8318732287451995 2.1859778758671964 0.6988104126185384
Ni 6.35315579513228 8.98358605952639 12.35300074199464 -0.9569841370146356 -0.3027347988359238 0.9011325772626545
Ni 5.603391854103777 3.9794498468074013 5.196363607147292 -1.431286335810322 -0.45035417262052113 -0.7022058114533325
Ni 1.3495490832823014 5.259244157714401 8.455866914493676 0.6427282249129899 -0.02375570765870102 -2.249528089815016
Ni 0.7714353897532791 2.169913140178736 13.49083122517573 -0.5673056850076166 1.0178511477033374 1.1789670133124728
Ni 1.080906352915892 0.19491112778017802 4.198831346326962 -0.5334020902816362 0.4713659989854979 -0.0551481059270534
Ni 4.840074548726418 3.403761638838 11.694785643320092 0.0013112626122558063 0.038536208401985246 0.19657497774769372
Ni 5.284873857672246 0.23415457376492496 0.9686085080879098 0.1429494791127538 -0.6803712320767443 -3.4525873681900023
Ni 6.9129403980535375 1.2233513761683739 11.011948754236602 -0.5188992686797709 3.385605502852814 -1.1038738317220602
Ni 2.718466750983634 8.117294769360079 9.714689275192328 -0.3933245334000387 0.6795559352643006 -0.34875266032693486
Ni 5.0603469102343634 9.244862225171316 6.862553281148373 1.6347827232681975 -0.024314922596280705 -0.8045156626678531
Ni 8.15691443964649 3.3007876540490497 6.707258107859034 0.6696363621577435 1.450938819933927 0.5746690673512231
Ni 0.2674611073745147 -0.02437097420783137 6.408429183214619 1.13721229797319 1.9713090167322695 0.8890571341553593
Ni 6.742756960856103 2.019386261557162 1.4343351776952222 -0.23643710404995408 2.1790397539864665 0.0721163583502758
Ni 8.640181522251412 5.114448893762631 2.2165463746072906 -1.08210712946893 0.5153375194704415 -0.5458035492697827
P 7.182316998045416 1.3961358702662063 3.628460441821087 0.44932778823853586 0.6283601291167759 0.6363459755357299
P 0.3928459842070681 0.1487340072580858 1.5147282727931501 1.489112759900487 0.1833548795129939 0.7331855476642987
P 8.212911478916476 6.9654352999969165 1.0597133128710106 -0.9210313730691105 -1.212338389684067 -2.028998143913622
P 4.592091641740308 1.2675043170526212 12.768252973500847 0.5887096046046894 -1.1490188036898146 -1.622871573652908
P 1.1219287360307322 4.179870570471957 6.477484457073493 -0.6688395772880611 -2.7910468956665158 0.42429604208088867
P 4.7608723661093135 8.722495683660062 8.934042428216069 -0.516204238346111 -0.021398777390750245 -0.3739556419551237
P 8.400679918658385 9.033452036102581 11.323558157750899 -0.15815806853239214 -1.1037473334465249 0.06705359911538775
P 4.093784876557731 2.190721595381916 5.848297153407381 0.5221368017804621 1.3415777182995798 0.9765322343498923
