# total energy = -340858.23865262495 ev
CRYSTAL
PRIMVEC
9.42152670992598 0.00000000000000 0.00000000000000
0.00000000000000 9.42152670992598 0.00000000000000
0.00000000000000 0.00000000000000 13.78935668249244
PRIMCOORD
 96 1
Ni 5.878043326336177 6.699854825428694 4.373818408987618 -0.17891329880187254 0.3249905249103306 -0.07165021734713467
Ni 3.287123516524512 1.0575475156790537 11.745526063527562 -2.5948789235492535 -0.39158312522889976 -2.407889532607466
Ni 9.20433212885846 2.8642194528771805 5.8120756815203976 -0.40371153306131763 -0.41265074453247647 0.4308001617479935
Ni 8.37601035489838 8.138211023990575 4.673764955682553 2.612184761817553 -1.5074766071196553 -1.439425934198321
Ni 9.412849355152103 8.243430632848671 10.85016918579006 -1.1933145402833962 1.0297656397527362 0.4375282245004465
Ni 3.6051659893238295 2.305287388451446 1.1316139047439753 -0.022619537171728786 -0.5492444566305315 0.31639661259373253
Ni 3.2743573480070762 8.011199424150316 12.947102340357715 -2.6827967677081603 5.136890823896146 -3.557055403398106
Ni 7.65950325840319 5.887634440395771 9.125947854161405 0.4490830192175814 -0.08346546481450788 3.5282611048742334
Ni 2.237961159502667 0.6488285024522763 2.4302366161230937 0.5593136679410755 -0.9167777399990791 0.2737373831623092
Ni 6.8470379136791575 8.062414842645357 6.485907031213685 -0.4040334351771106 -0.04212289731197907 0.8799140342035103
Ni 9.329384051169843 9.1077332168221 7.025401544149884 -0.5175211573853217 -0.2810028064754709 0.40268257757617104
Ni 2.8944813962557805 4.8196007656319155 9.229382083732377 -1.1564958287931502 1.0289272030118408 0.6505343512209699
Ni 4.937209681944203 2.305862101572895 3.659460362705585 0.8162609761292393 -0.32829927756858945 -0.8935982165588223
Ni 0.37706456821948553 0.6362008303755833 9.328265715964662 1.477380044844591 0.41548152911305214 0.34312014463150586
Ni 5.20329243564857 3.8655581409731923 5.635517215542617 0.3869433124640433 0.166985437016035 -0.4575591750093927
Ni 9.459872194318539 3.085248466470568 2.7070712159618506 -0.3519449420119874 1.1209094470481082 0.895467151446761
Ni 1.6956486679660516 6.800684002899982 11.534162594053758 0.9250168400794198 -1.52642049521201 2.952080228864174
Ni 3.1472232683212633 7.810699916977218 1.353440921638785 -0.9985650457802158 0.3257040060375874 1.8380104304457183
Ni 8.849545702392723 6.078637048775087 7.305311330264723 2.049119083033213 0.3263892050300702 -0.8885053754169473
Ni 4.949052540856687 1.3223206771886435 12.977590400374263 3.6856601837534138 -0.21272896179973683 1.056030486986536
Ni -0.03480311919070651 3.5455748336981614 11.486823191594194 0.31655010745246126 0.25195165474578546 -0.3003945807385214
Ni 4.714494215092792 7.177318949507368 11.269834128598797 -0.7047082661602121 -2.0815676904802216 0.9989039171768732
Ni 6.5723438846796345 -0.005114946780897283 3.968246185638939 -1.5105058808642826 1.7626547392225385 0.1278676450789669
Ni 0.9868483802142292 1.4334852693194358 4.4434406639642186 0.1042219806355689 -0.6486322491022507 0.7064357903742801
P 6.192100493391674 9.041876746019978 11.98575049537735 0.7107794120549565 1.0995561781833127 2.0204746798236424
P 3.2757328908879217 2.593774532365748 5.874335013473843 -0.4684992189606641 1.7208563151295138 0.8770549674881605
P -0.21617881170942038 2.268703600736905 0.7785723450010634 1.8824172386958677 -0.5442863412943078 0.4306597795153874
P 3.094453297940335 0.625848456968234 0.10772196631804601 -1.3927138748537629 -2.192416946624321 0.7054310032588496
P 4.694435785001559 7.844118071760499 6.473593095972144 -1.2058545817319362 -1.2884672116278457 -1.0265196220116126
P 1.827323923463971 5.870694535602892 7.604306302774963 -0.44338622594312027 0.7802272224341337 -1.0860763985293231
P 6.868622631076534 2.7237256484993204 2.386386004956525 -0.44238555259274775 -0.9998228294467167 0.45654178948847174
P 6.978458787959387 5.329964860531907 0.6733866536386585 0.44388964794210006 0.14800941013416447 0.7017080458813076
Ni 5.5037072322145875 1.446232594783709 5.839612919411734 1.4716017475999172 -0.22782159446680117 0.7537538587339534
Ni 6.296264891272685 5.846207988018527 7.44736910805505 -0.6553685393848196 -0.609801135167666 -1.4948103245058966
Ni 5.18617352185065 8.093185548459338 0.1783155806851618 2.9671283814465483 1.7909646419108252 -1.1341308308343885
Ni 7.931907856443498 2.268515170205282 13.050784356077772 -1.046470354101927 -0.30622507137736943 -1.7282078703985786
Ni 3.8374537271816713 8.172722075857266 3.9081792429209234 -0.20340922706070771 -0.7430904654828364 -0.13742237864693752
Ni 3.526684672902989 6.043334588675579 -0.41604236583829224 0.41286080366075345 0.6012159646018163 2.209643852025569
Ni 6.336796298624721 4.794106114703369 2.7997498307878015 -0.19653898230343572 0.007673714495173881 -0.9788966208170108
Ni 1.4629934905715452 3.693219576751102 7.263502363908286 1.364202140567315 -0.37306192649626074 -1.109437698963083
Ni 3.059216788526897 4.631452879806683 4.939954172637287 -1.0680920461367607 -0.12097194640039811 0.10053450448165267
Ni 0.9180439137448706 0.7071402147682267 12.112708392516096 -0.8782839547992551 0.07615633274760432 -0.8209213577193862
Ni 7.217435809689834 0.7087654281034722 1.2436678889840262 -0.6121953464314553 0.21745619207207711 0.3059047119234732
Ni 9.060644426969596 4.821711187586089 0.017518386524959306 -0.19589697784406263 -1.3105876976759687 0.41199845566045823
Ni 5.012402885588228 6.484789638161163 1.6632725340226449 1.2145413108726566 -1.2047672622050283 0.6311993983377838
Ni 0.9797445491720546 6.007900227203937 5.201400593111079 -0.7944693341754447 -0.7235151144540701 0.7773437302387516
Ni 3.915068263157048 7.381304421515486 9.1266092453274 -0.8972316995463515 -1.3865869360204184 -1.1784324809652416
Ni 8.604567168230094 6.924520548282398 12.99208353471402 0.7056947984431976 -0.7664425099452155 0.20520797083234335
Ni 6.79476728420703 0.6875227121209909 7.9259977328191535 0.9809038810550268 1.0398636474186864 -0.11859341886589252
Ni 4.453178753838478 9.477302018493635 7.810263700296512 -0.9541335549397181 -0.46403835497583307 -0.8284066103528379
Ni 0.9775210688989071 6.685128979382382 9.476017864420628 -0.03317957207576221 -1.6441001440143814 -3.1211063504593213
Ni 6.959455568845241 3.5461118607132858 9.18103646223395 -0.7594609364210598 -0.678953011572979 -0.11353914427143673
Ni 4.329068984185208 3.4736226351980464 10.54888572447326 1.082109443461775 -0.8574904150926715 0.9055839281657888
Ni 2.0448669722223394 8.492516952600674 8.56370035453177 -0.2799681945633694 0.49560121738377866 -0.3777094525706011
Ni 1.704514324478898 6.8167382841942326 3.1255226661469386 0.3077520495448571 -0.12763598868413503 -1.3835826019764559
Ni 2.148946576364119 7.926141882175845 6.018930008372471 0.728411780424739 0.4503703705704373 0.5904175884347315
P 6.731473468634976 3.0457816916222002 6.845091426287496 1.6437229631806207 -0.0027706207666016803 0.8483627417597905
P 9.042931956997064 5.941732846024638 10.939179058165315 -0.805746963971793 -1.2372266682853144 0.9197103402648418
P 5.176205546727811 5.625565257014966 9.507319944333783 0.3686977359902941 -0.4115508266000784 -0.01102771856907133
P 3.495546527552343 4.232309906196969 12.911084786390703 0.07193612401866965 -5.205869150838073 -0.9703664718588128
P 2.411882540190388 8.575181426823539 10.74160493499566 0.2564022343179713 1.2259973752283981 -0.31933126974202425
P 8.15645109945165 8.638305654917133 8.980359830361126 0.9524327701985275 0.003620370361406668 -0.08557222674486555
P 6.445209804993822 3.3916176678358614 11.904282555030289 -0.8493065937302987 0.4068760468322283 -0.23994511720321254
P 7.768293625835537 0.46389147288589405 5.689625984850724 -0.04703087613655771 2.2666022716884835 0.8340445253649057
Ni 9.288080078638155 0.7782972364248942 2.4357378454938177 -0.45534314119468033 -1.2425887039281762 -0.45568586924607973
Ni 5.774199260358925 3.159735055621008 0.38773633137793523 0.9747085508775923 1.4259248143880925 0.3048068508736041
Ni 1.9084338458009475 4.748204437200087 0.9307535531028195 0.1671679853404863 -0.4737285856804036 0.7709529962210594
Ni 6.199995732666665 7.90839172609699 9.049913308193684 -0.09010508161821255 -0.490087229544085 -1.4172733093606815
Ni 0.1700227529884482 4.240977710651612 9.036593153913278 -0.1871014910396197 1.1160927423857552 1.6945703848497913
Ni 8.262763605393157 5.460283416202144 3.8785183929382 2.4981859043008785 1.0460098695257405 -2.24564803803432
Ni 3.048787158601582 1.3738752706406052 9.287600522935174 -0.9156886206999585 -0.6103906891225488 1.168564072811594
Ni 7.511462811233843 3.529087162181178 4.395991971796315 -1.468431834512368 -2.5224339782149654 0.6431678835535698
Ni 1.8724059281546939 1.0134265066996062 7.397699762071974 -0.06731996540289696 1.524871662667651 -2.4444822441298353
Ni 3.956089589891303 3.203959701392848 8.107493078725447 1.1182385850841643 -0.9800060518311057 -1.7249004032919
Ni 4.70857749639984 0.2705325407086367 2.0643214824597216 -0.020033007391475177 0.6198716320297906 0.08034980200366162
Ni 7.021910868551574 7.345361297608462 11.143785408775132 1.514842046345791 -1.2208320289773749 0.27851063618123645
Ni 4.196055871912769 4.111629572219233 2.034344069183872 0.057875789270861615 2.5254763645857152 0.6206015682172795
Ni 1.0725465859962178 8.892489020549528 0.42929845373794684 -0.3471164102750925 0.754452684573191 0.0675315671930708
Ni 7.7451637780788545 0.83103328931013 10.482089927471002 -1.0440049232805697 0.03661148057544662 0.7995269512040102
Ni 2.6493332746146914 2.8375188465462484 3.3454908158472914 -0.8613272723402585 -0.037652520245451286 0.3708428073577549
Ni 3.4374816592328186 0.7233744472201775 5.155095674270124 -1.0590499905391504 -1.5565355694298353 -0.7983727829949089
Ni 8.307073044904229 9.142941461655795 12.985243506416117 -1.1027042368939912 1.1862044116011763 -0.40912344810550827
Ni 4.790469405443051 9.182087904600404 10.427580743283196 -0.44362148188237793 2.194987021344342 -0.748592112027356
Ni 8.831428106777203 2.3015093562924114 8.176619761403881 -0.5175895487294119 -0.18400973948817342 -1.3189036737408317
Ni 4.119515389967641 5.397206295741456 6.9861156626118746 -1.8439931303917148 1.6219331209990389 0.7008732086848382
Ni 5.862752188694998 5.7621491278616555 12.73964126719382 0.3710852623858641 -1.1253703110329394 0.20066997375267376
Ni 8.542724267751534 7.35000611021296 2.1614404627633603 -0.20013029919911987 0.620012528483029 -0.5508573096436062
Ni 2.0051552376828625 2.484023169222126 13.16158245082456 -1.0629655235434727 1.6108776345158256 0.034193872272889496
P 5.162129786015599 1.5085936792242303 9.232084177555846 1.5398748209447028 2.002184366154887 0.24805231969137925
P 1.3923697273193698 4.68588103886589 3.233189987610814 -0.36631920845578847 -0.36011719341013465 0.7296379395223563
P 6.299939286639328 8.23759870789495 2.3347315433228037 0.7181646487754342 -1.3792070986165796 -1.6988481862895388
P 1.2703892226734366 6.812460911126399 0.5061479617549351 -0.3666663073825621 -0.9156698516468811 -0.13203103242803715
P 1.2496524426683622 8.64743511417425 4.109228025093702 0.15284899761465287 1.1470693932729277 0.2435063521919096
P 3.966001035854655 5.850739742304053 3.4430648558847983 0.39033948262978585 0.7482496410862727 0.21887749789963595
P 1.843585478343007 2.786058468360098 10.289645825524772 -0.8799104346590846 1.2829740497237583 0.6519397162089289
P 7.651947194085122 6.239961848423833 5.581008031354813 -0.20149658341902718 -0.17739711926766225 1.8743092648767528
