# total energy = -340897.69829751895 ev
CRYSTAL
PRIMVEC
9.00578445790417 0.00000000000000 0.00000000000000
0.00000000000000 9.00578445790417 0.00000000000000
0.00000000000000 0.00000000000000 13.18087587279195
PRIMCOORD
 96 1
Ni 6.260974363395313 1.9151340721273988 11.144390634525777 0.2732121067864585 0.3243109823448027 1.036379545524828
Ni 4.620408643870334 0.4830315464995275 6.037315709600998 -0.09683108748813646 -0.8338527210690737 -0.25935051831301786
Ni 2.870143465441849 1.6230764863593434 4.770079375936742 -0.18631704746511138 -0.193838295542821 0.5837116371694657
Ni 3.2537268373388204 4.428477368264759 5.064935959474046 0.6083258361737202 -0.7412361858829171 -0.16660825618227434
Ni 4.8118626129065065 4.491535870131793 2.662919467468321 0.6382318797045331 -0.2224734427810104 -0.4681814306099292
Ni 7.005302438132586 5.91515224518707 2.5702841687101534 0.6853609719818519 0.8224236532965256 0.26696509743548213
Ni 5.149453444238648 4.591527093529349 11.557163554587763 0.24692154852104573 -0.2246164572659422 -0.4845030505880882
Ni 5.672842612048763 7.869416450221105 12.396231579880736 -0.7258162517834209 0.3592083084426201 -0.3875899449091067
Ni 1.8951952656244546 6.429760773277055 0.4965735443940518 0.1450616403597502 0.035214600227919994 -0.4884730909794297
Ni 2.603752365009562 1.4718693674865206 0.37087530963125104 1.152750245707789 0.3740394599181816 0.08955897930675544
Ni 0.7214029501510515 9.07206690099624 4.603236414313056 -0.6013692023502288 -0.5693011181710904 1.0998675387761445
Ni 8.644679394126223 2.2191423336991605 1.2986350007250118 0.22241970672493955 0.4831161975428906 0.572317279289595
Ni 6.896296424622363 0.7634113317290245 4.837579530634513 -0.02484328429592496 0.15924384539740316 -0.9857606949266957
Ni 0.8553729978194323 7.326133504829686 2.500175038292462 1.0018133775141844 -0.5064340463332245 0.31280143904330643
Ni 7.681060470993881 3.875540222073361 3.8008633578443356 -0.2722466575493956 -0.6241862002447445 -0.5317722679876971
Ni 7.5443436591053565 3.79597411753248 12.564814459036658 0.6324499829154334 -0.344546078444755 -0.29097277320398923
Ni 7.749540455026576 8.704216634320877 6.979576514620251 0.006788226566427019 1.1067172147081261 0.26018252729601
Ni 6.821800576658338 0.7829232640548054 0.30418207320929885 -0.14742037039991385 -0.008551746224753014 0.1617272739408892
Ni 1.9615318729870046 6.253499562402791 9.179676117357136 -0.021325243840337467 1.1361961980038497 0.5159658970830597
Ni -0.06588541756770012 4.856828494057907 1.2791807054189324 0.049132238750276676 -0.7719500700270061 1.2385109343143765
Ni 6.395475752339066 2.041143006449527 6.846436800266943 0.3932833957494582 0.24276021805450446 0.8619314815831607
Ni 3.331005472660303 4.153584807426519 0.49020465371705 0.433768243237382 0.7374828894880718 0.0018666208950935594
Ni 5.81323378394325 5.533973417705766 4.700076513774125 0.6627458056854973 0.6099733990794721 0.44536906070110394
Ni 5.452308965416382 3.0123177826333474 9.115037100340478 -0.24033592488372804 -0.2033344079587143 -0.26150304587964646
P 0.2956968232151372 5.483640089094676 12.478374239317954 0.058574615110099114 0.017038186429209366 -0.9198273254586804
P 4.000270335020865 6.117287074436654 12.691535750899156 -0.28416243515037515 0.12924087127740966 0.2498292090861439
P 2.5604075250372635 8.393427017149877 1.4476555151629138 -1.3638416719041029 0.33319902886305197 -0.11122900808102135
P 6.298321351004938 7.798901158930205 5.680601095247628 -0.43228831625774583 -0.824372292382464 0.686580960431882
P 4.598866807756946 1.033575855794886 12.335559610860711 0.484746534057462 -0.23959184762885186 0.9057549065260143
P 4.03300636105438 6.133398422600053 8.210406965137194 -1.0911242453658756 0.16898266995172187 -0.36397564792427634
P 4.803703372305032 1.0533615639642482 3.705407447434532 0.04096744355129719 -0.8936604372553255 1.058374047518048
P 0.14660156076730999 5.510594401589396 3.440089836494183 0.22472778603282587 -0.1086512200515161 0.8484504163775906
Ni 1.48038883946113 0.9678696533353199 2.620753484664602 0.09869899393481067 0.895067087794865 -1.1081416058594786
Ni 1.7811550186746896 6.457903849303117 4.804429238521895 0.5609360340358469 0.720651676863346 -0.3294310771801875
Ni 5.974185161459336 5.597176012122054 9.217926385134895 0.040647598318033225 0.13227323034583024 0.4495836130030838
Ni 8.548173409263736 2.369836122865268 10.121805437925197 0.015490125215799129 0.20605026422798062 1.4044157366717231
Ni 2.236568526374498 5.169680435840098 7.0923388407738255 0.05706152089968238 -0.4135020367891782 -0.32030906027426126
Ni 0.4457557045860968 -0.018355589618021893 9.2617404264707 0.7534797791369604 0.21034683472080545 0.3337541300355736
Ni 1.509153314605847 1.151560636280464 11.301283105045082 0.19210280090895301 -0.16849236057886466 -0.4685714669594962
Ni 4.0152199370059085 6.744837143788346 1.7749761500470156 0.691299448953474 0.25184546818522435 -0.14175777279749782
Ni 5.56584488844376 7.715030289480378 8.03316412377114 -0.29665671096264395 0.9995965723685236 -0.5033728909093976
Ni 5.1429512679535865 2.98399459092072 4.800079444691307 0.7560837924187107 -0.2002927929189131 0.03842410830415318
Ni 0.5887360394749814 7.408914674375785 6.744153604757825 0.9784276516003924 -0.7654266670861914 0.6935787319059539
Ni 5.2008404496161535 4.779549858736424 6.987775380672771 -0.42114541226704894 -0.522186681181791 0.0021453284777769505
Ni 7.98632954237161 7.228393727514216 9.03396162634617 0.16543171937566992 -0.605242569262706 0.4365486341959966
Ni 4.551892636700326 0.21052551850829773 10.187801626640136 -0.710020679512061 0.17841784722269274 0.007118356212336127
Ni 8.160240243536178 7.084427259241378 4.678024950267753 -0.16999028528062982 0.4561155005843306 -0.3720082884207658
Ni 7.245918983817165 6.184371161898456 6.995670751793427 0.3477010791339689 -0.42609709984536936 -0.9940774423225073
Ni 2.284749472531115 5.144680378544627 2.6975719244069065 -0.8798482139625814 -0.5849807336898764 -0.615611571201856
Ni 2.3794723120965915 5.16175534563116 11.54341532423212 -0.3583693574810925 -0.22623111005122973 -0.5213019645839925
Ni 1.1962743554706705 3.1795101686889735 3.9482781409364947 -0.45707092251906445 0.43083461453035476 -0.7783240918741499
Ni 3.7401832836184155 2.4192238441218827 2.470359588116628 -0.037476913899535454 -0.06770408821519308 -0.29069303718004136
Ni 0.8858368644669067 3.207599210009065 8.326847253610461 0.9545277050543431 0.979348620752765 -1.2645577520000997
Ni 3.858663382242052 2.8546535163971054 7.102369483358729 -1.093738285949955 0.15567695398175127 -0.6155992299066817
Ni 4.074928287102801 6.936246083902877 5.974508469116724 0.23915630275333005 0.22262848030163596 0.019264761766882948
Ni 0.7577746113179168 7.205275879143368 11.151139569301435 -0.5428228693749039 0.48871194646311317 0.6813197120329427
P 0.22803636555632134 5.534901013491584 8.040940618538661 -0.22885157839321232 0.4070925337184086 -0.40020686234216885
P 8.36233004386412 1.6385664354040876 8.069898718046439 0.08621345987329024 0.2625410002258575 -1.6197530826285844
P 1.844618780836499 3.199890258624006 10.386411591903606 -1.0428628392563264 0.7060730077182227 -0.10585128870887577
P 3.8779717838420127 6.048203702853961 3.865397007184352 -0.04775309901456292 1.6673678562930705 -0.1622990872839592
P 6.981329040250547 4.0137159710230765 10.389390705359421 -0.18233980798491822 0.11982831971425814 -0.056924481101185836
P 6.1658552693193895 7.71909189821246 10.1923756645005 0.870845753353655 -0.7062516993879321 0.3351152720491583
P 2.4224479149114284 8.47178634659076 5.929759627367637 -0.32126216821614995 0.0938843461549867 -0.6226862186604502
P 6.682886353393698 4.028836682910359 1.4543116903599898 1.0354230951488297 -0.36839640269979135 1.1488383122478925
Ni 5.3332074676740895 2.874718403880646 0.2640964265854262 -0.5306600087601248 -0.7905561151639675 -0.1789598357690918
Ni 1.2159790115810776 0.9125291086376727 7.162870342476515 0.38983837462365123 0.8134391904097281 -1.1233771918623106
Ni 6.895449880895499 0.6653095218835551 9.148344993678844 -1.6398763357410209 -0.45753192131588305 0.11278581104517994
Ni 2.665261871972122 1.6930784479435277 9.079290440606002 0.7539752307161403 -0.9107675292492572 0.03621630201955698
Ni 6.244358691309526 2.1108117540135627 2.5575643989248067 1.4351486469792056 0.11092150414293155 -0.4697168934178491
Ni 4.094966157233356 6.663406841891499 10.513290484991852 0.10024448404505962 0.8609290084605752 -0.22082125188956808
Ni 8.118237265428801 7.141947203746484 0.2807517241222576 0.7304599212030194 0.4952996269829599 0.016263770157030052
Ni 7.548864562838182 3.9750001041955443 8.100030271252196 0.5297521522338748 -0.3002364578941023 0.15694579339184583
Ni 3.135453871754736 8.291571596396354 12.393015614297086 0.22348028677896997 -0.13268820639606183 -0.3886806068701242
Ni 0.14094682878754553 4.9322609435920794 10.269734451302504 0.012084441968359831 -1.2690186159849306 -0.4362349596103197
Ni 8.625956368507607 2.4750326896046038 5.736264047024229 0.22643139898749393 -0.5722859118310274 0.6049754316442484
Ni 3.6365807407051967 2.777482950487563 11.447946805724257 0.19441216576842002 -0.4713719125227689 0.09065015548840517
Ni 1.1755430399468325 3.2690096533440127 12.629387733827718 -0.9214496915534517 0.3529900954470502 0.009863265947324949
Ni 3.0656050085041335 8.33824857657014 8.055057185473334 0.3183917886468904 -0.036206788937860224 0.24480887305341711
Ni 5.697914715618861 7.9102756937187815 3.5809141866148635 -0.5638858606927901 0.020082629682487994 -0.5036863083847584
Ni 3.123512201735357 8.486465775045954 3.689471712065535 0.6743872465791676 -1.0803410387074426 -0.016679517538209985
Ni 3.4974683901853334 4.340995179299267 9.356326378114385 0.08971273127580033 -0.41174057401338116 0.036769346309549575
Ni 7.35285366693187 6.10239150715758 11.381211242115961 -0.5971261108031587 0.09299448735086566 -0.14530563804975621
Ni 0.7851242777446514 -0.025040583324948424 0.08110159076886281 -0.8724038418693942 -0.9727362576425699 0.71577737949018
Ni 4.583836153712947 0.17491214438187855 1.3903454054326587 0.6883887030645821 0.35973358481847073 0.2527157866053196
Ni 5.965467562229504 5.778876716730634 0.4103737791169159 -0.2817018894250245 -0.20806292378263522 -0.3874511053383972
Ni 7.785383476653368 8.800470457222172 11.32378225603257 0.6500599826877127 -0.3267136782490244 0.05370674549483654
Ni 0.1202074080578121 4.915393109545099 5.681208085111358 -0.29034542403263547 -0.14979632683125815 0.5058126106991417
Ni 8.221695715792768 8.741617656636471 2.352456760268438 -1.687757732803332 1.3727497730270102 0.12430306765616013
P 8.472461780415385 1.6334871730429041 3.5262265612810206 -0.21663626727394306 0.24945974156186718 0.21356457032715478
P 1.892925807973713 3.141028452253978 1.7299238133660637 -1.6446035660133613 -0.20470094928893778 -0.4720185449678322
P 4.677190114060515 1.1807754006415978 8.114792552923213 0.5423564712614466 -0.9051792365282024 0.8367310710581333
P 8.515707556760072 1.6091625495720587 12.323525181262752 -0.019437025678689105 0.18574677678393817 -0.05986916555180657
P 6.431327779750187 7.824126360833885 1.4026824293840512 -0.7134147927952745 -0.2245033287268456 0.49189445795615283
P 1.873806527844648 3.0832293284346943 6.088285747164101 -0.9162005273393704 0.022756062749593065 0.9411499981958564
P 6.978609293383387 4.078260427304286 5.927123634294732 -0.14739800180241067 -0.4449363440390595 -0.43807818346664557
P 2.3759960793458523 8.28318721118667 10.228161949686022 -0.04290579822459062 0.6741712739136196 -0.3390824842270225
