# total energy = -340895.532567015 ev
CRYSTAL
PRIMVEC
9.05006762834203 0.00000000000000 0.00000000000000
0.00000000000000 9.05006762834203 0.00000000000000
0.00000000000000 0.00000000000000 13.24568876894024
PRIMCOORD
 96 1
Ni 6.533126051865567 1.967014063310293 11.447414045934979 -0.254652084396084 0.24460781278620453 -0.4912303420095927
Ni 4.3905678299431425 0.4549251712868602 6.25860130539238 0.040964615337819775 -0.17353506520909467 -0.08739719576874627
Ni 2.917388797977296 1.6591941186345978 4.7272004744060965 -0.6214988832205683 -0.512355296913666 0.10608243088307535
Ni 3.5331553882731916 4.079716112666784 4.757202353058211 -0.47813262828537 0.7239884545460628 0.14728281638078505
Ni 5.098645108378635 4.43294024581271 2.565054286463147 0.47809226196573795 0.49444036430645816 0.3805358662758027
Ni 7.214288429661142 6.109238991955528 2.6179175405377557 0.9441137088098708 -0.6461102540113454 -0.2060438364700774
Ni 5.040064021679849 4.761602495859533 11.361277313819777 0.41353031892395237 -0.5976123064109579 0.21011080745059943
Ni 5.5984531842497605 7.887142845524153 12.393421218043533 -0.20686221860631468 -0.34376831973846605 0.13117768328880633
Ni 1.6788418151003883 6.582331268670958 0.4861370439590013 0.888529029566031 0.12418479691074097 0.20960198613498096
Ni 2.9312444512657003 1.492365174990939 0.24924790804437483 -0.5462864024434722 0.26076333950014446 0.8815608257783141
Ni 0.8431920706627206 0.10587673926913115 4.86753896557393 -0.37113565600782533 0.13240538504832036 -0.1910152242717291
Ni 8.665376246945739 2.3489993108589284 1.3384904979162038 -0.33651652327205916 -0.6464205861629124 0.36044758016635986
Ni 6.77269038772275 0.5778694327876056 4.859326934356492 -0.1421210696741875 0.6865063984402048 -1.1652571199255481
Ni 0.9230706811261049 7.47663178532689 2.787979168279793 -0.7273861673737022 -0.0840745591534165 -0.7510251469488808
Ni 7.531855296996283 3.8820897894408657 3.84399172043486 0.7395875945359005 -0.6157419261321331 -0.11959383510594886
Ni 7.774949159164684 3.9240006518697355 12.729397732615299 0.06818796983014708 -0.15183084076278366 -0.7782047926874662
Ni 7.557005434480591 9.057488519987336 6.9438398335740406 0.8046889550209237 -0.2336402580311073 0.5703850952638887
Ni 6.964081214465513 0.6523578230690346 0.22717569850480016 -0.26604772782753533 -0.37659025136449337 0.5549949859610634
Ni 1.8215161286808528 6.409203478071892 9.157499910532616 0.25678352891679 -0.22035099712136888 -0.03931165311542908
Ni 0.16058258707954606 4.65873037898867 1.401486207524253 0.45547529589717034 1.5156524580622286 1.0535280322796567
Ni 6.036711751293692 2.112783499963673 6.910871342807007 0.9944595082522744 -0.06464293279136608 0.46554090766328854
Ni 3.4829365639117587 4.142414980061993 0.541812153994882 -0.16294443417744195 0.060467718367753935 -0.2627942538872442
Ni 6.092822169574623 5.653468544367468 4.8109932390479475 -0.7205352058901398 0.16526614033208312 -0.3218126414029812
Ni 5.222784883791463 3.273445602239663 9.154135095449254 2.2030885674055543 -1.674708870039174 0.6307905929351395
P 0.38250562642785385 5.4316604408759614 12.546832531664077 -1.1907326384888333 0.30147161585278404 -1.2784188262529081
P 3.8255540179890954 6.019607123785472 12.772076040765173 0.6185472567914122 0.930837303415939 -0.04794850285482065
P 2.231149332334044 8.537091540634094 1.4045858556309012 1.862672966189405 0.011759968749405552 0.40587820169533323
P 6.240320169113754 7.704765885976198 5.684267733963219 0.6419013581363203 -0.16801824915592353 0.39153273160693863
P 4.87447493727885 1.0018424683385605 12.584463617188907 -0.09899929878404885 -0.11419091892282271 0.4031214648858025
P 3.947956180448707 6.090324350954375 8.134614225325214 0.4435435774565909 0.7455970339547741 0.1513811548198748
P 4.753339784264291 0.8554295718884425 3.7725314827271084 -0.11227287596450342 -0.7606788679885609 -0.5990935189421747
P 0.2688702643212643 5.5875569030223025 3.77246451222787 -0.4326117610354356 -0.2230354859320675 -0.8921308879846764
Ni 1.4522643260550028 1.150806578806968 2.563875062672501 0.029368168749472005 0.14093373423430566 0.5051806335420977
Ni 1.8224482856297133 6.644948685458985 4.908455225588432 0.6075264802008763 -0.2991468243743493 0.5894673087063202
Ni 5.995923097230441 5.586027441620774 8.961304402972862 0.00472285939696606 0.6921219448547694 1.492116065503185
Ni 8.730907785457386 2.4071640944543393 10.260812640291762 0.4361277446084941 0.15625442375177606 -0.08993101793419352
Ni 2.3819234562953846 5.2293823829732045 6.856405321784406 -0.47477142512262105 -0.3538611851980938 0.08731209225410769
Ni 0.6608829866207502 -0.02043595734196299 9.195779885894662 0.6325525699315687 -0.4177068188991451 0.4363000085203002
Ni 1.4568889105294474 0.8299807821778007 11.491839922112279 0.26879726554821454 0.672562534665603 -0.7678463322712776
Ni 4.076657189863727 6.837199268610891 1.7049449246887256 -0.01205590272326956 0.07508084029523844 -0.6891536062550648
Ni 5.6903023189486595 7.981924202081604 8.063842697751523 -0.6227142436849082 -0.3080490119599856 0.047149918212925246
Ni 5.346988009676543 2.649687802372467 4.667740626156492 0.5528555710205576 1.0916760041042877 0.30573553333546055
Ni 0.4727728093339286 7.641044360957482 7.05268046993785 0.7020744280817909 -0.6592815012859807 -0.5414604418097384
Ni 5.100292220657203 4.650422417056106 6.8619955484573305 -0.5965638105417854 -0.34463169618002587 -0.055904524477103715
Ni 8.10162039436928 7.32867223234706 8.962098998896261 -0.8055428183807868 0.004164415790334763 1.1332900801006482
Ni 4.519295989560556 0.18668931669486896 10.516758503266736 -0.04215580743244352 0.2547179046370129 -0.5424469740927239
Ni 8.24969759822615 7.440856868639064 4.485560053072519 -0.8508736811071024 -0.38353017301743625 1.0712388192958584
Ni 7.217528353813493 6.216355590467318 7.002598301595133 0.7944991589721155 -0.45914374588769313 -0.9550079871248714
Ni 2.3942677483171897 5.282886381824312 2.5585771531786854 -1.0424578905084239 -0.7593038420179052 0.4383787454261999
Ni 2.2642454290523286 5.225861906729449 11.453083008194845 -0.028824894651492294 -0.29273320753852167 -0.33574133566893144
Ni 1.0230739266106676 3.324189330514047 3.720753331741513 -0.19386194969190484 0.32413074801319663 0.12114523875346879
Ni 3.826386624195845 2.4835647639910516 2.5022033779345323 -0.7499216294720568 -0.12220016238054439 -0.1857300646133898
Ni 1.2179490293273272 3.583700015063353 8.330796157783771 -1.0254251033958535 -0.587925161030181 -0.3275652276160423
Ni 3.539798137792257 2.7388309668994295 7.268478423626071 0.0419082101980117 0.4603974157891361 -0.8782322756257134
Ni 4.175891179613793 7.092592172463775 6.113653614864792 -0.37008947413149806 -1.196142496650495 -0.6695183485226405
Ni 0.5247057164731698 7.374664675202494 11.139557900989425 0.6108833124882511 -1.0397332924884095 0.9264337750316045
P 0.15173071609235594 5.629639716733001 8.061564795770666 -0.4303859570287104 -0.5277505484228137 -1.2845570779401618
P 8.651719695141557 1.487704390246636 8.197333002868843 -0.1944173079747426 1.5034924256609268 -0.6682826763433266
P 2.011811897260391 3.1249339951444886 10.398475026510294 -1.5132533617024326 0.45360970344334134 1.6684932281467653
P 3.923846800722836 5.995968347567764 3.9097567506870976 0.7673189990128978 1.2680611371676676 -0.16717852686344756
P 6.95397228910748 3.9078915317826297 10.603902507890755 -0.35681589695104354 1.288548458487742 -1.5262415464319843
P 6.335119625806134 7.83391939876445 10.221565212717742 -0.9970141563533281 -1.0836011975159534 -0.3167285420118545
P 2.38936261175134 8.42325979206352 6.305516855129211 -0.062223267606279935 -0.317901222163717 -1.2441177389781928
P 7.142141291832822 4.0283026794000145 1.6535785517727724 -1.9260324042826575 -0.412194116611032 -0.41050670160628006
Ni 5.540940005511806 2.980449668071091 0.2621596392962142 0.15569598014514477 -0.30442118539941115 0.6408173810435223
Ni 1.4692332025512518 1.1661373930921126 7.068111739971852 0.5185310867070747 0.6873921434792677 -0.056928594866243895
Ni 6.825615182256119 0.8364542954352766 9.161406824657112 -0.46902526666746325 0.45076323513348177 0.4545556122963785
Ni 2.684639162921008 1.561770142377465 9.20715763071124 0.5753910331189123 -0.7743558512550213 0.33698677804025834
Ni 6.421602070498484 1.8444670997712465 2.5268141313979458 0.5647721199524854 0.8594215706771134 0.16088189522145843
Ni 4.179746508353741 6.672424690281712 10.320139452549636 -0.2124199151997503 1.0471455257920805 0.27027230743184416
Ni 8.14335930551632 7.002046247479788 13.555107787956523 0.8641989374610988 0.6260710759722831 0.42613206684836286
Ni 7.558543945949585 3.941919785449775 8.118083372094254 1.057850056693778 -0.7390558904021466 0.3501698523894356
Ni 3.111557995431712 8.261562236672328 12.597298422867295 0.44218937742154174 -0.3606429840066176 -0.40689841542973143
Ni -0.1274339999699663 5.026117867716799 10.181470698829033 0.1983942903446196 -0.640343012510265 0.3916908544513577
Ni 8.539679859928988 2.255077710710622 6.07898914145488 -0.09321200267831044 -0.31186607171323066 -0.5431869375825419
Ni 3.9046244574278854 2.635388695778294 11.477747157056301 -0.47897517879132345 0.10385636976603403 -0.48004012972072807
Ni 1.2015412570138873 3.2311455869098125 12.6544405488392 0.06131361130781699 -0.12237833982962151 -0.7800747560166694
Ni 3.226349051153539 8.27898361654181 8.407926262758137 0.3454842739883082 0.4895814935522601 -1.0044346171871152
Ni 5.614643754944049 7.8057284386120145 3.463390228201572 -0.3327884236881946 0.1727323668021412 0.3247084748935376
Ni 3.0660180559495105 8.31536488774977 3.6289738825620925 0.6815058599018199 0.43263027297819684 -0.045554548701347355
Ni 3.3485521121289286 4.343778981150818 9.26463098915235 -0.6510537140595497 0.993604873561463 0.1409545601699121
Ni 7.252072461326125 6.208192429614189 11.495773986439168 -0.32439480030786066 -0.495191897760502 -0.9014822472925894
Ni 0.5022760292687407 9.22229024851891 0.3933620873584676 -0.7243964886177588 -1.021033402086061 0.07196054949870188
Ni 4.781910847250243 0.31415318188746866 1.5451098731817607 -0.45705446745883216 -0.9251343394938906 -0.40966749353443643
Ni 5.956682004703647 5.550370175809989 0.37649547662456895 -0.45307594242705845 -0.018119592418846215 -0.09413040072752177
Ni 7.860499446908176 8.906017540831217 11.172618702444597 0.8601682190351508 0.41321741566922376 0.8445567377501391
Ni 9.077851171782834 4.620982547593547 5.7670007357049595 0.34998087630708113 0.7413932802860715 0.7530738019477934
Ni 7.9295243114611855 8.923221719081546 2.3512156723810254 0.20210619197856808 -0.4260839872192469 0.4393814756591013
P 8.449468787441194 1.6169484037095354 3.7225153798768837 0.23202534813550363 -0.3352615678190355 -0.22879887077840597
P 1.8091356363891893 3.163948835984665 1.5783824462156064 0.7623176891435646 -0.5155699471962218 0.40638290924589365
P 4.778435621343812 1.2340581494144334 8.394256135852759 -0.8275622600746716 -1.0457455601207604 0.4455585510040907
P 8.595916979154426 1.6663979723364721 12.410706846901046 -0.1774202591961138 0.14956878420148437 -0.2522414180720624
P 6.286774165409886 7.564842792904992 1.2565367069831714 -0.07096167592054231 1.0239855427358493 0.7804388242243075
P 1.837842450387111 3.1664104543350544 5.892821108645976 -0.6196939688013456 0.26933385477797483 0.6325371433126009
P 6.923392111144373 3.834766986668126 5.988402491167303 -0.24995802135452436 1.1412309322142795 -0.4814560362316483
P 2.413327190397777 8.158436717912455 10.397865051963175 -0.06859651812247541 0.8217173712581203 0.8250690613391727
