# total energy = -340874.75835002214 ev
CRYSTAL
PRIMVEC
9.23924060135761 0.00000000000000 0.00000000000000

0.00000000000000 9.23924060135761 0.00000000000000

0.00000000000000 0.00000000000000 13.52256253683765

PRIMCOORD
 96 1
Ni 5.885562427746366 7.916088764318762 4.174577067529573 -0.343812285602524 -0.8123462144558654 1.8918560155112643
Ni 7.803647208906399 7.98613144563192 6.183354232249816 1.4884345028865398 1.2670553216109728 -0.10405125938565951
Ni 0.34990296808905513 6.349279902368104 2.7559794801185573 -0.6865894450723145 -0.8637489944078737 1.2872353961032734
Ni 8.071446591291556 2.95696344785494 5.6158930231085 0.05014113963076526 -0.7458214912607543 0.6191535229168433
Ni 7.419341005342118 1.0073359000410205 7.620653890035993 1.8789375076773835 -1.2719285905428739 -1.2814427006808964
Ni 5.7811405329829695 4.0441725809723685 13.362887981783018 1.6048959630110942 -0.37807583477108436 -1.1948767425641937
Ni 7.922380687016857 0.08302750974179685 0.39776777679647446 -0.35378713742704876 1.6192154649575596 0.3086131119935718
Ni 2.907773732077173 5.528521222540499 2.6814566911456246 -0.22654581307817112 0.597132538561062 -1.1946635981121234
Ni 3.043257952994749 0.4323345468264069 6.596440669594664 0.088748310480002 1.5474662601387155 1.006195308631964
Ni 3.8489843887257287 8.480356891985098 12.15489056349484 -0.48153933997407394 -0.5826695690581966 0.25545838234746326
Ni 6.655985725989209 6.126669644676609 6.1849091964056 -1.8126688663571362 -1.3451944891165608 -0.1871284876228132
Ni 2.0466118540722253 2.1095033633320415 5.108540464024847 -0.29393802647990025 -0.6217400526970969 0.8464138455635358
Ni 0.15501227938261938 8.37639695924065 8.093888706172134 -1.5474644603665026 -0.8218420697614426 0.7667060480192474
Ni 4.159385908498431 6.110658041099811 4.638414652276238 0.2516112406872312 0.475273304459704 -1.0336554617254454
Ni 7.760536913298009 5.319880696302044 1.53782628880579 -0.2985531566544084 0.006203300597234478 -0.17584340162729717
Ni 3.4052883480052727 4.6694936090631005 12.754494165990641 -0.31398748893160766 0.2965055300967603 -0.31177171222721145
Ni 9.267235277342929 1.4666000608000826 12.059488939113455 -0.7991258591108494 -0.7653490197707207 -1.6533967388249589
Ni 9.032272155264717 5.632425719842673 5.486860563747576 -1.2426840918554598 0.8364497923722886 -0.46669764697555105
Ni 1.4189163412040917 7.974148150860364 6.10401687511539 -0.516170299784382 0.1815597352857841 -0.4592586741990026
Ni 7.326403486369812 0.5671516945886199 4.581294896481181 0.27755598557745104 1.2905156095164418 0.9072384330500762
Ni 1.6628692441710646 7.686650707987189 10.707759430021374 0.8898732022987512 0.2857963712093723 1.430746404146452
Ni 0.7191750797086345 2.3805549583306056 0.5196749339771184 0.6608573304135328 -0.8406023810880813 1.1950199530102774
Ni 5.0413915127983895 2.225806921222825 4.827567772707319 1.1240091690193545 -0.3406572849133101 1.266254422976232
Ni 6.1461367241551494 0.6233133411563763 2.438645758289496 -1.5039374836181454 2.077615647811009 0.60015178500336
P 2.0804551915804823 6.526109723981681 8.008359210135705 -0.1668625382849255 0.362363309131834 1.315898825476237
P 2.94520189485248 1.4912965503331352 8.719024025531247 0.9165787366143956 -0.0043747320289279495 -1.0210290312106867
P 7.5763988525446475 6.39976311179893 3.8036668385907983 0.09083347514380485 -0.5540729883674265 0.39399893375924405
P 4.822070424681817 4.896649573021061 6.193306741986069 -0.6001055051464568 -1.1044767554133816 0.6485432889328702
P 0.007402479391650453 3.7566936165799523 2.065138378880185 1.1663256703993785 1.059795096235291 0.7594691639511759
P 2.103442421643421 7.126216865078137 4.144976389203351 -0.15265410799502743 -0.8576323399871746 0.44435630316587343
P 2.0663653500025156 6.839560193079451 13.200725454271092 1.1752911071227823 -0.2609638855467248 0.3995900546937763
P 9.254023163600968 0.5398746852177142 6.269478735366652 -0.09599033675439596 -0.5996555620932318 -1.7572024578587155
Ni 5.145388402504353 1.0908401545863735 7.732106846727805 -1.1771996369994047 -0.7279659511365721 -1.629644887821
Ni 6.357567500988062 8.367416417592267 12.196161326343772 -0.7528727416805808 0.2193775774645061 1.0482752685211494
Ni 5.306299012944923 7.940692861448024 8.20742418764537 1.4053187081019667 0.7980295407228772 -0.6041295387041854
Ni 0.670457489114234 1.9656483906310958 3.292135371083726 -0.8478274380816109 0.4298588808806468 -1.0838845330843268
Ni 3.0418997846590368 3.106334247062145 7.1105822225088025 0.4232979398336774 -0.5634613715608618 -0.11486506217171186
Ni 4.253044088220299 6.902091371964485 0.48804531846366833 -0.9921686553355686 -0.5257702847679913 0.10067694359678792
Ni 7.51104046610364 8.231987632116965 2.6812672867178557 2.9037465747557927 -1.8564832924389254 -1.88508090157096
Ni 1.3779680278443878 3.5059591111747976 12.019651182447307 0.08949778705151683 -0.48782440165183727 -0.8176617131315079
Ni 3.2026348495324055 9.094526156938382 4.352195920271517 -0.507276596839178 -0.2579796061074202 0.2617642699608331
Ni 4.739656400501185 1.4373024295582912 11.66133034244895 0.07503970264465787 0.638491818234139 -1.6101191590832464
Ni 5.1581200757466075 6.261590271931066 11.937190962064781 -1.2034858243894435 -0.4748704125943306 0.21531574869030662
Ni 8.144270283958791 4.595441097425459 7.6445206957830125 -0.14455590436792523 -0.3477501872043495 -0.12966356063712509
Ni 3.9405267824008074 6.933717291781785 9.72615666228393 -0.2792907088803706 0.43565363318555295 1.3247123100028089
Ni 8.28588936048802 4.337989664264775 12.79142433370952 -0.8323100591723019 -1.3402561712746788 -0.09434688761370202
Ni 6.539682168098424 4.5489215221172214 4.348030870708666 -1.1812897479083784 -0.0332307370286718 0.3182796885490583
Ni 3.3767298559938004 3.6465433927815787 3.902719810769961 1.4560162344568344 0.18143632233404236 1.8197530268974271
Ni 5.896898975691392 5.596318768441562 8.779509636596373 0.933678886629792 -0.4640329556591944 -0.7220238746205243
Ni 5.076759324969181 1.660513237874421 0.3778424309951347 -0.06372530607310316 0.011089425044942192 0.3691103980476804
Ni 0.5802686441546784 5.8525598611125975 12.001125581563386 0.11326326490223075 0.6911207572837645 0.14075375701301565
Ni 0.30227468393533813 8.790259492777333 3.9557687572540345 0.6788018307070955 -0.15502260822720398 0.8434653044581732
Ni 2.162508885386333 5.656808075202839 6.078256949014715 0.22909454764195386 -1.4820478826339056 -0.737313196679427
Ni 5.496636603992589 5.866936119142313 2.4629181666891524 0.6625681424570524 0.34429128212147153 0.7571207183236573
Ni 2.404835682046603 8.614843274941743 8.718847556040009 0.9055078235122147 -0.08627825167295465 -0.3184712357345741
Ni 1.5309606092801589 8.886661726891763 12.99108524222363 -0.7272897510051539 0.48921048336608647 0.5355625882680648
P 3.9015187095206922 1.493587881947126 3.222656283433687 -0.7879767844725655 0.5024632346109348 -1.3318502065991709
P 5.105484123307476 8.749412811061799 10.385706304206723 -0.04190615331548267 0.02108098904001531 -0.371138998441935
P 5.42734230115013 8.815630446858053 0.7673826642341145 -0.08351842953963036 -1.1980417705557367 -0.923339709487313
P 7.425826952088173 6.398525053588145 13.054614259069597 -0.4054868797941855 -0.28062742541392316 -0.6576599065221578
P 0.8114482972976912 3.7644822962194446 6.037351136160755 0.9440003231604582 -0.04420497665198839 1.23264316267969
P 5.790407491083101 8.885469864882872 6.109304492384288 -0.943410254984943 0.563953480705932 0.7263932073328135
P 4.384102712996337 4.607064061822234 1.2027818670942338 -1.127653193529845 0.7962809334628868 0.19367374494049872
P 7.210885263911243 2.0923645724290063 12.414266530426469 -0.31854914016036107 -1.8594650007750684 3.425591556327449
Ni 9.085896706424402 7.31685935105831 0.587946452909623 0.9397919415060654 -0.4037251599080724 -0.19334567217711862
Ni 1.2019327809034044 4.245994547811126 8.300540947881029 -0.34192509588214015 -0.10700262870449959 -0.5059817892871544
Ni 2.9829534310410515 3.0871813017564893 1.7665741738810512 -1.2725286860207181 -0.15261811255076943 -1.4381069582765813
Ni 9.030073216054516 6.663146137282928 10.006465976142247 -0.3202967189790871 -1.7473538471994101 -2.6243949307305
Ni 0.7143060000289043 1.4980596742905594 8.055282540248506 1.9718072965249265 0.2013587722895822 -0.6139557807659879
Ni 5.366372553889145 2.9792022994471794 2.3491258343333796 0.48712609003323204 0.7034180865938788 0.5887584555647537
Ni 2.2675313307743648 5.291516228338531 10.13075223772048 -1.14842539308019 0.6991503124564605 0.98925970921889
Ni 2.2337434287083813 0.8028733583019463 10.881605900916576 0.3509386122346601 0.45207732595921496 -0.16974140249461733
Ni 7.632859850500683 2.5129347944808393 1.3788817887178706 -0.8447418571777515 0.04190178244010848 -0.1683949157690519
Ni 8.587264142410444 8.236856711796696 11.740721287177575 1.3255360914556849 0.13998576849873956 0.12661577494973678
Ni 4.994539324836508 2.7026163994615984 9.208256586383616 -0.126416257344421 1.9969079482472967 1.0528214931309352
Ni 6.776049654714242 3.279708592773978 10.94405300271416 -1.0733175562017578 2.4797102140941942 -2.2193397391570944
Ni 3.736136306736689 7.4190083926884745 6.611397151920181 0.546264290956285 -0.0373370458875615 -0.05716205103328865
Ni 1.170159033240042 4.816314377925703 0.5247361898567315 0.4722216621175738 0.7952998004965399 1.3191628409394895
Ni 6.895263573324409 5.828380769040768 10.759672873862868 2.626657501512431 -1.1299633297202605 1.0181342261613948
Ni 2.059297331112585 7.701599798920403 2.0386069762078645 -1.0995890883037773 1.1049048440897358 -1.7465298086362178
Ni 7.111064510856585 8.006393099783056 9.824885337125789 0.2871107191454217 -0.2154913550362224 -0.7231795854915223
Ni 4.262255610878156 7.9512440739608365 2.5767918043602602 0.6886005619650721 0.8191820064307762 -0.4605133725417101
Ni 1.2142209706074671 4.341223398397423 3.980081818311359 -0.8275717731563683 -0.13434245417003313 -0.782413174341859
Ni 3.8348113939843516 5.076482147757812 8.234469292082762 -1.7235978824303928 -0.5971723906600619 -1.246929240285059
Ni 8.513987726964638 2.574976293625788 9.34441527184886 0.16716515712700888 0.6459703859993714 1.2731526927579622
Ni 2.901389416975287 3.0310713949348553 10.158148433292276 -0.6954710638326603 0.34889098567701204 0.6208553360992985
Ni 2.7040946779222375 0.711111994629886 1.4139188360830937 0.19033876702999478 -0.0172965822969186 0.6888419885519169
Ni 6.739443784332666 1.0328084857659086 9.951063795133644 -0.5123229010138337 0.3698917562983952 0.8297741801243259
P -0.10331872946214472 4.3891842952047835 10.382311807291481 0.43410274375866525 0.3989948443119386 0.3425002516593198
P 0.26863276186734303 9.465878945491312 10.027926883694574 -0.70872304374656 0.0476080887962664 0.27972702508684083
P 2.6946521742549048 1.6203225422257945 12.928232537773406 0.5099646851943024 0.6273568846632421 -0.4799064323563413
P 0.3647014594040907 0.30606462033880166 1.9398385726323744 0.029194105065452947 -0.9284713742869235 -1.3949831305039135
P 4.404308931705198 4.648381944797098 10.477281035223127 0.7468010815652042 0.40194287119666905 0.2605054578530675
P 7.632268539116428 6.686512176201406 8.063301276973434 0.989033966361329 0.9690366973037956 0.46074142939211615
P 7.13031908780641 2.6219670701933544 3.6615174296638155 -0.12190294285509973 -1.2410974640946304 -0.6363899413997879
P 6.800681469564641 2.9366094013000144 8.108507032299778 -0.5755393857713185 0.39946047109444754 -0.17336202996634015
