# total energy = -340865.8220776822 ev
CRYSTAL
PRIMVEC
9.27662201364988 0.00000000000000 0.00000000000000
0.00000000000000 9.27662201364988 0.00000000000000
0.00000000000000 0.00000000000000 13.57727401229869
PRIMCOORD
 96 1
Ni 2.416680623483073 6.548692141806832 1.6012896701159052 -0.6326659555809814 1.187536757259355 1.687052222095875
Ni 7.3023249119632725 3.8891310014818594 4.858980493905351 -0.14995007880030303 0.5780873490041528 -1.5435255303234126
Ni 5.301487422254237 4.304890645658021 12.450210955032707 -0.8605644260323051 -0.5177690117300696 0.3689142228764743
Ni 0.920075777156698 4.089969867482437 12.864683931739387 -1.4737619884760296 0.7832955769468122 -0.6848228400901948
Ni 7.361147971977576 8.377745145575973 2.585465977534838 -0.23642553408572833 0.04941146055359232 -1.2592725923417603
Ni 0.5458753994785774 7.786072918676074 0.9848618497837112 -0.3210917040765567 -0.15751786384523195 0.4640689511034523
Ni 5.131038769880352 6.082875845393298 4.771420314302292 0.843920903938353 -0.4788504802880011 1.4012692206229416
Ni 6.516984647858103 0.888008350274906 12.835846624633179 -0.22726289374985378 0.9336282358975148 1.2139260458861612
Ni 9.269970648205794 0.5159907617501311 2.847601978633431 0.2967976074158824 0.5769987439256643 -0.538410599239821
Ni 2.604578601812944 2.6771403389887647 13.144064245448073 1.1158957958836007 -2.9855624197820196 0.5542524513680842
Ni 3.6344506214735515 7.426195645344599 3.7594790772787516 -1.2900522967267782 1.581681986788476 -0.7865266822896003
Ni 5.44844766775914 6.046771232623125 0.5387843496323492 -1.300055173575761 -1.5528825460582807 0.5861940372716873
Ni 1.3750922302539332 5.8574446545073835 7.60388470117869 0.5596656519638554 0.16085721263111005 0.810745702737965
Ni 7.287222571369788 2.4379519176973603 6.647310982479605 -0.48772798528328903 -0.1674901445665954 1.8982524059559116
Ni 2.4665517432807222 7.0410024706128675 5.822423551185195 -0.5510123471642316 0.12094032183151429 -0.29769209420569376
Ni 6.4020287482054865 1.5173028453019175 8.994943853195219 1.0470496236441644 -0.31264820129489385 1.102020066342773
Ni 0.7402753621585548 -0.23271333914505754 4.957008413757606 1.2362113396469225 0.27108040515543635 0.3620522056493184
Ni 8.41045451469921 1.7751651066514815 11.795026335704495 2.1377488656574797 0.4685259584335415 0.8590837277217204
Ni 1.2310448440526873 0.7524203156628484 9.661954310231401 0.27290820239279445 -1.661074824195507 -0.04694731528381592
Ni 1.7329564766144085 2.09126600083022 4.17061247007041 0.2941025770822225 0.23488929994685998 -0.6487538622817794
Ni 3.2148411791731295 3.894483612367879 8.352331839644862 0.4597548971091308 0.320792427668583 0.07164250403765082
Ni 4.533067716651841 2.963723022007511 6.423272212553815 0.22448250279123919 0.4522367343552147 -1.0448438742420973
Ni 7.65274930749084 4.078624558793351 12.56740994188158 0.18738791193178694 1.2361547753773743 -0.3987325917894875
Ni 3.361708658458171 8.44472235631612 10.227584276229527 -0.7697499770518937 -0.40205060041912694 0.041475750646283414
P 8.624011629442826 1.0185081577275492 8.819484897286603 -1.4092638087926441 -0.6706064393804967 -1.1159251064596394
P 7.971549698667554 -0.3390809421628786 0.48607365584473333 -0.01973475942476601 0.5594345097896558 0.15871754058028792
P 2.63602635034606 0.12526779265244353 3.7415575712636704 -0.3558113669459292 0.3116974073458503 -1.8599442544043323
P 0.7570808905487001 2.7174194316527145 1.5768643244263199 1.3506642539818803 0.4312395632782573 0.5606010192939312
P 4.478678881946927 1.4559287142414175 0.4878074564939485 -0.9713650883266562 -1.176258099021742 -0.3471148676131957
P 3.0556450692684685 1.7769833245607707 7.522026861110528 -1.2767123850847626 1.1558425114798674 -0.7172197683636615
P 7.072394559414066 6.238101561087879 5.4991221430207915 2.151672417717107 0.3873390052405652 -0.4016896175352824
P 5.5092466482564975 7.28220391887527 2.6555656992355297 -0.1654692574818247 -0.11437500990917077 -0.5230500576233508
Ni 8.527108036175296 3.546396925580827 10.140010181693487 -1.1891377831978875 -0.7771591250317712 -1.3280760842687191
Ni 3.1316298799571856 0.3580868852881435 5.800591949002944 -0.6910487663952485 1.925162085862562 -1.6374525567908769
Ni 5.4690695984343956 5.412296671879036 9.818853528532287 1.429746245016712 2.2178078758935995 -1.3164133032188103
Ni 8.93806239016262 3.7757799574328494 3.129982351892442 -1.2568593549145772 -1.3526884835007607 0.5316763658397812
Ni 4.920505833904226 8.59098685517206 12.043558170660368 0.011052144049103546 -2.0350188961864046 0.5876189426436718
Ni 4.770873921267306 0.4322544057297702 2.5184080601834125 -0.6124977081632226 -0.9805536968044596 0.3335183598756837
Ni 3.2522630722653383 4.804854187602646 0.6775292187063003 0.870771962692926 -1.2606861848598354 -1.8906087733677246
Ni 5.031203764065191 0.8399795676037101 7.309271246506516 0.7362659863618353 -0.7472319984550357 -0.9199502241897898
Ni 8.589771617691873 4.705714928436449 7.415947761036477 0.25867097574749004 -2.974426457769858 0.21040057077687635
Ni 7.726034621181582 9.093288105857201 6.945101680182042 0.7092262086352237 1.3110792926004065 0.2867404802901965
Ni 2.942980495246435 2.8697879477755546 1.9679305285374957 0.7454319691318195 -2.034367892865967 -1.0846301530010996
Ni 3.702791495645665 6.535176103572983 8.772466338749702 0.5441672992179403 -0.5683220420872728 -1.500427670692674
Ni 1.7222327015983963 4.528327362816909 2.7378975746871843 0.6143108501125614 0.634624621969249 0.45872465607240354
Ni 6.6150663721178775 6.302982255259151 11.859164900116873 0.7155161554089935 0.6356085831490731 -0.08616743712670322
Ni 0.6455963028433078 0.8702371255360003 0.518280232056318 -0.3946450519836752 0.22142957489752835 -0.9723698754420866
Ni 4.153755920259341 5.187514844532154 2.9923358348616533 -0.7135700874262163 -0.7450375619068782 -2.3496987831993463
Ni 6.807259426427345 1.494454525349981 2.683996690298743 0.5936283820625454 1.1522360250755317 0.39687574108640683
Ni 3.6953980279226872 1.3341081143190348 9.480942368401864 0.2616375145749817 0.741747835412013 -0.4436633908639069
Ni 2.7857324759588695 9.141517263563298 1.1668691731523642 0.3561687502853479 -0.1995633709520563 0.7164116706400694
Ni 1.776491663595504 3.5025463334522016 6.304579689565169 -1.0931636443934076 -0.7024055861689644 1.714560969039105
Ni 4.853389473834287 3.4775736670654327 10.27183190777916 -1.0289009777595959 -3.333738381669878 0.2672672020569332
Ni 8.117981176719246 2.775120020406691 0.7159158804850713 0.6907433193396878 -1.695979349382176 0.6802583606479639
Ni 0.6949534977829231 1.3494702003281318 6.755671203900056 -0.500656520419499 -0.14429313762484183 0.7876553965774048
Ni 8.057404835149557 6.826888758550081 7.385398917173822 -1.0613740106866365 -0.027497434089320386 0.4493195607084198
P 8.780248496933899 5.900293371461503 12.682096819496598 1.288356397081594 1.2132336478048267 -1.4495779350306583
P 1.2062948165935863 6.4967801651722255 3.2948242139378863 -1.341282298546348 1.330776513919018 1.3406382372044459
P 4.096741801532342 5.575351856529943 6.635702217726112 -0.792508610904648 0.05287370807057991 1.6216958081772523
P 3.5394858422011306 7.129538550848873 13.604700476144528 1.2664549690228124 1.115680080328369 -1.875567562763886
P 0.5003002833227235 7.7994034244702 6.732440687122288 0.7359561684309002 0.7784847858217303 -0.5841556666854197
P 2.855817355064383 4.347089999073107 11.933011449437778 1.285697105081876 1.0267227391613543 -1.1210642274584177
P 1.0392692377325976 1.0075431905398964 11.871017640028603 2.6163252663484875 0.7309576867750444 0.03798162145009588
P 5.553171453361012 1.2381414598721074 4.77812823966049 1.685957703480116 -0.935972053539343 1.25617312748083
Ni 7.3895622651212145 5.726032027451301 3.0767595885711896 -0.42571374836402165 0.03093062814058544 0.031159199211623752
Ni 1.5654485134101392 2.733069092943383 10.607870117930576 1.0582452352496678 2.199276906968948 0.859648599086255
Ni 5.792563960336112 8.292928990756423 0.5187904462655573 -0.20140325237427248 0.8114643260715445 1.7934131034513179
Ni 4.430421894374872 8.029955310692479 6.422226737255975 1.9483709198788577 -2.3236164842899982 0.748634278119201
Ni 5.900516010389171 2.9794840027620135 0.9801159299755866 -1.0683465853497278 0.38349340624222983 -1.2534235897601511
Ni 2.479464801085471 8.759969801272131 12.352549461748906 1.3762475017676232 2.529095963616173 1.9554494239921936
Ni 6.2148450697685504 4.688859306287578 6.682503703308538 -1.0752944774224706 0.4107753818866345 1.7723740233928316
Ni 8.958832746789655 5.002130830760535 1.0834417286441427 1.3206805631355965 -0.7096928638589972 1.1539015857034127
Ni 4.093253791665542 6.247582268757744 11.53472246744817 -1.1693842547200441 -0.01198853982044387 0.4816293285847189
Ni 6.134964077845642 7.971085867568245 8.321321020007295 -0.37234381738331357 -0.6003592730284757 0.18079046121992734
Ni 2.450633059952455 8.994621954412299 7.896895155571653 -0.35649296639398603 -1.426221262582589 0.08590544171456817
Ni 4.271402040287947 2.501320522484887 3.795472370585091 0.029113886646820828 1.3507786680725575 0.4065921970432223
Ni 3.1781057561078963 4.5434853631423096 5.001351594513697 0.17720942873688839 0.6250788872623428 -0.9171937444905753
Ni 8.97298887194055 7.988191958510743 9.418690668901473 0.5071485559017459 -0.23286172799386992 -0.4527689527096009
Ni 0.6537662238265276 5.562744927250739 5.1797030011576 -0.5745914200357525 -0.905134499333196 -0.209130188704885
Ni 7.536272041832491 9.203429438698997 10.789303218398285 -1.6336727780334703 -0.522268699372636 -0.9818827000285284
Ni 9.345454521307257 8.44959258285886 12.154308049904458 -1.7785793808725952 -0.6700407966850138 0.6220575839375158
Ni 7.8387919614234765 1.120606659307335 4.831635795276719 0.16181649122058586 -0.6852501574356006 -0.37032035919538153
Ni 1.7065830403077276 6.983997628507853 11.544172562265482 0.06172447359299047 -2.5842373846750077 -0.8563167064995447
Ni 7.629900987538903 6.660892884729556 0.7343503836959882 -0.8493276767762211 1.8962207202378634 -0.2530741983860028
Ni 6.277499374663142 8.277177286623907 4.778644019842922 -0.549599268866789 1.1409763930013124 0.10123667275499985
Ni 4.278109037983948 1.4545743274314367 11.669707521631127 0.2905662817941899 1.105247315030819 1.0641569727484124
Ni 8.51457531987198 7.467940444282363 4.333160223498675 0.8284462053415217 -0.5187383176218744 0.4191818607827749
Ni 0.38106693327228347 5.493745412917607 10.472517709516966 -0.6023338802563433 0.20983929895676767 -0.7149877937093493
P 6.637552903812353 2.6405162353873664 11.419940040626695 -3.5157136072265263 0.3752769318697085 -0.7437604949666675
P 1.7922062612400755 7.33461683309713 9.232220362695273 -0.9679015552580879 -0.3673957293494189 1.3108072698859425
P 5.407834616703688 8.905742639162805 10.05725714760366 0.5387327584659302 1.3485083839811423 -0.7457075913907093
P 5.942140213241114 4.139024644545303 2.6738814616850233 0.9529667883251265 -0.6207990289400663 1.2072864290824563
P 6.475954148813274 3.6444508199746424 8.691274560140146 0.7979737477842773 0.6009459987698812 -0.8927271268077787
P 1.0795668836405194 3.906923562451333 8.624379911335676 -1.0890920454271953 0.19848607872747753 0.42480666316872
P 9.27228052708035 2.907015031806054 5.1633288356898115 -0.9825694416829077 0.17445500592020274 0.8927042439896432
P 7.348244190794813 6.454126257279817 9.68157436573215 0.743089951262204 0.6096874924079371 -0.16393173779137574
