# total energy = -381167.21422867913 ev
CRYSTAL
PRIMVEC
9.29463852132755 0.00000000000000 0.00000000000000
0.00000000000000 9.29463852132755 0.00000000000000
0.00000000000000 0.00000000000000 13.60364299241879
PRIMCOORD
 96 1
Ni 7.354261766833493 2.933973426551035 9.120494009216078 -0.6081774835213138 -0.6771756079575821 0.011042888077722917
Ni 7.137018184599347 0.6856301517049794 5.666515309634737 -1.2494712899806224 0.5730107058121938 1.2998001201421614
Ni 0.4279019131949049 7.907590177288428 2.521612148683024 -0.5235781622126788 0.9784952716135342 -0.8286621780070696
Ni 1.559212762337183 9.0288488750515 4.113986321737487 2.32786214694023 0.34605583022106207 0.9986059263204802
Ni 7.871935944564766 5.1886575036817835 12.747510991022766 -1.1874022885640194 -1.5271566020470861 0.9243331837488339
Ni 4.918192822236037 8.71981144443912 5.901599950188245 3.060199744781936 0.6576192830922094 -2.1563361417413636
Ni 3.5258374076191887 3.3957124706715125 6.729544957041392 -0.9185001220068246 -0.5469479472868709 0.05600428327976161
Ni 5.850984138107104 1.3175800490637009 0.4463025087431417 0.2978278484526097 -0.27820416068441123 0.6189601759591147
Ni 4.001676418121782 8.563689404016968 0.8220391936433936 -0.7286750613884547 1.246283893391576 -0.39094420609332026
Ni 4.387961588089315 9.014460774880428 12.053738736120204 0.2142214871848633 0.608565720098668 -0.7887288321472417
Ni 7.315270758940957 3.0031069466236646 5.995887550036695 -1.0006183287648187 0.5910626782178982 -0.9143999837955219
Ni 7.063915853949813 4.791246651605224 2.2550893233629568 -1.2814527279832255 -0.9600285802679143 1.8341622603442218
Ni 0.9390744913979694 6.711221506991488 4.918342465913526 -1.727037504239561 0.3274950364997392 1.0709125463046911
Ni 6.3414157308245445 7.226190944961919 7.454945936796758 -0.40505956244877983 0.19955308653941117 -0.05603282252485189
Ni 6.063078490693464 6.028995051851526 9.556463668501737 0.43403049575983316 -0.7642588720303353 -0.3702964479359816
Ni 6.671180204965017 1.2253400580445049 11.73372712600396 0.2804132525205881 0.12917427970553239 -0.839957805525547
Ni 3.5476798077496916 7.998417383277907 7.252836814193462 -2.507639336404294 -0.9919102594678596 2.5141599111316313
Ni 3.497972081835679 6.104458220642825 5.523310028132312 -0.7358453538846489 0.5928547371213144 1.9003581394450049
Ni 4.644419249536479 2.710781275770709 2.4654966990881735 -0.4423706401944123 0.30021434640691524 -1.1885160904534886
Ni 8.280760612539305 4.420241867090692 10.676329099975632 1.4401350444502037 0.3388127755054036 -1.703281539470544
Ni 5.667461503819113 4.255856893172362 0.05379364893416957 -0.004328452172024803 0.6602490074055726 0.8923694863580437
Ni 8.367544650845053 7.382024851595116 9.037321867374462 0.1672392048980539 -1.4380473086832395 0.3022424325805375
Ni 1.9149278667603644 6.5428398385811946 9.84828928781128 -0.5496334645388341 0.8078601536600538 -0.3091509867749127
Ni 2.1559564285408754 2.1736813038808194 3.66582767371517 -0.7747739126290463 1.6809000864515504 1.2712325929171138
P 2.4247201911679483 3.236718386998158 11.194056257145517 0.24626128922922746 -0.034172017896018564 1.0673644239421167
Ni 8.295799337395115 4.7997791296136505 4.173761070452073 -0.7793910996860834 0.16408420420883998 1.3340796101503218
P 4.735357991186198 6.728481650413762 0.10103364836535293 -0.42750760703965085 -0.44553926773038105 1.4885203777321268
Ni 0.4032004823068944 3.5672729053986707 12.56847394920413 0.5476344318309342 -0.17268814382776712 -2.714756094223576
P 0.11435193566194764 0.9586211158551813 2.2882823358506386 -1.1930384038038746 -0.2708243232805723 0.7569217149389739
P 8.031311108410609 8.230764752836336 6.412009438582494 0.6790193460345403 -1.0288991779873828 0.72958523190755
P 9.374107511327098 7.4661413286934355 -0.05396931759904893 0.02153761696145968 0.4651760681247021 0.7615841534116498
Ni 7.978406026903025 7.093565750297176 11.492751543662063 1.4050824237214445 -0.290456495689203 0.09344263063187778
Ni 0.8842798099131381 2.293730852853405 0.71663706525194 2.6428996744029063 -1.1408069573029835 0.9572926693939898
Ni 0.9856406295485309 1.2124391000099781 9.047959580969936 -0.27723099813786445 -2.890247254717777 -0.5113690217409967
Ni 8.467926745061831 3.524433917227825 0.9505264153132004 -3.6405116122412333 0.10108112101374203 0.13188447954784382
Ni 2.8922776788976576 7.071453805654424 12.35575313799275 0.25225298803628815 0.4187216333169047 0.08437357845107404
Ni 9.376338224531917 1.9190360969125697 11.092192597575206 -0.5437950034801861 -1.1592715917660745 -0.2606327274595512
Ni 6.380109310289771 8.257059284738121 10.486218426022747 -0.5420399684622923 0.7706370076425374 0.4750462760505626
Ni 2.349071129609581 4.165819731442923 2.2069598270413526 0.30025959782255385 -0.4279122986772373 0.18193871589175764
Ni 3.4406985203019946 0.6425885404180294 2.967403452316728 2.2769635603181495 -1.9307298097583265 -0.7815269150821637
Ni 8.875608172518902 2.2460028849086675 7.436254419068059 -0.39575422588745396 0.10594102020920465 1.1315268175526385
Ni 0.8567686098508933 6.990692693001685 7.309468116216926 -0.9702947380806127 0.944794022706347 -0.17801958334300955
Ni 1.5909353630373562 9.333954673640386 0.9274785005882608 -0.13007905090798888 -1.7661457830949325 -0.4125072769760767
Ni 8.66437822129941 0.6424342494213627 13.25868171029816 0.011351677567393354 -0.5012157353570788 -0.18443988504705655
Ni 5.636621893762514 6.349911030279557 11.920355098965823 0.12858446864033338 -0.3885481950573179 -0.9651453326691893
Ni 6.988861649246064 2.1340489659418984 2.568571450035934 0.985822915623199 1.306445650483137 -0.3025854177422531
Ni 5.048066803948172 1.7993490388357674 9.784025228772 1.3841562150917386 0.2761012554087955 1.0231293653831413
Ni 2.419329300922973 1.2455094232713948 12.43372957699481 -0.3408537171948323 1.043285271505726 0.0013629417857976528
Ni 3.5599859089296007 3.662849671586739 9.213882817535753 -0.2827550132798872 -0.09510767703912652 0.24198708733390584
Ni 6.129479387090193 0.4077539256362278 3.577799083333902 -0.8848250983518826 -1.7936912968133687 -0.08193745820575567
Ni 1.958473247446069 5.135324868809942 7.640581242382479 0.5544895070795547 -1.6293942052627743 0.30571367895858964
Ni 3.7004743676413243 4.215815591145891 4.196233647062937 -0.017068782556828668 -0.4872189068573544 0.23816771358781563
Ni 8.674593028849802 -0.052538872756459826 4.2784949143459166 -0.5441793834027983 -0.596814750210327 -1.233814557279972
Ni 4.0797049070986215 5.866915148244841 8.030502474873863 1.1229133648520144 -0.6806440261221569 0.21188486863188669
Ni 5.546844981906969 6.379235614284552 4.484685312650193 -0.7665965190245765 -0.6543259570529183 -1.060678784391825
Ni 9.259216486640653 3.0454626136001335 3.197386265878052 1.0343193205616896 -0.31237489302884913 -2.0159557089073665
P 3.9793506967969026 7.99122333319237 4.079433503658702 -0.44533229392589757 0.34016671843013674 0.08564396052306542
Ni 5.375275252541457 8.933643894397566 8.669179831472778 -1.1882597514683084 1.3417826352215343 -1.5682667418238345
P 1.6047843741839303 2.3229067226447446 6.927505882547563 0.791010686202883 -0.6730574720241504 0.05620945731203223
Ni 5.37415989593905 7.584545726677467 2.3685433969599656 0.5284748281833479 0.8301397909938606 0.19532773560415392
P 2.4411159332233554 9.002721646640076 9.728441432490964 0.8463601095074649 -1.0058996317684161 0.05921404846631092
P 7.114738936466234 3.0602596778587547 12.798796946529187 0.5049039828419434 -0.8668762271829459 -0.6388600002068353
P 1.3474901952849596 4.672358932426815 4.333535903747113 0.3734594190449955 -0.8062447295438179 -0.3168398707787382
Ni 7.404657295985658 6.263889152318789 5.656680652792998 1.676766523899151 0.37033527159371704 0.45788082001486946
Ni 2.1704932429256014 6.764098704584012 1.234683028517348 0.25116901094349003 0.49668493736626074 -1.8209822713188382
Ni 6.577230000488795 8.38571566882596 12.914482662794848 -0.2601753282071584 0.33040166862357295 1.1197318818002393
Ni 3.3556154008149206 1.2759772477938578 8.439115225093945 -0.7660324189909904 -0.5919453379331677 -0.7036140046547689
Ni 4.476846214662931 2.397672793559538 12.488048372995948 -0.4331576062365766 0.5743420230291076 -0.5923330602898895
Ni 1.1965824469790682 3.3294602884884377 9.351525257983663 -0.6273705115099969 2.3293032502621305 0.062123508803622045
Ni 3.41775935284579 4.889695461044496 13.418469556086897 -0.8937679093674673 -0.13300085254047417 0.14151711754160146
Ni 4.500649783486002 5.501951878660021 2.0104274874501 -0.08935920459112352 -1.0396209352802612 -0.11514196998218235
Ni 4.909669638865964 2.1325990023587673 4.79456297856972 0.13915015997132163 -0.31586388001871407 0.5900848876856611
Ni 5.494618408999185 4.40369741082163 6.149037165113429 -1.412043685530626 1.8086787713611368 0.3280390819286673
Ni 5.638220571559299 1.627770014831902 7.290559103950758 -0.43327407720978284 0.708740784358373 0.42034425652199214
Ni 1.260027648379414 8.758960461183664 11.582427143959555 -1.1269183722463494 -0.6636878578837925 -0.2903788483737322
Ni 7.6684856056470725 0.24290793765556953 8.718084500633056 0.3330285647234587 1.6267570247502434 -0.46094788897596745
Ni -0.18999077311812612 1.9923614988825853 5.1424083126990725 1.9126690956018737 -0.0944600161527986 0.39534002116817074
Ni 4.195609047365588 7.493792877794816 9.939814521141098 -1.3832154484450243 -0.15235354603547313 0.6521952838631607
Ni 7.028456808631571 6.368862797882151 0.7945075453767713 -0.40071259833399375 2.5186274599846814 -0.19080002293712947
Ni 7.327706985057813 4.838296110950163 7.503741858688302 0.536740667736566 0.6739367893053103 2.382668810367464
Ni 2.57740321539934 6.411227759496973 3.386164088691059 0.8924710449329146 0.20683882156754702 -0.11587267750061978
Ni 7.461633429092033 7.462460651905486 3.5376137144129536 0.34736992104679526 -1.384826501685886 -0.2002791660721583
Ni -0.02965733205804621 4.562514896366269 6.351228080534235 1.3215328838335627 -0.0949212720599333 -0.39389891784627
Ni 0.29452478228737156 5.7572384156746566 2.565551622034913 -0.44443780713608616 -1.2594908790001533 0.4213901812880033
Ni 5.983135306215823 3.986052131049708 10.924732027825735 -0.775359095708555 -0.5077231974582933 0.6532952017955588
Ni 3.560766658551287 5.246079779429122 10.995783961254508 0.16232994052189462 -0.8404542855459911 -0.006494092364775913
Ni 0.6034952915036059 5.9157212942385735 12.154215635648189 2.25830095091164 0.7650762257253081 -0.8811214242480503
Ni 7.562805567568852 8.798165245758328 1.5913266673120345 0.041379591388051314 0.7739390754325768 -0.03121499215022366
P 8.373669817519946 9.134501029214658 10.833342496215876 0.23469492454786675 1.187337239654039 -0.18998883988974377
Ni 3.1120401081255764 0.7283808408114679 6.120823290391666 -1.28517285714729 1.5310363967174663 -0.9138464252848971
P 3.0486227906402914 1.59916111798012 0.9294703415873955 1.897973698373228 0.9961137560262457 0.16115906014224501
Ni 0.5637737250364923 0.014457809958722227 6.820321971983762 0.2971169384285141 0.4181292511485443 -0.46309218901247984
P 0.2049244685605427 5.406300755365126 8.976812842229958 -0.5855908564700495 0.1545760076080886 -0.23515438068278854
P 5.467022627727924 3.947154069540706 8.353303405959965 0.8056024679741287 -0.29829758900017656 0.4327367166490741
P 6.213735283763814 3.90385034945219 4.268047740836689 0.012047160972521188 -0.38658284380083097 -2.327484451885837
Ni 0.9003428039154935 4.843408162044536 0.6470778507427242 0.9506342835372079 1.3786473694583674 -0.8186047937710675
