# total energy = -381160.90883470146 ev
CRYSTAL
PRIMVEC
9.28615216501247 0.00000000000000 0.00000000000000

0.00000000000000 9.28615216501247 0.00000000000000

0.00000000000000 0.00000000000000 13.59122235214594

PRIMCOORD
 96 1
Ni 6.852530099988458 7.736506761471527 13.254227738129142 0.1470601588470177 1.2545245361338135 0.9171384657726076
Ni 8.589736973886174 0.41001703823242097 1.397571438437688 -2.2268699860958683 0.6484658987277154 -1.2023008029424067
Ni 0.9065373676176918 8.951971188703771 5.346107317142691 -2.5745679799060435 -0.44161062209993623 -0.6269275104353074
Ni 7.853995155797621 6.612223060123565 1.6017664906440845 0.5596204005482168 1.000423182034877 -0.14140630299535
Ni 4.446385985047868 4.793548775269256 3.9623573872502886 -1.543760272042038 0.02658443535674776 0.64280458667688
Ni 2.6066042768373157 7.972421451469504 12.300531576506893 0.2568660613282673 -1.7975016716983945 -0.9993196645580532
Ni 5.589641294806219 6.740817692168122 5.166241054400009 -1.832976981786869 -0.11107191367786677 -0.4362848390116486
Ni 2.9336811204156947 9.26785821919624 6.03183856396637 3.5524109626475595 -0.010128346683253525 0.9418331403058102
Ni 2.981969110495974 7.401573833353164 1.3659177323248715 -1.5445071775103916 -0.974154478146335 -0.9858108314383409
Ni 0.6542168329899406 0.4210201996643675 9.424941836772968 2.9220245471293738 -1.9775071751231814 0.1700818165531716
Ni 6.479431087402799 0.18270782523586643 3.390234780472791 -0.3456015162924629 -0.6111738471454764 -1.7763011263613797
Ni 1.3708031768597242 4.124286518908534 10.667981492186632 -2.188815602426308 0.8281140188130836 -1.5588274507878057
Ni 5.26224872206193 8.421453328456403 11.170802475662185 0.931729476212905 0.24791630833414724 1.3769152172586092
Ni 2.6118602388345153 0.6404761139665198 13.381101646219491 0.7028223619914089 0.6661982830104719 -0.0653517859329326
Ni 1.3003770005580255 6.825368105568302 10.0753086311692 -1.5854656222006245 -0.2962018828134125 -0.08264528290605766
Ni 8.20997050420866 3.3706409998825237 3.3459546935691753 0.7505011561246107 0.31242425820954584 -0.9403023054835805
Ni 8.187776601075608 7.318982798012011 8.46623022448873 2.388704989259215 1.7025459468561002 -0.5095695066384127
Ni 6.639635780646061 4.326529621977454 5.008093243811127 -0.01139770031398037 1.3291474629560271 0.2530101779172868
Ni 6.23245659044605 8.21722298887264 9.13116699127649 1.6610120892783717 -0.27878394444728116 2.1815887456605654
Ni 2.8971865432973307 5.541093292471662 11.3864129944466 -0.17192555463012973 -1.1809025397722888 1.476915960723979
Ni 6.170332233977384 0.5941549308668187 0.854066894704306 -0.4232205496285227 -0.009254428718732449 0.2979983125922029
Ni 6.241454871674471 8.472462161054667 6.931333313953892 -0.8030833010967008 -0.2836029631024793 -1.1946126902695295
Ni 7.819255661395636 4.382042238265897 1.1517762827771314 2.4852707389011073 -1.7777021204739645 -2.253690705833138
Ni 0.7373139636117432 4.868302298374303 8.322924470543176 -0.6732415630104986 -0.18115735764104285 0.4535197148326963
P 3.39761727126391 7.003652936635853 7.889867560736105 -2.230235560133991 -1.1016950789031865 0.6017060168643572
Ni 9.203013020209589 2.0722048050796475 10.948993450458813 -0.2811493593556642 0.5855003536387723 -0.3642556410585404
P 4.385357394507947 3.281623947399918 10.125922802310077 -0.8713100945845833 -0.9720505444294549 3.393933048881903
Ni 2.2696748260521717 1.4368834340541978 4.392261648474233 3.1538210670835234 -0.4692736352328434 -2.736917975032596
P 7.32149005903541 2.2339231410888885 1.685569368813214 -0.2985634410670535 0.4965826074604416 0.3826182027261281
P 3.3963450684483334 1.6657592208827798 1.4690070194551033 0.2276202770892725 0.3589853937985366 1.1486207969204476
P 0.37061403832691364 7.803199904693943 1.1489653645853428 0.7254812370415054 -2.201578301408615 -1.565390448717304
Ni 4.645388221090248 4.17408815175479 12.317602309615465 0.478904216344072 -1.3089411632114811 -0.6478987133703358
Ni 9.223479699082077 4.274072149676782 5.847365441246992 0.6000849363211666 -0.39069840863110133 -0.19685497088195772
Ni 5.088244807038033 5.679391953291967 9.648612735440011 1.3938261340813352 0.6314446815793705 1.2748390793214495
Ni 1.4322867888446327 0.17548784210367094 1.9026619574470143 3.591146945765177 -1.2977231830084748 -0.018340707290716803
Ni 7.565028679774907 3.5080017593570396 7.231019723774427 -1.6529851052088371 0.8118505057663696 0.8156341411785178
Ni 6.637611399523466 1.5580212860921276 11.056037709699659 -0.01946736469599228 0.3630688198392909 -2.1558787424889707
Ni 5.543034098226811 7.42893083696403 1.8942357031780057 0.008086633662876395 -0.3666287692764073 -0.9087026763004286
Ni 6.418161056912476 4.894433529929285 2.653155756505092 -1.0906439632953475 1.1013063281052 1.2768951905195298
Ni 1.4144945217304377 4.0544546563309 3.9180912295745807 0.27473471407857203 -0.6460462335426292 -0.13838577100147134
Ni 3.5605706654809732 7.237598962422865 10.297906050672152 0.4652375174902568 2.1161042908045107 -2.6262533240954773
Ni 4.366227921514606 8.733486605894388 8.322979258839613 -1.8083923504689694 1.4802936189469604 -0.5279426098289617
Ni 6.50869175216106 1.3076016267661903 6.951284611393792 -0.010035272748814975 1.974633453119812 0.3927694322275171
Ni 5.4976805321591025 2.1694029574200857 4.409155944695974 -0.6814312979101426 -0.08385395850217817 0.37432999457540694
Ni 6.584689619625867 4.075255636673174 10.45739849606173 -0.8627989717897785 -1.4843312793514436 -1.0402415995833956
Ni 0.48896418755290105 3.8849916696049376 12.957191596071858 0.15946007517326732 2.5818827683999017 0.29212077076550336
Ni 6.487649331868384 2.826983234642156 13.31328116415174 -0.2604167547940031 -0.045898048083695145 0.5389644148607621
Ni 3.190656803010224 4.958052956860052 8.816150073220662 -3.877233594521458 0.43229011602995876 1.386654041812928
Ni 5.018700815170494 3.0951673026264728 2.178224801761675 -0.33376107201410904 -0.935610556434866 -0.9194239193726745
Ni 0.8235414560520191 5.426799334412418 1.9436398887212938 -0.6175584105155817 -0.10448166205485877 1.7611447303359153
Ni 8.802343422518478 0.11870952330600797 7.320911531769641 -3.7206176736652052 -0.776864733719804 0.08508346003390507
Ni 7.60859930467042 7.207762556244416 5.811157806223528 2.782544771732775 -0.8747378893192096 0.06651032501740804
Ni 7.9342089362425146 0.8659596694919622 12.608930254076144 -0.567838417582635 -0.642130700538307 1.4621210618029916
Ni 5.003517956751022 3.7566013329030277 8.328361512503177 3.4391065600947486 -1.1927674095306748 -0.9852467314047547
Ni 7.381980052762898 5.379653541020576 8.587885315189634 -0.5128360932048265 -2.0043970575354897 0.9384205150798356
Ni 2.4680177453069163 8.14436384076305 3.8331461547170136 -0.13268872061669407 -0.41810482566851215 -0.39179755523255105
P 0.7570043201821706 2.216353741621218 5.367989205570607 -2.087960995601075 1.9901660015377725 0.376949434476125
Ni 3.3467663032486015 6.976416653000189 5.703093927499833 -0.6133916807324016 -0.7400982156237318 -0.2254844616931923
P 2.247722362869522 6.01789076375472 3.8100412800787944 0.6885717656096658 -0.5510640263377735 -0.7904679263255354
Ni 4.069052487178245 1.5877741169031299 7.439426974500134 0.08893163013540169 0.39727066253198035 0.15243942088106005
P 2.0489894252333603 0.7393624887293795 11.06056378015449 -0.1718489357559234 -1.5085672690806728 0.42614157993005963
P 5.202817349655433 3.337703018956611 6.275556407438281 1.3546299234978476 -2.4860294714440023 -1.389517479403652
P 9.296923874763793 6.195256265780359 6.751602629029513 0.05876179142024073 0.9208706791215302 0.45989682200363374
Ni 2.662163323885452 3.1990514843626414 0.2348477111402411 0.4020665412587269 0.7822447670847947 -0.10996222555345578
Ni 3.237830454857881 5.071316152054121 1.5629364463131834 1.1433474643366501 -0.18852022576401728 1.0875036178941528
Ni 4.765616030238203 1.5049880723712676 12.403199272339116 -0.36230134554564697 -0.20584020509970355 1.327451563310843
Ni 1.0800816181206314 2.3685630580454196 1.9203446479683348 0.9452534788412688 2.941662890185592 -1.6974780454148894
Ni 5.346037671003152 6.277252987397447 7.501035949536212 2.3291055324290273 1.6561429341115284 -0.10857511539794204
Ni 2.9551599898494803 3.110080862639728 5.990983209897679 -1.5914940877828914 -1.4754121224849428 -0.7725697058888759
Ni 2.313394029378701 2.2942274117776056 9.133287948379248 0.049218884926812013 0.23018623804423585 0.0030526707833947423
Ni 4.599106039828689 8.515011309236943 13.367374856423979 -0.12112132749406883 -0.5471191827574127 1.1063798859733656
Ni 4.373368972355324 0.9331468359975068 10.226783412975065 -1.5333524464451527 1.423936066092838 -1.5328634226238762
Ni 0.5127283789787551 8.792704396806299 12.502904685702953 -0.2748596696922105 -0.5975328593232742 0.4728649521285276
Ni 6.346518394706831 6.388658952203813 11.402423249003792 -0.4196318038359999 -1.7444826962992022 0.5126376040407752
Ni 7.740648385236105 4.405954079507574 12.284018012514633 -0.7623284877768419 -0.5064471589593471 0.06418270532549591
Ni 7.810015940216814 2.371766780464207 5.299394258431184 0.7938630680500134 -1.1630511134131647 0.0067224063254981
Ni 8.793930168862182 6.285554807230479 12.695764132238006 0.5449795107065905 1.4195037413530973 0.31569444432038535
Ni 4.006621687695609 9.030411314128408 2.353850078914036 1.0578845094761393 3.2380126114307783 0.649990562902358
Ni 8.834139206755953 2.2067147159090394 8.570366060942431 -0.3399810847818919 0.993988739263443 -0.08714291366609508
Ni 0.17011673182243378 1.2212404137379997 3.4458096139792223 -2.684405249845861 0.13690481558057066 2.8218823929901338
Ni 9.087465431638647 8.225506236401795 3.28093491492608 -0.6558346803879609 -1.3775662205790469 0.3895450117529485
Ni 2.742358532026468 2.648094803698601 11.530494142079018 1.1392524683316703 0.08464997204091226 0.6644663879210299
Ni 1.3680266174301083 8.091042756332097 7.4963334421945484 0.9091824441503246 -2.145367815655318 0.6971188838487284
Ni 7.850150688895076 7.986954279253281 11.228632915474481 1.2946532858338995 1.524536905036052 -2.0439002578364347
Ni 1.618947728960725 5.797409658278555 13.555980316755996 1.6017188508346931 1.0929872667165432 -1.655950358484748
Ni 7.86331845234389 0.13106474846020233 5.09859700921909 0.12543615281933881 -0.45797286550804356 1.1190384552776407
Ni 0.6931991702126332 1.874771928714878 13.056557136274746 0.2379923643522159 -2.82301162149857 1.1812912905702753
Ni 1.2729178492758364 1.2587471814176623 7.113591689435935 2.622233918523439 1.7246960005905783 1.0609358947079537
P 4.311755354243276 6.25434405056513 12.836052815418734 -2.1847661149472826 2.109663163164857 -0.4355487321765725
Ni 5.914656612654247 5.607777149542139 0.21365578380135578 1.6296605715502837 -1.1999636701687981 1.4311590662038385
P 8.7504152608783 5.254141911419606 10.493768638744118 0.15350051515572274 0.4526095443136012 -0.540507848088482
Ni 8.66211324209496 5.761825124050166 4.096910942993791 -0.11911355303542068 0.3539699428618162 -0.6945439240327006
P 6.783283264982952 6.93757267944138 3.4848569542654846 1.7289177519814096 0.2579358973536784 0.8678172509399764
P 4.705896787121612 9.248385158581174 4.5793042494349985 -0.8981678382073758 -0.10656528405676487 0.28413235324338804
P 7.933196745681216 0.3176439704392357 9.556274026409 -2.2907122773628097 0.03927334367832591 0.2959835961550193
Ni 3.9294909096943016 4.850491458956231 6.727424275227201 -1.690570776772095 2.351679561074801 -2.59805500728439
