# total energy = -381174.87038976536 ev
CRYSTAL
PRIMVEC
9.17385554641691 0.00000000000000 0.00000000000000
0.00000000000000 9.17385554641691 0.00000000000000
0.00000000000000 0.00000000000000 13.42686489971223
PRIMCOORD
 96 1
Ni 9.162204446971634 7.956447956946032 6.331102262737753 -0.4640671513312395 -1.4421379338128453 -1.450269304670728
Ni 6.123621765631493 1.3793441789361158 1.9979977854250042 -0.41601606146028347 -0.07181836749388276 -1.2542581698463044
Ni 3.1832635523795503 3.5744826092228466 2.3235054345472816 -0.6814919759447489 -0.663601211707257 -0.9221611157981796
Ni 2.3974953292397014 7.994574499336482 0.9857399197296057 -0.4073522151376984 -1.3200249318294683 1.9190672858187334
Ni 3.3073124229771595 7.282307204404594 9.898674206805948 -1.9078192237087401 -0.772777451024308 0.8106865673652555
Ni 6.413616503722089 8.90216234624986 8.218530323073878 0.2673816161476105 0.11237289187747743 -0.7564375762137037
Ni 4.833465807369091 8.214003942896918 3.83126156963464 0.47674423257827575 1.1089581882235031 -0.19859200817772252
Ni 9.172121384489458 3.2802220284441956 7.7714553311972585 -1.174912640737441 1.1662984167058688 -0.20254687906041247
Ni 4.964899631437421 8.558344599447818 11.020515608151587 1.3280367463903515 -0.44161627852689106 0.0008019270760050704
Ni 0.8320705053229768 4.30127211700461 2.113159942448593 1.2286936911136388 -0.9798666980397639 1.3438883687106276
Ni 7.851306402004514 6.663071975493291 7.670593379726662 -0.6132458991831568 -2.065732523220178 -0.1956110711725276
Ni 7.28528870735861 2.9519723139897462 9.854889230501536 1.0990620121557135 -0.1309174876488842 -0.9779481408608125
Ni 0.0413071180032433 3.191198937164858 5.276368529881136 -0.8778214133405399 -0.4628227374011771 0.8227635531344475
Ni 6.343757596045651 2.0165234687029816 4.215296580437041 0.9805133304848275 0.5085114976875436 -0.7890702746470605
Ni 4.336637328966878 9.222843630128725 0.827505594953995 0.1760776291252903 0.7209951762456939 0.671019101437883
Ni 4.737011893342819 2.274528973560781 7.711262914790507 1.121584875848578 -0.30967934847455697 -0.16233379717663657
Ni 9.199633776363607 5.589795129033735 5.15697630820494 -0.6344346174456299 0.6851740527820264 0.29242467515916737
Ni 7.953824234346496 5.551705282064257 9.748440401187873 -0.4491511534513555 0.8431747698009479 -0.9205937713110597
Ni 8.674788344048872 8.383683569473858 8.599530622561852 1.0803225267646812 1.8553584348058627 0.9733931745002784
Ni 2.6673259335058956 0.12701844753981073 3.736951585578686 -0.3663266646549562 -0.4946321686022901 -0.24010478270952845
Ni 3.7515013199942913 1.1876472997756629 12.3013445077883 -0.3023941276670534 0.01986254325188192 -1.2343483182962547
Ni 5.209814044863274 1.6618805727140462 10.064683373900113 -0.8598483738018868 0.3335682392770126 -0.11486223395823443
Ni 3.034555358888406 3.8943565938403175 11.011908697162482 0.6702287443261038 0.9248445761676136 -0.7031910581847374
Ni 6.072404131809097 6.170683643028752 3.4666549494661405 -0.10429114331060749 -0.6926575056432651 0.1665789456062357
P 8.093248486331593 8.810735704896821 12.062439886932221 1.117745704608146 0.14648705995236708 0.9373288246775535
Ni 6.831806694980189 2.8718478622962453 6.383909725673783 -0.4695795965090364 0.9846944584457107 -0.0969007643838073
P 1.5039801762692857 6.471219140793704 2.471429263415138 -0.1896427694042347 0.4357832167848817 -0.7945639507717799
Ni 2.516214189941052 6.295438900480083 6.604580391848616 -0.7897886408703237 0.021998358647962114 0.15185372358091911
P 4.663052272372701 3.9124841318007437 9.036307044542534 0.3074512304749867 0.14835856594346708 0.9603311991099976
P 3.0636364800091296 0.4146775220855051 10.298471735687096 0.1612477632013094 0.5142540565982756 -0.43806815616431655
P 5.824810952652249 8.059974913364758 6.066875049254062 0.05296241112964427 0.08457001073259629 -0.693710886608444
Ni 2.7049295661474875 8.243864841713307 12.283204126430535 0.08234035007112915 -0.8220698695015325 -1.9748625384114826
Ni 0.9086942138556993 4.244962993522276 12.369297088345215 0.06958382173640919 -0.7012565601661859 -0.7002090927382779
Ni 4.130739321890059 1.5858201388932518 3.1136092216750337 0.756610097235826 1.1483616297217902 0.8735312706056182
Ni 2.092088514340647 5.4078408841414864 0.46080458363348914 1.2867088341758421 1.372707864045481 0.7509863232911453
Ni 1.0871477155871692 8.705750105494436 10.397294339137146 -0.0018252261341968564 1.008944846352643 0.13390690929451132
Ni 7.519341276176597 0.49478454345404416 10.217669336091127 -0.3957112884646604 0.29585889765169693 0.20670795241663756
Ni 8.239699911432925 2.8195385396999155 2.6287113420165116 -0.5898120936402487 -0.4218576078427251 0.06571662547151907
Ni 8.481522735641844 2.004579109176426 11.984630916302088 0.03769571477856088 0.33372893322459296 -0.6986713159375127
Ni 0.5498992309837231 0.640271796369325 4.315635622158779 -1.556580563735158 -1.1725762792947807 1.6989260907153256
Ni 1.612341754401142 1.941692331484767 11.29167091711489 0.4001680386844334 0.006940950094207401 -0.40912807609119867
Ni 6.639953860280602 5.898880659885284 5.910170006147482 -0.7861718700533428 0.33575264852284115 -1.0995896025244096
Ni 4.500519079030159 4.723673107819306 6.742998271913541 -0.3552940609898784 -0.6581209053189763 1.0016439418158556
Ni 4.161490084665032 8.781122500171996 8.46554371457936 -1.1817443189472938 2.1563631383245574 -0.43724283204954373
Ni 6.14289603549731 1.2690927866241746 12.304861763888516 0.0633866917867618 1.3365602104803305 -0.3940292727765472
Ni 5.031162387858552 0.9174497412997429 5.64112284911905 -0.5297097290317135 -0.12071792140806309 0.6414017927920824
Ni 2.77099049775327 1.5535648638584054 6.81710100502545 0.6592033397498777 1.305875894022596 -0.32428295732034473
Ni 1.9531504766834369 3.955023298563139 6.677448324044801 1.728314828290088 -1.272764456180608 -1.0487380670901811
Ni 7.115471472953024 3.203069905849469 0.21972300692821645 -0.4213724406761904 0.2867798181685641 0.7196237498194638
Ni 8.69702576915822 5.0836460137045005 0.6477842664279244 -1.6702500629368717 -1.4622411323206235 -2.051494011023293
Ni 4.844575346068523 5.676754102883368 10.484729436073899 -0.42025503924229557 -0.714677461557782 -0.5002610847532933
Ni 0.9476317250496419 6.438303348181353 9.760068262708542 1.0217317137046662 -0.4566806290591813 -1.3816167364993366
Ni 1.4368642513105434 2.52171850308693 3.7324802485331845 0.9040273823119463 0.16486890489366443 -2.710029121061552
Ni 2.574880994220871 2.730882402630303 8.935685448079306 -0.06454291687839207 -0.42990130408280797 0.2627502880231862
Ni 0.45586813212716065 2.493279551833226 0.6969845694823572 0.014550901230981392 1.3838703084202038 -0.27237804092093737
Ni 3.3424024192821333 8.474376302407446 6.051582232563764 -0.06394384984181246 -0.4596811064484018 0.014284277833156044
P 7.575577008816987 1.611571150560719 7.90538903081934 0.8310643596906591 -0.004249262194657198 1.2279439574318076
Ni 0.5725870923855089 8.85688937062501 2.121552185225009 -0.46728900070264684 0.5839507497634653 0.9381834593683649
P 8.214003942896918 4.512812045055954 11.453343602835627 -1.0460787750904628 -1.581663731956031 2.0333785323695044
Ni 5.0200711968696075 4.0258362871848625 4.6843246079104714 -0.8316423436813161 0.004080597827276843 -0.3078929459980956
P 4.971394720949557 7.3922558594935115 1.729286391498471 -0.482787096338246 0.667547855059831 1.0017398439637717
P 4.686298821558793 2.3244989630701127 0.44658786016320995 1.8875213926916525 0.6371196204769608 1.3865206015588574
P 6.452220086585182 7.073005697032573 9.690544200748475 -0.6976243627302373 1.0366340847377953 -0.17088837161486697
Ni 0.6734279439890469 4.165801796629304 9.989277953343677 0.7741033689245829 -1.848326981880378 -0.8563002514393123
Ni 6.689896328224204 6.0825779372737285 11.829537719561724 0.8823480975662998 0.9671837032554569 1.1414417626735052
Ni 0.48117879874295744 1.5140805908919721 9.096633399235834 -0.4888703264178484 -0.8122500551976334 0.42108422001181034
Ni 7.8203079451379764 7.860067433761704 4.219607375015787 0.492332573934836 -0.7623655116623644 2.659512343258923
Ni 2.9054058247756167 3.1576134531197573 13.196526550256392 -1.1816653860802424 0.5847097394166769 0.7313664921776888
Ni 5.555604170542588 3.80474637582542 2.4158283615575726 1.3063590043066018 -0.45076709178822366 -0.3986809126159456
Ni 4.659015776065724 6.810404090697966 13.07477206085509 -1.5827744485217061 1.2791253654016295 -1.4313714393249606
Ni 7.32010348800629 4.2020935679711275 4.403608307012778 0.25757928534520796 0.2708955428381399 -0.7961881166387643
Ni 5.9999857185198255 3.745923616006468 11.578871298898429 -0.553426355922363 -0.20185473808939428 0.3465348267400096
Ni 0.2341268770454555 7.048410591125741 11.750171028311305 -0.5729927080900648 -0.55740333829224 1.9757269432943068
Ni 5.224051868200612 6.79514796942864 7.780236545435982 -0.5196181491236664 -0.6427482795176479 0.2743595901273404
Ni 1.6970072644399927 7.354285272642194 4.469829781085315 -0.25783459588912366 -0.057656988391836195 -0.038361116276701676
Ni 8.918207419070095 7.209631923168514 0.6938856411812278 -0.10567311125979864 1.7069710725069893 -0.02371842666286238
Ni 8.373629024127387 5.791326381014824 2.914972321023153 0.098579694748127 0.7859924070526849 -0.5022272073407286
Ni 0.9719791368649101 0.5127258521530342 13.177017429696352 -0.14874500274860836 -1.4756630621534843 -0.9255331175942061
Ni 2.926138737625091 5.135368209565271 8.599437049238372 -0.19042464187558172 0.53582921166589 0.8762293862630717
Ni 1.7401243840827054 7.913174881764186 8.11586846120458 0.9036026360697018 0.970939056532831 -0.4274353590408187
Ni 7.551055293752099 0.6466723951724571 5.833301355679767 0.038590715789004505 -0.8594511383634682 0.23037701389880325
Ni 4.1043920096317885 6.339601839620513 5.016370463664528 0.5898596590487325 -0.12666925389549155 -0.5661263199875347
Ni 7.078399923915534 8.156713216903569 2.1949026622069825 -0.6355291360613894 0.03146438915686839 -1.5465900281813494
Ni 3.879605034609364 5.654828588852287 2.4145128307157084 -0.22186563399368242 1.6909752112993652 0.519669571186892
Ni 4.851400694369412 4.729801243121718 0.3015657217087558 -0.40891236053596675 -2.599710540609942 -0.41999407227142505
Ni 7.923229427110656 0.8713777228832176 0.6513483091898806 1.0608821586518826 -0.2192027424495386 0.19697041341389945
Ni 6.390993776692529 8.487788478772902 13.345685180039975 0.08096995208616377 -2.3723815695088435 -0.43496149221453484
Ni 6.520592829712232 6.17108729265945 1.0354007503172435 1.5236632441818467 -1.4206818208215986 -0.37255850449728095
P 7.84062803450151 0.6606460114787933 3.2420101691999843 0.30389719457514114 0.9243915477905952 0.11329514658143068
Ni 6.625660993811805 4.5955969147699625 8.063060080883023 -0.964326693422636 -0.5934417199730361 -0.06564463458300307
P 2.6442169921484506 5.942493167711127 11.816446628129777 0.3029014063207751 0.4777353928469514 -0.3862180042622445
Ni 1.9866350483208628 4.903407279742718 4.0030585220016945 0.9766114243272601 0.16125521940047713 1.6635034882416575
P 1.3138245047896786 0.25849630611330715 6.382741893901334 0.22151313575027012 -0.1879756661144569 -0.24657933469027857
P 3.0703242204813717 2.997658113100536 4.87499951959684 1.2658368758228393 0.06665893478013035 0.7409829322215302
P 0.5856882750582234 5.4542972870926985 7.186044106567377 -1.1613683263941033 0.927114603148713 1.7079252088901424
Ni 2.371863577690395 1.435268000498239 1.4435226354460076 0.3742549183630974 -0.7471592362355713 0.4590118482955191
