# total energy = -381164.6728344084 ev
CRYSTAL
PRIMVEC
9.32142484451639 0.00000000000000 0.00000000000000

0.00000000000000 9.32142484451639 0.00000000000000

0.00000000000000 0.00000000000000 13.64284748401098

PRIMCOORD
 96 1
Ni 0.10656625659216677 5.017722956121494 8.926406096133116 -0.31330666081449915 -0.7783207494400403 -0.3002649971391926
Ni 2.008440789040902 1.358523089487384 1.4057183952632315 0.7215320225857702 -0.5192106292726026 1.372321684350656
Ni 8.055631218684622 7.784293864923261 0.46657179923614794 -1.4230356657657557 1.6863847637152054 0.4981633216840001
Ni 6.874877021072017 8.57835807718988 11.934599520800043 0.6889250351840264 -0.13517806269745108 2.131302595811504
Ni 8.079400851859635 5.994766736711847 1.8887294592317145 0.19176958593925036 -1.614455067454439 -0.12166845824679044
Ni 5.075180218431605 5.006900781958283 1.0525594391161317 -0.7694224185091458 -0.2326850932066896 -0.4845038219190365
Ni 1.8118519405463782 1.866205168406576 4.062280645303603 0.16956579614870151 0.7938245015025941 -0.14385193632236515
Ni 4.784025515599626 7.09502110997174 7.9629343100144565 1.0783152665266655 -0.399493381214912 1.1138016323587336
Ni 6.168024058995759 8.718701448594981 9.834801311829072 -1.4800167111364897 -0.43372761980743363 -1.486881556577123
Ni 7.425857118068831 3.968512704926846 3.1490420172948066 1.3208199169269383 0.9134350487790913 0.2889115197995863
Ni 4.799853294866752 1.4281634539777865 8.455387045137046 0.6659511999966724 -0.7950804853968824 2.6328613163302976
Ni 0.7520749222273395 5.020649883500693 11.437494462572495 -0.19063007301816848 -0.2577510350363819 0.035922424928222
Ni 2.709896646172715 8.61406845550105 8.368399509141272 0.27053687394714054 -2.0037059450057364 1.7804953669483852
Ni 2.2312601268509122 3.8561149649957427 1.8520710920209786 -0.8161301069783299 0.11870423341214395 0.4293873405608669
Ni 7.599804225786057 4.926913635968168 10.896515322216256 1.7876702874302695 1.6889718077160911 0.4311390331446511
Ni 3.6326804131506147 8.170983850269247 6.308752405244047 0.9774647734664907 -1.5588449342893027 -1.90234817329184
Ni 8.341323566598737 3.0258649817544545 10.141792183210478 1.6022940066118727 -0.38979595142149 -0.8394926929636702
Ni 1.1717776655547478 2.2684339688516784 6.966228848147219 -0.030152098103348072 0.5138694195653472 -0.23047163049513855
Ni 7.254930151978547 5.425684432802924 -0.3367085057050355 2.6678239484484116 -0.29741055840953295 1.827814977969955
Ni 4.866687910500026 1.1468521757076946 13.302949256284721 1.8147398899535518 1.4554266805019516 0.7818341619099374
Ni 5.937449295773353 6.905479258606749 5.616555519340761 -0.746265006556076 0.13397761463144667 0.20097902035266033
Ni 0.5527017641526677 0.23629998231891344 8.151082608375656 -0.6754807367536625 -1.9718777447515456 -2.216466274264041
Ni 7.063346908587938 1.116697366562138 8.573670332670778 2.13981294727536 0.8115319460846863 -0.44857342657101457
Ni 4.583120847434501 8.421692891004605 3.8796161411372503 -1.0533303144465538 -0.8021983273885862 -0.9256457319126703
P 3.6900724254873043 6.295037792973303 4.598185202012595 0.6621832483138079 0.0197913236943143 0.3454873593121018
Ni 5.504180150829115 1.8455116054071525 5.738931844492982 0.3342230992521922 -0.4097240578039847 -1.0029534046558986
P 8.626885414566008 5.892566635484062 6.636031357647183 0.5491809503824476 -0.5736681368905345 -0.6426343796476028
Ni 7.95244304643074 7.724720639189336 8.118381185981702 -0.2107826367066434 1.0881127122330616 0.36712113553179354
P 3.776509997421383 6.445448303134879 13.178580942658185 -0.6398251923335819 -1.1215049145402622 0.3216488621316073
P 4.91032149986953 4.890466865099814 8.595989552150877 0.4184969189006083 1.8837709245102847 0.8961405233647018
P 8.194511126400123 7.74471509533067 10.279011945173638 0.18685723623929756 -0.2954210387833299 0.7100353348000804
Ni 1.6598847524474583 6.274456087071173 0.7356738753365801 -0.22869834064479969 0.7258311641817563 0.5583189081279739
Ni 6.39532700212231 1.837234180207383 11.456076722860491 -0.48705924135103856 -0.69353913691727 0.2161176757663117
Ni 2.3486541504611558 1.4856113948631233 9.246112323049434 0.6104115150581552 0.4537503427862637 0.4806600226929142
Ni 7.463888531148853 1.5233352009255863 3.279535439140677 -0.4782994928805375 2.441986474291175 1.5704966595956178
Ni 5.712691101610244 7.376406959640028 1.00044614962925 -0.2660040190737935 0.2766211324680075 -0.021694711364614247
Ni 1.4313607026754454 4.848678917835662 6.8320646492251464 -0.37085617709419355 -0.6271617379333005 -0.22994789678118463
Ni 7.076061331980376 5.624724816013146 8.05516048673351 -1.1290698713717136 -1.6081910888225979 0.13905940002972825
Ni 5.911610306298397 6.151515815720093 10.279790284142308 -0.9102682210153356 0.44348984140052 -4.34977947274767
Ni 4.9364494535124965 4.147745060491223 4.204794044396211 -0.4816858928542672 0.049753417274043345 -1.1284620625843857
Ni 8.574443078784585 0.5817603737447412 1.5328691541849602 0.6489855186766114 -0.6430442134915119 -0.3181123097332586
Ni 5.796239031864223 3.1844317385937315 7.489267974382424 1.3504038012316422 0.8673133147203643 -1.8894484345110363
Ni 8.703181276345415 8.635889910898188 5.985703515403586 -1.4049890926766901 0.3881848981806283 0.0752281645063801
Ni 0.8672914610102562 7.351667898288465 7.206643307361603 1.2185180361322174 -0.9897173655815986 0.568730076158969
Ni 3.8393923289502623 5.144466368780576 11.092030342576756 0.33013041724005726 0.4857029844334602 0.6659630270712144
Ni 0.05736125163493375 4.432589158750856 0.19951670801619928 0.7836118226356504 0.9317472168247178 0.74974010958887
Ni 3.9811245926467644 2.125639062730881 3.2319765977986235 0.24358708483117403 -0.3573792256536813 -0.9077914773400688
Ni 6.8426248913521945 4.559705428400918 5.504357257899831 0.7775581602424029 0.46028891523572985 0.8203657423262324
Ni 5.910780699493465 6.152475922471868 3.067689282575226 -0.6054870811733443 0.25508865771287037 0.7696211647835132
Ni 3.215332261721249 3.0033257766496764 5.789669291683145 1.0508119189000742 -0.5329966273131014 0.37566851088117237
Ni 6.39322036012327 -0.16629142154991755 4.679797072340907 2.9861401466623603 0.4173370942645522 -0.2791852936507579
Ni 8.332048748948093 3.2651366342914834 7.5588197853374695 -0.5028285883701533 -0.21652776672053675 -0.20809634812373196
Ni 5.968070176157635 9.002809154297427 6.934017732696405 0.07730073076469267 -0.027783597871171507 0.8827381339158668
Ni 3.469341086826786 3.494229290974742 8.100045011307754 -1.8250703253452825 -0.7419571232093415 0.2464518079734788
Ni 2.756839341337173 1.565570576578914 12.801260853495542 -0.952639744003011 0.6756504295623074 -0.22334247564952503
Ni 3.492057399002279 6.4998201738446255 2.433911630018781 -0.10953902197310812 0.3138759030544078 -0.14229410491694203
P 1.9473015639448579 8.481657616579062 1.6540178476943783 -1.0233273403265601 -1.1400381974577591 0.18145843382122942
Ni 0.4509929020105008 2.103342214670241 13.63584902782689 -0.37645449711757745 0.09660200219646589 -0.34396320935809155
P 7.453513785374817 8.036186726604983 2.428085739534709 -1.069360628436539 0.7217066004904216 2.204267932425636
Ni 4.657813424152691 4.9666601912067 6.337838979110443 -1.3805484431358224 1.1063240930347655 0.5240743851228071
P 7.605061509358884 1.0006269852698757 13.257682553294721 0.002720998475588862 0.48453673203950104 0.011342935816644981
P 4.087053263784355 0.3026470874364798 10.328276607249427 -0.05810076079747413 -0.009967652735673155 0.01923056609483785
P 0.19321728915358197 2.3933969893788283 2.6229603780131994 -0.07633862396173949 -0.3985898955640361 -0.4627093517517644
Ni 6.1909174782419685 3.3297247865540984 9.608903107416042 -1.1010049948146974 0.8691447115021482 1.6105860714173357
Ni 5.958580965737179 0.501137506585005 2.0336300752090746 0.34430773718170377 -0.16648330056863586 -0.3672674313016707
Ni 6.791673983534694 3.4214942134592 0.5855141115014385 -0.3415782540656827 -1.4620850663587337 1.4261767824978986
Ni 0.7600699082564412 6.43774880627113 4.911875381379443 1.254105446318524 -0.9182612665231411 1.0659372045772868
Ni 9.282666290302696 0.6693379559287432 4.265954708769237 -0.26255436996229625 -0.7580216328713719 0.2209544350333227
Ni 2.770402014384093 5.896425705340712 8.56563433237267 0.12976871875642168 -0.31718774103646014 0.17810494396796422
Ni 7.87832839804857 6.67659167326853 4.306023785304967 -0.45152762410333214 0.1272590649606905 0.22845562850637427
Ni 2.0596899824511867 -0.08004307453876142 11.328297699908958 -0.024071439126906933 1.634253847347921 -1.7160046434641674
Ni 2.47593820575716 4.412296417016736 13.090925992648556 0.5173524930179413 -0.23291623538088918 -0.47514474930163975
Ni 8.88329916726337 6.956625916344514 12.434964281271242 0.7699204411914868 -2.043894087188848 -3.96556950005439
Ni 5.836414372642384 6.511024526423593 12.299313315097633 -2.3014872564911264 1.0839992042853202 1.4625856601442357
Ni 4.596646234782322 8.412958715990886 12.607982975080928 -1.6000280933958315 0.08799060637837104 -0.12911308745029376
Ni 3.6350480550433417 7.459460854380958 10.569359412620143 0.2358886877456518 0.21118938522675884 -1.0936968911890583
Ni 8.374433267397814 0.7980537820701128 11.133040883014713 1.304888333298346 -1.249712459457151 0.2788425655993585
Ni 8.094967631233077 3.162983140187572 12.470203927631296 0.30510664150221 -0.1509749205203916 -1.1197478226398394
Ni 3.952703568509268 9.088836583541429 1.4625408685461985 -0.8634381480356742 -0.37634702500543576 -0.3896188024136774
Ni 1.6996779148098633 9.31461081300496 5.955348295625377 -2.6094151694922156 0.08517293442391784 -0.10189358961270839
Ni 0.5888931279822003 8.872262600330345 13.204270789336748 0.4487608599914723 1.6878549205028286 1.2548829479144967
Ni 1.8462573193891136 7.282773247780024 12.215232199346552 1.2465505167894015 -2.6398791424090278 -0.13097250925653572
Ni 2.437356828615442 3.6032060680135976 10.377568301457062 -2.0921650063800934 0.34438101362180046 -0.4803432627834437
Ni 3.2783823788960693 1.0287497238145877 7.0653575399118 0.14074218704878985 1.261070050561815 -0.37530058601879235
Ni -0.3246978498830728 3.6565805462724716 5.144745079381335 1.1052807393719157 -0.23112314803620843 -0.3274940080584747
Ni 2.2731785740619066 8.347065564259838 3.9981045000160216 -0.2188790405615327 -0.24232364473771814 -0.8417449793329568
Ni 4.246878412968191 2.4310462240430946 10.959053693170956 -0.3362578702940338 -0.6068209694934195 0.26383452222630044
Ni 0.3862071355426658 7.487751378571612 2.9361313540201066 -0.36362726344592217 0.7883022861327842 -1.8784623678131778
P 0.30212415550662947 5.00291121215479 3.0900644306039724 0.7495297933502768 0.2863686987730746 0.23107738239993755
Ni 2.256866080706505 4.266975404782046 4.37272324027901 -0.9608045392019905 2.329395295755304 -1.2579980965047108
P 7.965353219743443 1.682284136180618 5.999387366972575 -0.25959657288555293 -0.5122478248015242 -0.35232983615523195
Ni 0.9595008591647148 6.9054606157572005 9.71241100453969 -0.023146870430108525 1.9303366880849657 1.2306371879932547
P 0.2558581957808011 1.4672202237830048 9.61571054392887 0.7781209747244083 1.992162977363143 0.8810633173166051
P 3.5715691523288937 0.8701699169806266 4.973172138554177 0.7769061284807007 -0.9632869393042119 -0.58674373912757
P 5.728695987948087 3.062843073834956 2.3894223338549754 -1.050690048610229 -0.7180726032822601 -0.27155220258553237
Ni 5.806837491832847 4.12761078297827 12.157237090826952 -1.4902975242372074 -1.2558885063608758 -0.4464581800002247
