# total energy = -340886.5988983962 ev
CRYSTAL
PRIMVEC
9.11485121834222 0.00000000000000 0.00000000000000
0.00000000000000 9.11485121834222 0.00000000000000
0.00000000000000 0.00000000000000 13.34050610132822
PRIMCOORD
 96 1
Ni 6.42584229494846 2.4225177345713482 11.708427979430093 0.9362276211935747 0.3978974974827018 -0.06221709695869285
Ni 4.7439335426710105 0.5760959494148138 6.438434461502791 0.3311930541766167 0.3993373152530219 -1.2157942094431513
Ni 2.585208708750318 1.670496958918041 4.937161090422414 1.0434701338230223 0.8208856193854442 1.4301475942201887
Ni 3.665901893945867 4.631410707988991 5.260428393365511 -0.7997213266030033 0.667961802668798 0.1909280638745615
Ni 3.760586965365618 3.1433657200575835 3.2324442466727246 -0.4578425105777663 -0.29413265898920954 -0.8489407257504475
Ni 5.409709598862084 4.798330972997644 2.896437116590295 -0.6513007970733493 -0.42436109099086916 -0.17190421447389104
Ni 5.565063118045588 3.3981804925460857 0.46552186986078187 -0.9769243275819884 -0.6758080381860941 -0.28801703300977494
Ni 5.629751215067727 8.165922025835926 12.681818405068967 -0.21453053378484988 0.07368678816118922 -0.7433673732933068
Ni 2.276798612816674 5.872898978370891 11.64575426446261 0.18833690610861756 -0.30263118337852396 0.14232367260329684
Ni 1.1968893048007652 8.081281520136676 11.88376216332858 -0.4663762590803904 -1.228356362378878 -0.20156806008691092
Ni 0.6145487710165181 0.4457781912698767 4.826261610690323 -1.5789617596438357 -1.7530326427517422 -0.3260053393280901
Ni 8.80351496296367 2.7435427841866384 1.2637777268364505 -0.6621765634455886 -0.5146268665566621 1.0249098543223316
Ni 1.6796482692477896 1.418134081328645 2.7506651287002497 -0.9987231686246348 0.5940053057859899 -0.06363660301403878
Ni 1.8967549034552456 6.88151192244328 0.6821563547902685 0.6871872265573133 -0.7917089978214882 -1.1286602946381206
Ni 7.716796861306004 3.899187388547052 3.962730660292879 0.5117222913153574 0.9096131039298399 -0.11441203379469327
Ni 7.852434957936474 4.170135447174652 12.753030000898875 0.5316547685732262 0.6576691624935384 0.09217070589798965
Ni 7.97526668901585 0.3490140223538949 6.929178946846123 -0.46757696425671086 0.8886012775648632 -0.19721286844200875
Ni 6.915966058943729 0.7313081884089638 0.3683393292872946 0.12666976811612377 1.3811925044777245 0.4548780286328037
Ni 1.8134907402458282 7.038214439563839 9.54498529867008 0.2445916148362884 0.4531075669959422 0.06609997695286682
Ni 0.34552394593431246 5.021325800903325 1.5728322427305659 -1.6344225117153013 0.39973377936049226 -0.34660167542220305
Ni 6.530936526125754 2.432644333950184 7.067573374396628 -0.03753682060319342 -0.9204572457331954 0.907440007537921
Ni 3.4718376028794515 4.58249130306891 0.3303705062697634 0.8037931826795317 0.8637484801872416 0.3695462000335184
Ni 6.145670007183701 5.880090595751541 4.996433143024297 1.029095096048273 -0.581278859358257 -0.44058860859332505
Ni 5.473185420711059 3.3790666501541704 9.453669076152595 -0.12879272799639754 -0.030788189025450198 0.42594540475885356
P 0.3675062319126542 6.063189721153924 12.813715766879387 -1.6997907527084664 -0.4779811903091704 -0.9143513899457737
P 4.091219067856959 6.564196617154891 12.704283778146388 -0.3729310573453513 -0.6300740264840891 0.9056176096172015
P 2.2781476107537286 8.759089179550127 1.4345845642799702 0.2703044462213603 1.1478414955522618 3.062976793306441
P 6.656566516439426 8.043509577899146 5.816326744613304 -2.72590054087617 1.4347115594417872 0.20234299057972246
P 4.934752946807754 1.2659251857146268 13.059941615340279 -0.36701494897123244 0.6393567373375957 -0.6430308437550732
P 4.303932343918061 6.633250727770603 8.366791464603725 -0.8381873438886854 0.14181767950115576 0.09586332425822845
P 4.591259789659764 1.3653317499140687 4.1647057304780075 0.7104001743386668 -0.42932126320962194 -0.4505652601900627
P 0.22434291435764248 5.665362937635782 3.84904294766251 0.4471852879742363 -0.6336905401907539 -0.47682008012153365
Ni 0.6759928925940771 7.551736025886264 2.668968719850112 0.2386965895080921 0.1726781165254381 0.452161401032589
Ni 1.808504916789282 6.737068879818251 5.025474881044861 0.22378959048927266 0.07172760755228937 0.6347320940813909
Ni 6.222170951005994 5.9594353730627585 9.34072878129816 -0.014245197065104501 1.1717496696284273 0.17750973358612657
Ni 8.986395331943827 2.9659998358876822 10.723992177439039 -1.1383515537839557 -3.181795183698946 0.09664956760494968
Ni 2.4192910773435288 5.782625494799347 7.459370684027191 -0.013069688699764588 0.48166378136708005 -1.1784828745872027
Ni 1.2404947516309621 0.4954085545621894 9.696186091771677 -2.095553463236352 -0.4929318980817317 -1.1676171355172924
Ni 1.805442326878131 1.2407317377550393 11.882294672329486 -1.1873405820881486 2.8192308142998996 0.6042943464168238
Ni 4.123576788644417 6.728191015016283 1.8015949483022475 0.7822187989428658 1.132254182636966 -0.1416569855535754
Ni 6.002238713011463 8.422240748727225 8.267244531700022 -0.7788084877097362 -0.13686162104746108 -0.5159427571546082
Ni 6.722220787659725 0.7270943928258534 4.380714936633968 1.2285160278851939 0.44329289489836554 2.2143649116503217
Ni 0.6093305188613576 8.066706873505929 7.320989017267982 1.776140175303483 0.019420827728773005 -0.428923513550571
Ni 5.438394034726346 5.169387439345993 7.1680272349674725 0.6413274879107214 0.2548264051904192 0.0969958952007749
Ni 8.310137197187801 7.6501855307384705 9.339287723366754 0.5828708864357252 1.0066344530519116 -0.12264650588934362
Ni 5.33729210825466 0.5961787004601679 10.774032709023023 -1.9371069169292638 0.21243611314966637 -0.5664880742023277
Ni 8.249140614790711 7.271882757903917 4.723632946688524 1.33300051815353 1.178035245526823 -0.6523752610844507
Ni 7.699241658422443 6.6657634010238045 6.967305456784674 -0.7322141848899647 -1.3239219528910295 1.3900299002636964
Ni 2.243055434688457 5.679345118956334 2.641473772031699 1.1817661733241647 -1.43493318853429 2.163567112272164
Ni 3.38766195457743 4.728511214904143 9.351707619238582 0.5232786286943891 1.1084359971714457 1.3588267351880148
Ni 1.5061653115723834 3.775316564462106 4.203460253645364 -0.8327869988087205 0.2879722958147686 -0.13729022394444743
Ni 0.5347947368987206 0.6458163556332214 0.7016676046825595 -0.09650738560013057 -1.1345260093902783 -0.6057539616814859
Ni 1.217124273856584 3.87347439408468 8.49987649148981 -0.5181235668560109 -0.6081273470096688 0.20527636217643355
Ni 5.440153200955073 3.2091202546380693 5.135867575065464 0.4538243905573088 -0.6023122829897886 -0.9694388178382207
Ni 4.404915777327709 7.06441052112529 5.973117675787844 -0.8935902461390224 1.8882528715410383 1.9900685567279595
Ni 8.056261254344683 7.658398011422837 0.2550143877237825 0.9369128201860574 -0.05957014625414902 0.6741131669821745
P 0.2093371352780953 6.175074516271121 8.326649661125424 1.726185697762227 -2.518251564702502 -0.8630864211232104
P 9.053890803051187 1.7497961619746287 8.437696801442518 -0.9973712825824307 0.739518688971178 -0.13124093242657398
P 1.7250949159650482 3.9344254022271397 10.866188409310796 3.3817539903172076 -1.2937222893791978 -1.5747945156400234
P 4.057949861976896 6.409399103877875 4.041252366565475 -1.165277174530206 -0.6869218887110686 -1.8120453738405242
P 7.0864866900681704 4.371655686298572 10.609330998729767 0.18796641014307627 -0.5128057541875233 0.4169259748690626
P 6.550597259573231 8.038250308914819 10.359049041606788 -1.016978515290397 -0.2663431475807671 0.7079897651249614
P 2.305182258600377 8.851495538238368 6.0346046371647555 0.37266931904353234 -0.8355740746355546 -0.4637089966608724
P 7.085976258416312 4.224150053762393 1.602261361915486 1.0544538865280357 0.9942119110178426 0.49495304227681863
Ni 3.130942178245385 1.745931465181986 0.8810533398176723 -0.047712475584614604 1.1434137987982114 -1.3360066519697056
Ni 1.8005111925271406 1.524686688654106 7.367067323154415 -0.33527262356262905 0.6137516351749817 -0.048758143240309575
Ni 7.01663958742189 1.5170393287271546 9.245263478639142 0.8511197356796375 -0.5272170445168468 0.27000208448959306
Ni 2.979334862792485 2.383788732986585 9.607218766337834 -0.02411874742507459 -0.9982310594795647 0.32271047062690233
Ni 6.5267528095506995 2.1791512148459584 2.5971026777237136 -0.2688944532477111 0.587939044987252 -0.8042690938746858
Ni 4.150976030528107 7.320273501470288 10.598817929671668 1.032754547177731 -0.3013698001675971 -0.6149549114544635
Ni 7.339104783483496 6.52999769648037 11.699610272644238 0.5237190586659174 -0.9419195293720295 -1.0902246163697418
Ni 7.89977749364635 4.242744349651524 8.525223068944953 -0.48558934167373147 -0.4370762245646924 -0.9713334637577722
Ni 3.1944453446471375 8.794144896211694 12.906365492087351 2.1510972619399276 -1.098077022534625 -0.32754363034948747
Ni 0.06362348243397632 5.168959041352469 10.398591087894154 -0.2905200019372868 3.151833090119217 0.24582651568465405
Ni 8.962341240349996 2.489247558200921 5.768207623604528 -0.45647288392374935 0.3386381976007523 0.637099822982619
Ni 3.82399898325811 2.9086036196063794 11.902025590129094 -0.08383827477289432 -0.10713658317920258 -0.18561539341239644
Ni 1.3489614776508925 3.7416007308866672 12.950576165019038 -0.9447076336401279 -0.5387165605160141 -0.33591282824978924
Ni 3.1232401292128773 8.788457229233844 8.029330515798591 0.9550041304701297 -1.331744534259242 1.1475812999123398
Ni 5.554772451350083 8.03310953299253 3.6495352676230612 -0.3799817935445456 -1.1623317187486368 1.2653450237880854
Ni 2.898695776649769 8.52421770088781 3.7744160171906125 0.2732157063308843 -0.2740055492220313 0.049118097682889605
Ni 4.177199456642337 3.382739935077366 7.460624887514614 -1.6610185170362746 -1.6518651326717813 -0.5286098110993154
Ni 5.211133456587277 5.011618484667088 11.473194641186012 -0.8848132712773408 -0.20750627994821683 0.5171246932778514
Ni 8.005564453494022 8.945032138441437 2.3011708127078245 -0.45763399411138606 1.0979433251702382 1.6412652456687475
Ni 4.47242947813692 0.3349807978681567 2.1535448641394215 0.408246959037826 0.46076199821740643 -0.9427237704408797
Ni 6.0300936974414565 6.078985757808759 0.3665528185057899 0.30490763811752647 -1.3129901364698742 0.9232425217878165
Ni 8.322360212279627 -0.14197565247934807 11.314095829756996 -0.9636546070562759 1.1507481276760956 0.29594194428380644
Ni 0.26233725895776666 4.964759036056292 6.302401691827224 0.0515228504696403 -0.07279950046022945 -0.25219410977389467
Ni 7.168739104824796 6.365547556072674 2.7504791857413586 1.2374431551714948 -0.49432106511977447 -1.0935886477459682
P 8.644861867744936 1.9550808345310047 3.559834196689671 0.1408702279862219 -0.9483377741935474 -0.18665591886176885
P 2.092113503353159 3.489648021588943 1.6632278653045205 -0.4916016093060824 0.5032988431383526 1.3743004053435814
P 4.645110328930835 1.4352791159205347 8.514551401480741 1.407550425645963 -0.09338478081074884 -0.10821181852125233
P 8.51744536664976 1.6931291337674097 12.529323303135872 0.3101938262171303 1.2240245677727437 -0.3472243966078665
P 6.152059517682859 8.012081571906144 1.5872264153129756 0.8068504814486168 -0.403250534264499 -0.5315850916775554
P 2.122046673794289 3.5636241517047207 6.53077792771964 -0.22428864161287826 0.4164166393328119 -1.2558656235427403
P 7.1992738554270455 4.190151659808246 6.179722178758311 1.0001066792357227 1.0142719149925112 -0.313162421927151
P 2.9532025851875154 -0.06468627405195312 10.677006943885463 0.5543496390675807 0.12257760032462114 -0.4995781997536557
