# total energy = -340874.33283064637 ev
CRYSTAL
PRIMVEC
9.22389635237881 0.00000000000000 0.00000000000000

0.00000000000000 9.22389635237881 0.00000000000000

0.00000000000000 0.00000000000000 13.50010467743860

PRIMCOORD
 96 1
Ni 3.2141497005457893 1.3960736091660921 2.710375532351112 -0.4382375918626453 -1.3383491840599533 1.7558963374527823
Ni 3.6863117311469167 2.8858989009012883 12.352136531320271 0.44166075861158133 -1.124671742304018 0.3384134831844559
Ni 7.860798176970126 0.533803485173423 11.920849275034053 2.788226138388269 0.6612679355883903 0.28530554761588284
Ni 2.1471847133853665 1.541912634461262 4.9767597359639755 0.7478938004087508 -0.9373684196662371 -0.00703762357307175
Ni 6.98277548277955 7.571582906707015 8.307640612072218 -0.9576143143994669 0.37914772767902444 0.026830747039598955
Ni 6.450676573652838 7.967315732096848 4.6703880184774755 -1.3895200505068133 0.14261472148115437 1.0850926944598152
Ni 9.052442571183535 2.4668665133145287 10.32860645010267 0.8830327823381503 -0.44238863791654137 0.8422316891613881
Ni 5.104605706636206 6.575890966694513 10.811045746024389 -0.38178902195661346 0.638203854680075 -1.5233081748352733
Ni 3.2544765754171117 0.30102370237890813 8.481278616207094 1.4310449092234774 -1.137212812193822 -0.9738557159589937
Ni 1.0754878673939772 5.6953132532131425 3.5779862923342884 0.6216886306338713 0.16192396333272757 -0.5453548917681381
Ni 7.875473396073573 2.3444192891798523 4.486529937179419 -0.0429595342806615 -0.2936983996652684 -0.9337596192690564
Ni 1.1521476700141882 9.278317345165455 6.508238298866582 0.8496403229206334 0.2917129938041234 -0.1964410232729907
Ni 5.330683406337971 1.2616537675604693 4.453171716005555 -0.21515325497051332 0.39620262627878217 -0.33065209407148216
Ni 1.4642566510345314 2.079758031018174 12.16925064869821 -0.8304493518144795 -0.45197499605339575 0.4853108912013643
Ni 3.2599463459566116 4.873122803669437 7.770876256168307 -0.27200265985938965 0.6102469644558328 -0.1944211646294845
Ni 8.0434774443138 7.196991251766649 12.711914608711842 0.976069435780861 1.8806107816147484 0.2705612994271728
Ni 0.6297661356992187 1.1387730202970294 2.735391661660013 -0.5842379419865809 -0.6272992919524293 0.7180252949840924
Ni 4.580642274096069 4.998069703716769 12.306979101926967 0.3019323575392865 -0.003779264536774136 2.632113896641312
Ni 2.267611904217935 7.3638607607550055 7.2817136621922165 0.6702930219051358 -0.7476672862202414 0.8249147951494955
Ni 4.158077134204708 2.027762927255675 6.5302437484046685 -0.3790844785412568 0.4132608673126496 -1.0638510114722193
Ni 6.56449023079768 3.9951093333752192 0.9521044177790993 -0.6338815731556374 -1.1282396621609343 -0.4365496626372611
Ni 0.24289655231850082 5.117675967773595 11.125746641920955 -3.3333838265439373 -0.3054267438457901 -2.4559845883424796
Ni 6.639572747140901 1.725541963129672 6.38394260590203 -0.6959927406640852 -0.5930190306133205 1.2133256932980008
Ni 1.1689812808650948 7.111144448375203 12.409971283866174 -1.1120658806145494 -1.5014100892106013 -0.9766906143046276
P 8.896106751834486 1.8019988400300364 0.7279766497671326 0.6522860438047541 0.04506192533564497 -0.1580469968758246
P 5.851252445018856 8.836418918510532 6.597676887499311 0.23274037192465724 -0.15209540727808 0.24549767159032557
P 2.21966609095601 3.1929900823036084 10.307681118827949 -0.38258066461997337 -0.25249158640965547 1.440571360656674
P 3.3484773031878454 1.3441430726780899 0.5797440233674095 -1.4263220498265112 -1.7451861501241297 -2.318943761404677
P 6.305667699029768 2.3347065263162876 2.773150603785641 0.16162314426285715 0.9806010051026274 -0.7230847117848708
P 0.9952584168837385 7.715835421828839 2.358508790864652 -0.4435811155627457 0.15299889292895585 -0.6423039928913777
P 6.849185791846026 5.720328460132408 2.0766532675045215 -0.7291944242270345 0.380502441934706 0.47702653970538494
P 8.447253507326641 4.548386308536825 5.062876799518671 0.5396393294405997 -0.3120103106005788 0.1117026052833302
Ni 3.7530650690800735 8.94515943265921 5.582819535636939 1.3600032719946191 -0.524832089224438 1.5370265528626301
Ni 4.473183881540966 3.879930539569591 10.243002235185404 -0.35888846320935613 -0.11229832988580016 -0.16895593047884452
Ni 2.9244824593612018 2.62118229936147 8.426562463019378 0.8070294302286423 -1.1409306273650415 0.08378659559935248
Ni 6.877604616520899 8.225538710601578 10.739819740747887 -1.3088095227296235 -0.29107253200664707 -0.27360985644550945
Ni 1.5444030864775602 3.014904315345551 1.486847817991266 -1.4142517489255386 -0.11398214534612627 -1.0783818580985427
Ni 2.58709077842725 7.847866274278086 10.445314565924232 0.40949471540199794 -0.21044942173694078 0.35928209910334896
Ni 7.122471393101183 5.334419084362419 12.139496203830891 -0.33486073283619106 -1.8708189923353071 -0.9513847885499872
Ni 8.178183226706478 0.18663447410141046 7.247153567323079 -0.11988539820443869 -1.1464263603722902 -0.745866999786709
Ni 5.826763000191921 7.628475899434901 2.1416568322988194 0.7578825361903463 -0.1586733176059138 -0.6300593711960697
Ni 0.9698650302138504 0.5615563445313451 8.849156196989446 -0.7558691053047434 0.05528283173270479 1.025096516411841
Ni 8.331631966495895 7.288123347770461 3.4994568059225823 0.21346506863481302 0.34566939341592084 0.11507434996904052
Ni 5.362699550591942 2.4482711382595004 8.574686247442093 1.4216308149984291 -0.3843328714243897 0.13804664249449775
Ni 5.793658436167863 6.82085920613472 13.181434915396421 -0.7448208179103818 0.6436674488978076 2.2189129360323205
Ni 3.8954820288269216 3.1221597821808076 1.3581237323858812 2.1785540725992996 2.7615943947333537 -0.40078741743598717
Ni 4.6960239936215435 3.933641288054429 3.597521582428061 1.17966121116602 -1.0700234588315185 -0.34320756213898956
Ni 7.382428464120965 0.7695312252435268 9.322065363195462 -0.4895578394031762 -0.6806836211108406 0.7192416838896968
Ni 4.9613493723209015 6.534180507369692 6.47388112971729 -0.43406469143187826 0.4361066615625715 -0.7151091497785619
Ni 7.069987422831781 3.9668104193529823 6.873389295885905 2.100030782281416 -0.0045120289377406165 0.10144493211106399
Ni 1.6506070291281567 5.691531455706912 9.507624330981686 1.0965590432282017 1.4785799786899634 -1.3773060249391247
Ni 4.476910335669058 6.484436034318217 3.829710113466114 -0.30916255673913856 0.1550028107328621 0.9115164916001398
Ni 9.10555376640519 2.3215716979044023 6.678718040888936 0.45239460008931764 0.47921480560595536 0.0648769031790431
Ni 2.1403959256668643 8.291388106691782 4.1164386212714685 -0.5360451843314381 1.337138965801936 -1.6617317410532155
Ni 8.81561903222626 6.19054424860228 1.4891694727042377 1.539325633309452 -0.4626653858877065 -2.113884400335056
Ni 5.634822940906159 5.3435322939628 8.526962730082364 -0.20458447831573154 0.8114674113953381 0.5781220588968301
P 1.0307519700641705 0.0686608396997143 11.169932795027902 -0.8623153472851408 0.5139642932719987 -0.2933572142757658
P 5.070320483878496 4.138605488995797 6.829027888748179 -1.7408736387917052 -0.7917719898489396 -0.7681484368927287
P 3.520290820623373 7.067579985882693 12.636313709393374 0.17926245461117515 -0.38280615036721816 -0.09467058950170794
P 7.513841315514316 6.348521921502816 10.174920656176889 -0.5579939206883874 -1.7559919824903825 0.3519223163041681
P 8.981944331329576 9.419627437349504 4.8279340130285195 -0.31350874952297614 0.3218553217154586 -0.8289470562373401
P 6.797504300559654 8.842460570624146 0.24057489760552922 0.29654538219576027 -2.9578479845858863 0.1016750458439991
P 5.207221553604062 0.17231068544915135 9.708154604944408 -0.5536430999188594 -0.007698911306154483 -0.3128603173056999
P 2.8419654825545115 6.657799166341664 5.2312774753022335 -0.300349843543515 -0.1664997556288681 1.6131903418094022
Ni 6.720724587286806 5.511656252855662 4.210979869368702 -0.4629219819832028 -0.18450364840545644 0.05250166944314184
Ni 8.369034866222155 3.3137124378195892 12.575671202796505 0.0004964800204443062 -1.2097199782246133 0.7727525113236433
Ni 0.5898856974115585 7.128466925733013 5.4025394037356325 -1.0980258575817154 1.191976023977631 0.5637290233999517
Ni 1.0235204353205483 3.378860817786687 4.342322619149743 -0.4449746534761627 0.4430908061898885 -0.49126813722606355
Ni 8.346353305081125 5.451959195635351 8.352231694229225 1.0060726670111706 -0.3901692756005087 1.245707966283448
Ni 3.114679202235555 4.517108075991387 5.1990657844455015 1.333492113077968 -0.10619298831901067 -0.5632528550944816
Ni 8.587069328300911 4.025336041735997 2.6609917136471837 -1.0839446968983009 -0.0065516850755887165 0.08075577919282866
Ni 6.693089793802249 1.6382746796993009 13.54762544553514 0.8718698237427952 3.329643128554581 -0.12613626421015695
Ni 9.234780554362013 8.75064590628994 0.6645439145223738 -0.49912105761157916 0.5699081556274701 0.4164302661795667
Ni 7.6724093177816775 6.305999759298608 6.374439225485762 -0.11000979096193957 0.41314285367754655 -1.570185299002786
Ni 5.2536730956562065 0.6547951784630186 1.431901989784271 -1.482646435449853 -0.20492746347744709 1.5815511176375665
Ni 7.202829978160415 0.25865373446458506 3.028384117481176 1.2667413899149795 0.9868261600767327 -0.27743745772171574
Ni 5.717699649670759 1.6056589821821472 11.243994226044443 -0.05743638774059785 -0.4279853180070178 -1.129606460601474
Ni 4.979806388930581 8.802493427710733 12.266964917142134 -0.6630718215663483 0.4311346622692769 0.181885494056319
Ni 0.976543131176073 3.7541442649538026 8.57060928525245 -1.7283994175840944 -0.2935451619168557 -0.7904291026678
Ni 2.257124334060411 8.88604348090937 13.004408051740109 1.9653006057546607 2.436413608189088 0.5374580055185646
Ni 2.4049280492795493 5.678793254838363 0.5126217295799863 -0.24839916150783672 -0.567094597438075 0.5657573666838901
Ni 7.074876087900812 4.122500565957066 10.003874566918237 -0.04227330684691429 -0.6716261388942626 0.5017705794192843
Ni 2.4031662850754274 4.8900947729656945 11.590380128315775 0.7519774835598211 0.359382115016323 0.8506139996878125
Ni 3.3390781528004077 0.9006304641607518 10.835616361139264 -0.38786916671242233 0.8746463580466678 -0.140356521574597
Ni 3.037493637523015 8.037251314273053 1.7867655751970104 0.8522733896681065 0.11213480772474237 -0.5508858488886964
Ni 1.1602278032226232 5.1367509854391695 6.35651073813732 -1.4171432115407208 -0.32293749903604385 0.860158448843138
Ni 0.09159605799055225 7.5971146518222525 9.855805203484024 -0.09847376529788202 0.3835348010031266 0.8004875153450666
Ni 4.516213358044791 5.547112910450667 1.701863298792487 0.1289037996529651 -0.3064335878437497 -0.9031943448876897
P 4.50687877493185 8.748109334791858 3.441648802676115 -0.7222940975627754 0.13085886649680686 -0.37440069991234226
P 2.637462476430977 4.193865852068553 2.8394907111620196 0.5434260501765416 0.8867590821498019 0.44502067622274966
P 2.0067877869406274 3.128210658190777 6.455304202454975 -0.23902389094052381 -1.035473745881107 0.9431780843694789
P -0.014162370466017534 7.398819327946751 7.702173908934988 0.487723871518231 0.47228825368945115 -1.3157502157135146
P 0.37877745910701893 5.014986329634886 13.099178974856622 0.767809051275439 0.9325961950885746 2.8775470335422892
P 6.066685768325034 3.4134412052278096 12.061385482313778 0.22560607487272114 1.366811296055388 0.9574698184018027
P 3.615370744267836 6.639600418829971 8.996510708456015 0.880769183114954 -0.45871925675576486 -0.23129926860275649
P 7.875897695305979 2.6021902967631045 8.611122482830176 0.001491754054178076 1.719441179949542 -2.204053245311669
