# total energy = -340866.10439647 ev
CRYSTAL
PRIMVEC
9.26905303920835 0.00000000000000 0.00000000000000
0.00000000000000 9.26905303920835 0.00000000000000
0.00000000000000 0.00000000000000 13.56619605312415
PRIMCOORD
 96 1
Ni 8.208840325490232 3.8266729846691114 1.840919233770491 -0.3118683857060758 -0.6940618421899596 0.5435366076124768
Ni 8.265455702219358 8.301160095009237 5.043098103625302 -0.4434492179705718 0.06481185426906257 0.6721989806785971
Ni 3.222163875382916 8.346902872376335 5.478912299127161 -0.00906468130542955 0.42842909041265564 0.41105768901374373
Ni 5.015049021844031 4.466988446329998 12.904084767429389 -1.4112186185261695 3.3879974001237585 -1.616818168369977
Ni 2.783302015200551 3.680008756446298 13.136392266176777 -0.31644906309822274 2.4299064031981894 -1.5024315884965802
Ni 7.596776937874921 3.9700745061780007 6.077059130321202 2.285643861700967 -0.6708632925863091 2.181090722978224
Ni 8.346513572143424 3.979250868810914 10.2920757816152 0.2577255811150852 0.4430779506740821 -0.42598705663006636
Ni 8.69890443535362 6.141396555241721 7.420831770705266 0.22636120787119082 -1.9763139261460285 0.4450481870265755
Ni 8.895973774685304 5.802955617044186 4.851787627024757 0.22696336023156397 0.5698245947747282 -1.4617816761857017
Ni 7.422963652933115 1.4253393813268642 2.222401020337655 -0.045465588531966854 0.371000930202174 -0.9462940042906414
Ni 5.990032917064477 7.266455690249539 12.761652788881513 0.10027945104805311 -2.4430167153279023 -2.204167916512662
Ni 1.6706726804864067 9.318086455799312 7.153699512313314 -0.6071310445346706 -0.16959947760011437 2.552782508599836
Ni 5.911866991727752 8.954100007080253 0.6083029327464495 1.1491656136803243 0.438856970614199 -1.3030726202458462
Ni 5.7690123443555725 0.10722440700761615 4.702071099594854 -0.42141126433392584 1.2486523936237526 -0.05493856101940861
Ni 1.801866858977572 5.384022221165623 2.447287715121497 -0.6543673518138149 0.20312434883043728 -0.9477687890639549
Ni 4.349150973448962 4.483811777823672 8.603260783369803 1.0564868577976643 -0.8759360233923689 0.32617863168116085
Ni 3.6498936027146462 6.151240289702483 7.007930674626197 -0.7597039056698013 0.045314407666083245 -0.9859576414288502
Ni 6.524477253479772 2.881285176203102 11.599518368120776 0.1925519726312297 0.5806538241797484 0.06499671658635903
Ni 1.0146369046584287 4.326367640770476 6.001183588021441 -0.14213855317568425 -0.8710146748313514 -0.9166592121433439
Ni 0.9295933418736018 8.216978554168714 1.1217232027738928 -0.9134237359251817 -0.4117778550092198 -1.9707312898519285
Ni 7.636031378026828 2.265440014896651 8.239226135574288 -0.4112132407550015 -1.33863097696643 0.6382820162161781
Ni 2.698110147565091 7.8952311807205495 2.7452822129301633 2.886002877619126 0.10241629488539782 -1.2843629596514847
Ni 2.14171669325612 1.920770272972532 5.664239601909982 0.17743928535950731 1.4881979613957015 0.30571959249586056
Ni 6.583928960477252 4.734270863383216 8.133925057098319 1.4797333755681161 0.5198384926645886 0.6958605859615952
P 0.8230993362553528 7.546649898360988 12.510664440386273 0.5900501777929837 -1.510751164105869 0.15208975085112517
P 2.738402721671428 0.9462034851444912 10.188728619546321 0.9993116941382532 1.5957466924116583 -0.3587107999809112
P 1.3362174351496316 6.720832875717786 8.925377065133917 -2.5864950703609324 1.0886500727937702 -1.5197258568006538
P 3.6440726373273034 0.8491564985115604 6.97752910715176 1.6401308749539882 -0.8692146455081353 -0.42827739532613984
P 6.931397956457068 0.5583038061661865 6.521053265240784 1.6476248693381885 1.5693987985457487 -1.930047181869005
P 5.322447900993458 6.740557420851967 8.301427043740377 -0.1831957282273103 -3.004742849365212 -3.0286188846518614
P 3.9254347461374857 6.280126473955673 11.90824457568337 0.3527360704547151 -0.3134359873035118 -0.138433079299639
P 3.1996586142993673 4.121178610866639 5.820495446347481 0.21413998321465053 0.5498643496027176 -0.27583848866571203
Ni 1.9628239671801353 1.6213613176509538 12.9343102228937 -0.295425152548388 -1.7963693578661644 -0.5502495008562781
Ni 6.687566243910184 6.299813942877195 3.714858542534406 0.644250060874155 -1.0344447903959604 0.27212298748733776
Ni 5.727079147839108 2.9485414259651406 0.617146536370755 1.3503264110264872 -2.797010826559435 2.6749806140978514
Ni 5.44269532769728 0.001107651853164776 11.805466533478791 -0.4424868540573024 1.372855702477255 0.8270351839266079
Ni 5.5388988304922355 2.343485442542236 6.880204975829209 0.10612022609954626 -0.49252874910604216 0.10890010283752859
Ni 7.595692458654668 6.64697706010258 0.8733079434371348 -0.2959465722694967 0.1499091982600386 -0.4294593314493829
Ni 5.340374249813715 7.697828155474941 9.962715734802984 -0.5381270065611313 1.3790926845259024 3.817700215042515
Ni 4.250611669256537 2.524426629367588 11.365745432068072 -1.157948759189593 -0.5968525454267979 0.22021370021255623
Ni 6.931194037287448 8.160085105844653 2.5025423948460648 0.030744480271708348 1.2004601501892422 1.4565021729543175
Ni 6.181299829115147 8.743266123799199 8.018870153977284 -0.8982187460499692 -0.42336787383966445 1.310048794453363
Ni 1.7664776139952862 4.609527945894583 8.166945132091742 -0.27500005192481675 1.147903716248765 0.0038342861444256547
Ni 1.1622280381976984 8.797202744163766 10.655189085526159 -1.0676487879517549 -0.5342672664954089 -0.25888000643450254
Ni 3.2479411122335544 0.8807658236133389 3.9323383369344493 0.2385109558598473 -0.24505492762595218 -1.4749516379087566
Ni 5.292091751879528 7.17724105354066 5.416209008279553 -1.0284839448268353 -0.234747375052357 0.28384181858616275
Ni 2.5884479795751956 6.699078407940567 0.2808986561519543 -1.2556907885277728 -1.1024669240722045 -1.524530991498781
Ni 0.11729245255495993 1.832806958440869 11.198325013093863 0.46813206542923247 0.5830002129247379 -1.8960507703189022
Ni 7.467538529601478 6.715771972689937 9.498928463755805 0.6108727709652899 -0.1901096817383242 -1.0623757124782736
Ni 8.940261310705568 9.377871848710717 12.44522121742322 -0.9601044278111722 -1.8473013688293414 1.8519604648679073
Ni 3.2316553858234247 2.773384128314473 7.657493870629364 -0.5767213218945616 0.22426138791936862 0.2875295518503951
Ni 4.552384233135078 5.132562077864306 3.5691036084270356 -1.567428047972623 -0.3093093667296479 0.7509248739255906
Ni 8.500213011718138 8.435468675363694 7.697147806972662 0.1879774658866698 -0.013447383754157487 -1.092164770815248
Ni 3.4544370786335947 8.986106047657474 -0.07719082094381274 -0.37068597006491644 -0.7548303796275839 0.5442524027325788
Ni 9.125725795475224 1.4667998561319358 6.510471714148124 -1.0127701336360042 0.2978281055629258 0.37495425842296715
Ni 5.1484306968820315 1.035325431321724 9.738589102378636 -1.207411641806411 -0.5014121676386011 -1.4593291008801512
P 0.9235360156305625 3.585612719018431 11.8285158879831 0.8373651050977062 2.0053373099615723 0.7255321448840989
P 1.022089223402734 0.12285851898027747 5.21511689987445 -0.9701543558480066 -1.5975924873711453 -2.441413632506841
P 7.085783305965959 6.280691886198712 6.020555909135369 0.9400418527333424 -0.5695343172278191 -0.48643831993758807
P 3.678887201013386 4.775184464051579 1.514706957412958 0.9679483493356233 2.000565599604542 -0.5346452186601179
P 8.846569721318208 5.779022921773295 2.3878536193250297 0.5131276563033164 1.0195442191350441 1.173029050561483
P 8.208154415556054 9.083153034290406 0.9950384186472856 -0.7952704899205013 0.925948864975386 -0.37059392457174245
P 8.903157290887837 3.914293344233686 8.047942539227922 0.9127598770889377 1.0392378409092295 -0.30745842956383823
P 5.894728512426483 2.986729925003123 9.367878882494004 -0.6348557641434486 1.0075147987743358 0.8715409796484668
Ni 4.660424316821175 6.758687688841844 0.9724043177247493 1.0246195767754225 0.6471543790051435 1.7158413784134257
Ni 2.3596414022080623 6.249482984193642 4.489230466303673 0.4889250909151838 -0.8079686542134601 1.0417546937938125
Ni 4.970307302218705 0.8239687734421884 2.1980762441179036 -0.4467237749567855 -0.5571398002182083 -0.17827232278376395
Ni 6.497569192143057 3.7080012970032654 4.1947628432241215 -1.1720384045134395 -1.243392173666078 -3.2215698924937226
Ni 2.203902770937145 3.0813854959195974 3.4848164003804363 0.49536287612072755 2.4508932898625018 1.366757302889001
Ni 3.161562805793031 6.186991027758187 9.435791381220096 2.288803747486187 0.3499397386565006 2.2356248494703626
Ni 3.5499732096007026 8.324045387272534 8.296813835980377 0.2254690350742246 0.4700516510494485 -0.1840321080856766
Ni 5.466266529894752 4.7381824038186595 5.933040289871554 -2.49011135482286 0.4646469350941095 0.5571575408300211
Ni 3.2739593444664705 2.780521299251183 1.567438600866133 2.1485822088275577 -2.902924078854497 0.20104304082137633
Ni 6.056677409317654 4.950017344841486 1.8167854000459291 0.19781373525080126 0.1323709322659591 -0.5979236670037896
Ni 8.352964833145958 2.2799738902586792 13.378629701579356 -0.4837324909706508 0.32864123428904046 0.2738394559578123
Ni 1.3075667918179803 7.053100624507725 6.441311600866085 0.07379477449396324 0.3526167712680314 0.4624720389299778
Ni 1.037883689995142 3.014537084496799 1.0817782181612268 -0.7027526850957381 -0.09594868488318314 0.9593793767196895
Ni 0.6552228798654461 7.811207213783824 3.2964367983905256 -2.5484633123991913 -0.6375986169959084 2.3022043371628094
Ni 1.1673445555445348 2.368548962299203 8.890172274309608 -0.5519592844585332 -0.9552573841315162 0.0013827392801395541
Ni 2.6124826344308967 3.9181492703501424 10.280653527400515 -0.012685565887468475 -0.6961716894441108 0.9905835702366359
Ni 5.895720301115091 5.3210575430187745 10.696593019106926 -0.37525764859599886 -0.47312797598192713 0.2516217822101925
Ni 0.7305951125783724 1.4431081562433234 3.4228870754720697 -1.0814766949737826 -1.0509808403777707 -0.41463589328330525
Ni 8.38914194764723 6.179622130492362 11.766517972081315 -1.5257764338701079 0.183703006881032 0.20344547961528187
Ni 1.3894403384205283 5.827852293844192 11.119207155997138 0.13949931578062427 0.14316108090292767 0.27594647499848607
Ni 7.694760098877472 1.40032220683572 4.459818833707212 0.3654648308752932 0.9020784861156916 0.9572541028465708
Ni 0.3140503517003153 5.488521526542859 0.14695434958686454 0.5518093891442303 -0.9167723406824404 0.06150875803775858
Ni 3.3090056344816676 8.267402203383915 11.000570690733316 0.8270359552575562 -0.795419613903856 0.5804190824611231
Ni 7.362325507130571 0.9269423926685378 10.679879062440595 0.587775522826194 -0.8973738815511707 -1.0636532936391168
P 8.686919549611845 3.483069183858917 4.266040008248945 1.0279414420598039 -0.7206362502443783 -0.7960793589750419
P 7.15572758114572 4.326914514907185 13.195933882989952 1.6811399703764982 0.834829483160046 0.10897929281489618
P 4.603113761104709 1.4546388583800347 13.319400451857826 -0.33168079244631266 -0.03984515702139589 -0.6507845195585631
P 9.234980125125878 0.4688389050218649 9.095849783315218 -0.2522092792825463 1.7790648051494458 0.6129391665760153
P 2.016992313873817 0.6715475362988671 1.6029140480428488 0.4438173999432679 1.3035413323521485 0.40872826954961866
P 4.757369343869295 8.091382883788944 3.35331912385079 0.1597189852616088 -1.015259475716761 -0.07338211243657686
P 4.784184714674365 2.4020102442232605 3.4232532030720697 0.029645847890890874 2.098845760834379 1.3562497184894577
P 7.2195450121837075 8.05982175776362 11.097690902886246 0.494098150475691 0.0750625854627933 0.9006204135129264
