# total energy = -340859.0026890992 ev
CRYSTAL
PRIMVEC
9.43266472386768 0.00000000000000 0.00000000000000
0.00000000000000 9.43266472386768 0.00000000000000
0.00000000000000 0.00000000000000 13.80565829174565
PRIMCOORD
 96 1
Ni 4.462159768419941 0.7272839167971356 11.288624490782292 2.6205796707494673 0.4191219540791169 1.4242649101871665
Ni 8.66709077038867 9.278959431679128 13.215991436884593 -0.8195015945537241 -0.0854038194878013 0.34267534378460335
Ni 5.244693632182045 6.001287668010859 4.141586885422103 0.19507371061181888 -1.4224695088496404 2.3244104409462034
Ni 8.557671859833698 4.358362726027967 5.985525685292121 -0.04818607278692347 1.087841460849546 0.25355242357400204
Ni 2.178162635226058 3.1848449103259013 9.194761580007077 -0.6681947446152106 0.5314477947687427 -0.2105995741615599
Ni 6.029991266702132 9.32230252598948 4.694931521829177 -0.5553719096845081 0.4521220631542213 -0.04285154794788749
Ni 2.3155493966254674 3.956389719708993 13.765331907125237 -0.7255151756032344 -0.841755520855918 0.28702124475540897
Ni 0.4411817636899951 6.970003467681067 13.432450339956436 -0.852892511309344 -0.16836457675174873 0.015383167324289636
Ni 2.087693948059443 5.970716401708387 11.113016572006266 -2.437563919743447 -1.9307807176009197 -0.30547508058522227
Ni 7.057425404148608 7.574099613256242 3.3891234134667405 -1.1947885537257616 0.4170614720056624 -1.029994982154723
Ni 7.925645594072899 1.9550612496703528 5.464749210305146 -1.476143858444645 3.0679583056814326 -2.1125610535379424
Ni 5.449212668272811 3.1364081770759205 13.206617254702737 0.5980200833723379 -0.8592613909501653 -1.1362877292763915
Ni 4.680054323059582 7.211366492101809 0.32580423884212956 -0.6590418744713488 -0.9326998105459744 -0.4562743947596981
Ni 2.9433592612640207 0.8700755950713729 2.4914516145402272 -0.4320728578128301 -1.6245181081173956 -0.9479258834671094
Ni 8.654196317739649 4.6375601685725005 0.3370159041081329 0.6717071286438432 -1.1105769547738487 0.545574463978112
Ni 0.6357851826449519 5.618208289092023 7.45879660645953 -2.414512437240622 0.03510095746819116 -0.11674788101672152
Ni 7.412338846264241 2.959036350000431 8.277306653398933 -0.18351197391614846 -0.08226630230008414 -1.207034203862334
Ni 8.098734991373219 0.8790441726709993 1.8049932138442097 0.9466696424625052 1.515057247680391 0.49599228217461033
Ni 6.95877859668448 6.864150104383836 10.522162001141185 -0.5038351752577968 -0.5629245252207853 0.6435692327570465
Ni 7.797040643511995 7.6597010454361 8.55223298536594 0.333612976472019 -0.6779155714474001 -2.1614171558086968
Ni 2.8704824937685287 3.078661403764064 2.590755878734156 -0.3538871533400228 1.0864566646868772 -0.004126877684179989
Ni 3.2547220904458345 0.9215194618286748 13.53584083449971 0.5582595156449482 0.409296740458579 0.9150273329668757
Ni 2.7197485118143527 9.295315672274155 4.561527231467379 2.1071463102802745 0.0649668917896881 0.7598622856245365
Ni 9.190122595506136 5.6191987188858405 10.050340112696386 0.8250970863636307 0.38146994805429785 -1.113868481040927
P 3.8382267289743273 3.272200818140521 7.7313619424513735 0.4217501357305833 -0.297290745002217 -0.9177586158551096
P 5.0347791118811545 9.173049472393679 13.761452252132887 -1.0146244132359237 2.3034348671358007 -1.2867525429295839
P 4.575757349438348 1.482135739455302 3.915905666070124 -0.2123201563970924 0.6420180862198428 -0.5739710128429342
P 2.6748395951632995 7.015167066279102 12.621823170909343 1.2220749002455407 2.855089475869722 3.8055977753520267
P 7.580825103189491 4.697900924677685 4.137859096331472 -0.4476740546851967 1.6547481106465305 1.0010207064095598
P 1.1691693572739756 4.830175181808062 1.513514441856351 0.0059593029072284465 0.7298554548498011 1.2397658897674004
P 9.197640429274436 2.3822194707463757 9.214034400528277 1.1372076699874996 -0.46367068722376914 0.49711893957988584
P 4.276760743682186 7.771685640790291 5.198065140755633 0.36754459622245733 0.039746169549686385 1.437504548805892
Ni 9.194291833304867 6.447254622504692 2.682715870190317 0.6497331954759132 -3.001811277540714 0.2778362358220312
Ni 0.02131027609705093 8.403504387927626 2.0292387816283908 -0.7278615643482239 3.1839050309530976 -2.141304701329538
Ni 5.190125666875105 2.0201372034564513 6.013993467365819 -0.5667670388953272 -1.7625490668826096 0.1264111151380984
Ni 5.446458330179531 4.248085442985022 8.738263998638796 0.5735861186996896 0.9259681482490957 -2.3037305439993485
Ni 6.96025009237815 1.5004728396379627 10.261386552761639 0.12013016722539309 -0.5195613277438019 0.4657381112757592
Ni 4.198130050717855 7.835025984271035 3.0277193547689625 -0.12361375489861935 1.9233594854361844 -0.48832345277544287
Ni 7.086694962722063 5.6300179853001975 2.016067951903571 0.20027608074836478 -1.1624849564970496 1.1108739171889772
Ni 1.267155878208893 2.074290131516459 12.653880081902537 -1.9324105398948592 1.2250733207522322 1.6774995454104338
Ni 0.22171950017671327 2.5930017961999434 6.759167376038692 0.8214363496825917 -1.5786252022400233 3.2067271710539353
Ni 8.030536825570422 0.053518109725494804 6.2161769756761185 0.08588127334485209 -4.188594444463496 2.6515133842138465
Ni 0.5243571145082386 2.4946191033474996 1.2823962345695539 0.36737130386938666 0.22338387041042174 -0.9383117574161132
Ni 0.9781673297026299 0.09064413473009056 7.775733197214355 -0.19319397709060276 0.0980068529637925 2.250044881550435
Ni 9.332150227939428 0.8909180109991544 10.882958596232088 -0.3937119986464445 0.5469942271437741 -0.2800805517715176
Ni 6.833635434069583 6.271307127799359 5.731999239736842 0.770764277249021 -0.8009305164197561 1.1218324730830098
Ni 4.840881256245983 1.6910598299623758 8.861630990490116 -0.385795057792213 -0.06357412520721954 -0.9507610389230593
Ni 0.8523006817050119 5.465380255573778 4.625944785257208 -3.108707976794969 -2.7600928704871626 -1.476845769607676
Ni 2.2951559755375497 1.355389023840893 10.92278802294057 0.5398666149600573 -0.5601999272007707 -2.910850018569793
Ni 7.907308493890237 2.487280490208554 12.469505444551531 0.6569716222058815 0.04827760405946525 -0.09916513493795179
Ni 2.4166298315829735 6.805941130501531 7.860568697020329 1.6168117406120737 1.3096554156696865 -1.2162639499907184
Ni 4.207732503385524 5.574035120287805 6.643544601908548 1.3141147369926207 -0.1532644878855167 0.4390066088181858
Ni 4.312689763535969 7.718023211294841 11.104595088959416 -0.01661138330443591 -0.7910595371629473 0.23583212347610352
Ni 2.2803938552773317 7.013855925885383 1.0969755147029818 0.5415465737656416 -1.0696321369303707 -0.42345452001619976
Ni 0.8492284628112401 0.3988272126405183 5.610384836987343 -0.8921257457783539 0.4438881052802032 -1.2640741274954617
Ni 3.4601466623480897 9.181359649997033 7.2003821540551485 0.6666870497214324 -1.3905158387611793 0.7929148452041311
P 3.601315922293409 9.24836930004725 9.614895295678764 -1.3641268072446895 -0.4366951870761899 -1.5686665483654143
P 7.692338065308531 5.352301471114037 8.023917924748316 -0.17848983811120872 -0.040774610814200744 0.044768562464942256
P 6.575784111747971 0.9734415646864195 7.483274371363853 -0.6139892051070844 -0.11722302088092715 0.36743712411031554
P 0.8155566796208882 7.820820391228295 6.488382927142777 0.015883246889159743 -1.0814059896368473 -0.11695279793867601
P 6.776539514622235 8.837765405525019 11.293290830010873 -0.38223793656857397 1.3984476920137463 0.21780483366074746
P 5.0073772209188965 6.138287690157444 2.157369269154732 -0.5581057636759034 -1.15767133715849 -2.4083294483583617
P 3.5706597620086105 2.6274121570365416 12.177073973428667 -0.5240913544036717 0.6741432488891616 0.12095626267111426
P 9.07224258471256 8.393345408042478 10.03432533456361 -1.3911545007864428 0.11940305925138146 0.27200214563875735
Ni 1.7769159440892162 7.792748781072123 3.1417121644384256 0.4538310754255281 -0.8792753721782469 1.8088803458489813
Ni 4.795576167677403 4.101501833500172 1.3723498982433837 -0.8317390171601805 1.015223480272503 0.9468627323099176
Ni 3.123230744485809 5.390975396396398 3.1533228314213666 -1.0470339399148805 0.32274955139495387 -0.9302531487776947
Ni 6.2657135576304706 3.886248424977375 6.229499671302657 -0.26881629171160804 1.6397760627177307 0.052634338366264195
Ni 5.93499490047807 3.5439464555696727 3.6992816913659796 -1.380559755989732 -1.132553973265572 -0.28993173353398455
Ni 5.011225748117727 1.7613048840057268 1.5472135797743416 0.8116569016983248 -0.6441395034382197 0.24027473262848942
Ni 5.449589974860932 6.529988524614835 8.742294576266396 -0.5677075484317254 0.2683429516196153 -0.520948952119948
Ni 5.845271393822994 8.039205444432492 6.875770204031479 -0.5384622784133629 0.6585402522445819 -0.3380046777818114
Ni 8.17145140356876 5.659193217226622 12.14097233581082 -0.09455103320470813 -0.16851935716205818 0.5475812099954956
Ni 6.497700513336415 8.944816717239533 1.3510924450686694 -0.4023637607841716 -1.4849028355841976 0.13751699524327285
Ni 0.4645709990875905 1.280578560081283 3.4289669891722747 0.5441613856806694 0.6298881357255282 0.1310151895690131
Ni 1.4594690461739577 9.054707261029655 12.405074685031119 0.5454824184849381 -1.0285585068185126 0.35659735318233426
Ni 8.639264409514777 7.4084808864007075 4.931395220203172 2.604009682205928 0.038246702186024446 1.2113017208894363
Ni 2.469443321255153 6.4016759866597255 5.283370387263816 2.900498757242456 2.8889601604752375 1.7395135252193847
Ni 5.788137743716834 8.961333313134512 9.146469166527053 0.08300780845179898 -0.44378037605774545 0.5389844694654201
Ni 5.031298458605741 3.3104502735112455 10.581926421433016 -0.6684528833726037 -0.9870223352479389 3.1615770568798585
Ni 2.7530080875571827 1.710208139309496 6.37121508253428 -0.5401728333465665 1.4502934730404444 -0.13860714298365806
Ni 8.959022310282274 3.951484734063425 2.7851810203262257 0.4794174085350646 -0.5766889259947294 0.1410309219338023
Ni 3.9556917025209697 5.158139500867182 12.902989210577395 0.7828317499365164 0.8011891693977815 -1.4136799355824687
Ni 7.412310548270132 4.0319453639801415 10.456654031311688 0.27207876451296364 -0.18903367506532606 -0.3459218757463591
Ni 2.220534165072 4.109689386462389 6.694349877265457 -1.0954033323572039 0.7742339809651763 0.2387780934783049
Ni 1.5390901689321053 7.942416871914858 9.684199913051227 2.3313683603212754 0.11551092328582686 0.8774835703851469
Ni 3.687747428967133 3.778112356822014 4.968656132313022 0.4976889531507428 -0.4083765426371547 -1.144570538110474
Ni 6.239971815655943 5.373675889331069 13.680440754597514 0.6281091894482344 0.6129201404126218 0.5143602431588368
P 0.6521885865634945 4.278694439946304 11.838890305430303 -1.0845257662127514 0.23575010528525853 0.4270198687699549
P 8.278568743936194 9.340856577460311 4.02314846087811 -0.1770641614082757 0.7822578797109173 -0.8513573056117403
P 1.3435793276327186 0.5396191659977165 0.85989774985682 -0.7967198207725182 -0.42286188073752334 -0.43417627730907804
P 7.505684496165275 7.165712394939217 0.48439468722744633 1.7155675559267487 -0.034141421768399266 -0.6594169984225805
P 7.235721632364993 2.45719972247064 0.7145686847774717 -0.37930842162660483 0.7260998444621108 -0.2042746603847966
P 2.924012865958137 5.471115315713211 9.378349533121852 1.5585387159027932 -1.202968775543709 -2.0379959765368576
P 1.2013158785818498 2.9576874789479 4.995453389467816 0.890526262501718 0.07053975789177529 -1.8574528554410463
P 5.8987263046949785 5.082744211895985 11.65481939988273 0.17497616853099543 0.4555663129490799 -1.0615997535441974
