# total energy = -340867.68735722866 ev
CRYSTAL
PRIMVEC
9.24822304778595 0.00000000000000 0.00000000000000
0.00000000000000 9.24822304778595 0.00000000000000
0.00000000000000 0.00000000000000 13.53570925514472
PRIMCOORD
 96 1
Ni 2.170502486807394 0.39782526683043273 0.9455235389366964 0.1252078388586166 2.712263923929342 -0.24283246605333667
Ni 4.646492281105485 0.9506710999487249 12.488803332575399 1.2745739985855211 0.8264901100564154 0.18217268627943461
Ni 8.008304634539611 2.7964314786419155 4.388317958489807 0.1343239422272719 -0.5254422120046112 0.10315291594110622
Ni 0.13014562044874198 5.899136363743307 8.538853001614065 -0.6637899306792956 0.3233995262741269 0.9306390713622038
Ni 4.614428691402463 8.793922695714224 1.5707653877902736 -1.407666639508853 -0.6841049880875638 -0.2541915998198977
Ni 5.375280010948955 2.040342994023909 5.401153764889578 1.2464260753963954 -1.7537052433387346 -1.54266832452944
Ni 7.711233210126431 4.402274452063742 10.386708102853474 0.3395308846183507 0.5294438769648366 -0.7263291868640975
Ni 5.902077298708857 2.8450308913587845 0.8248906408324971 1.581694585193966 -1.1478744056727261 -0.8451915431206606
Ni 3.635106596097532 3.50834120121454 2.3601946417299904 -0.5245497820973289 0.17314065798415343 0.27065308781003067
Ni 4.923402579025274 6.365561250700981 6.034544223171289 2.0691664886023915 -0.5113178567880872 2.2901947142964425
Ni 0.867285420629909 8.60137468947917 12.431520763131628 -1.3667249069891687 2.3604053709835733 0.08317595859854707
Ni 9.155796419824284 6.46706974812826 6.3494795154443935 -2.123110546919014 0.6734806756044982 -1.3564703191406962
Ni 6.604572330102458 0.4230340735257022 1.1130292064933995 1.0871691173728695 -0.045653021952424606 -1.1024784940364305
Ni 5.161831020367538 8.72918513357948 6.633769895447545 -1.1037540183147443 1.44880943229575 0.21877568221444904
Ni 0.6107267626006512 1.9278291110337225 5.967041442311073 -0.41624668941385085 -0.11635861599810284 -0.33773754016335383
Ni 1.820947395949259 7.496822404336156 0.7933551246720306 1.1505833199634572 -0.213305146018181 1.429352866233035
Ni 1.9594210413554778 5.784476892979513 6.874232021063156 2.219307857477894 0.0932125168989427 1.0778326704632921
Ni 4.719645726317746 3.5259590663383524 6.83759056089489 0.8917490791652255 2.2097217564513554 0.10627294962732665
Ni 8.541261238925477 1.3730929411010957 13.500719865592858 0.08630833357994169 0.3981134701482499 -0.2617457580180718
Ni 3.1260936414783593 7.1690468790247825 5.209921780810492 -2.223722698716138 2.642240700662669 -1.1089095943737548
Ni 8.975160125022022 4.7179348050327565 -0.13450060873577785 1.4735498724652234 0.57045605771114 1.3447676859917872
Ni 5.963540989844216 5.968054122747324 3.9490569526038732 1.4300614622642855 -0.27374766757495433 -0.30011972981057994
Ni 7.052879947885564 8.961592981643212 11.646950525641282 -0.5232611451928924 -0.2181406197336114 -0.42484265861297804
Ni 8.467071992719061 5.109476829046855 4.815477664368126 -0.41529049614816865 -1.0749401794068456 -2.3964419528921566
P 0.5123543376476418 5.473237190681985 10.572350460853382 0.3459231612979397 -0.6346847857832231 0.9511281924544909
P 1.7812447739143364 2.0151323376840065 2.9556303921544145 -0.0711845905646258 -0.7265487590740712 -1.2765388356213756
P 4.641988396425539 2.7330719017583247 11.251206109022323 -0.2117061769621773 0.8060392984012311 -0.6353170200505832
P 7.788557603984803 2.014447969170011 2.267434038591747 0.49068141148465816 -0.30416047553885683 -2.117437150683321
P 1.029530698852006 2.1566763931800446 8.15473730079914 0.3768856711177251 -1.1000354318125767 0.5752357384879707
P 1.747562745157945 5.2808186595711994 0.859167330338212 -0.2947816054271181 -1.0033439552260979 -0.5249809560974765
P 0.8733633528920453 7.574174542864014 3.432277340173164 0.682723791469321 1.30083293228205 -0.20278110655840562
P 7.782592500045244 2.894240686804352 6.398830808704342 -0.4055532142557467 -0.7647275841366378 1.7510001857027457
Ni 5.204123144887851 8.290005512057371 4.028308676169227 -3.2888618328721617 0.45159730099900297 -1.7739858479646415
Ni 1.7266710090347468 -0.159619707666375 9.182409106795562 0.358370385922357 1.809049524436994 -1.0863044553797292
Ni 0.14837201865662122 2.777870294755568 11.54383468702843 -0.15465622602672074 0.16910248335903783 -0.5084536478664147
Ni 6.410405884814034 -0.022010771125813174 9.099245384832637 0.21404613794926364 -0.052070238332678064 -0.9137718632932198
Ni 1.457538466794289 2.964295977257308 0.6100201983510662 0.40769597163036236 0.04175394400833454 0.7026349285709512
Ni 6.442404736954922 7.023248640874176 10.210554421817884 0.7451897712140263 0.3447617939999869 1.4784712210262407
Ni 6.767590759780907 0.6091758355763659 3.474928295752166 1.9150699917338823 -0.37746185533616927 1.5053821864844719
Ni 0.6780935945803827 8.720205108889074 5.70802183209838 0.6666469405121164 0.4827922385445685 -2.0582760669421325
Ni 3.7253230130438797 6.006341766638445 3.0294136413640156 -0.8333387575471325 0.26419884754425466 -0.4402613071608934
Ni -0.32780881891475777 4.029145640365399 2.535901633586849 1.4007627133001683 -0.15914022994000335 -1.0665689246240146
Ni 9.126174361036059 -0.15140728549842453 1.893009550828392 0.046214036662217184 1.0191968630979544 -1.4700421164222812
Ni 5.658654816859055 4.876514087593395 11.760690723022764 0.48255338306088513 -0.572479258788756 0.10503933433054166
Ni 2.491628539665214 3.328574239389516 6.8023169129323 -0.29067375390633166 0.809402044225877 1.1388266936481615
Ni -0.12429889376565832 0.8584700143117892 3.8620894364543736 1.7000080109255946 0.11627274115251589 0.4988870872239021
Ni 4.054957431210838 3.6454368613696047 13.362723428501802 -0.22655841148366146 -0.10689695636457074 -0.4029592282763254
Ni 1.3462823421541494 6.579222950415124 12.253891065679367 0.5065926833982759 -3.512110977476932 -0.5596270854164361
Ni 7.742242502388974 0.5039014616774766 5.987899884830888 -1.7551167789742808 0.5341551663975769 -1.467520378441692
Ni 1.5865974210214835 3.5817258520058544 9.717650947124785 -0.6255758815034194 1.24590774099908 -1.3342665293501472
Ni 4.645419487218681 8.93005654066043 10.578563417173687 -1.0396903550656158 -1.1246853691507728 -0.6367951472580066
Ni 2.746065655301084 8.858891463428021 3.1845331636397094 -0.8035113897730549 -0.06638691206566631 0.8492430874822148
Ni 3.668899603531869 6.1540173940909595 0.3558512811868967 1.1218268166560552 -1.1771469293845984 -0.40780498640440094
Ni 2.4500947694441937 7.185638191377601 9.918913554045492 0.8009348872951304 -2.1072712658939126 1.1109993870232477
Ni 3.7587738362212186 4.726230461209166 10.425312035976738 -0.4383936578245354 0.45517216283445483 -1.652253369249135
Ni 7.747569478930347 6.251105240846752 12.12937668831403 1.1046721592536395 -0.40183565619484346 -0.9127861023411828
P 8.301112628075062 0.41362585610289143 10.037770793302569 0.2452269344274422 1.101342066439142 -0.7060267278613196
P 5.277674263696083 6.790008452725853 1.7766299105564454 0.09151507459186176 -0.3335908649848319 -0.38612801565159954
P 1.3413900321013952 5.738023068036253 4.679376188202987 0.06882354653161694 0.3600745130976573 -0.28005921161527897
P 3.6371504534163575 0.2776159373470578 5.129113581286955 1.1206780477635925 -2.2942141198684807 -0.3119061809225467
P 4.1031869150012215 0.3661029365620916 8.515923881928254 0.9913998954903441 -1.095725748693629 1.0331067883108271
P 3.5290849657671446 4.827720462190122 8.189943436732646 0.3460242056521783 0.5113381685030612 0.38519007721836246
P 6.621875755638759 7.78819692328148 5.28894322361911 2.456250954629989 -0.9135543479657751 1.9578004407228735
P 7.57709698138324 3.549726999864966 12.456142307656103 -2.048011708901647 -0.8910548813116784 0.13022431823660152
Ni 1.586199747425513 3.6386949066844294 4.33792439047949 -3.4110131442926415 1.3972001927598903 -0.9893239867979219
Ni 6.810826203063754 4.799855565802695 6.469771154113912 0.05598011491004553 0.6980861328580041 0.99007192070754
Ni 3.3756199506151514 8.233868797463385 12.672252936863574 -0.08263962647910283 -0.516728229170381 -0.8558269113473197
Ni 7.894163064272894 7.743814700326531 3.520245514068803 0.2207873133278391 -0.7122356848855088 0.8042793782873311
Ni 2.7322858027895456 1.006567360740496 7.012499431092859 -0.5631422976585462 -1.3885139778398021 0.06762027025213514
Ni 9.690288229255062 4.039050487372014 7.164640100688039 -2.957127047259462 0.10893918360558012 -0.338745669712894
Ni 6.767507525772448 1.8489140227914687 11.121751330843791 -0.03324744919922016 1.9808717207200404 -0.7798592975717537
Ni 4.916743858348557 1.5770809993876762 2.999607542934863 -1.766288479320384 0.6323383970382336 -0.5173761471670251
Ni 6.32481357944874 5.26800062226852 0.4274954163791024 0.5483427707518685 -0.4885299123592941 1.5505690674337556
Ni -0.2915863032557357 0.21114433336941824 7.847422544411609 0.2146230934986562 0.3394372964632799 1.8055304555401421
Ni 9.13935307904206 7.697860279434026 10.251621156769218 0.14373495112852663 -0.050566400093641946 0.2661816823022383
Ni 5.89295855067102 7.41600218212251 13.033832567477077 -1.6048365705280683 0.5238913225777235 0.4304165531563297
Ni 3.3806879769079856 4.850767034310091 5.178491694394073 0.8133939389940896 -0.766693449613757 -0.7951833295233337
Ni 4.7152528203157456 7.0108005324979805 8.67163898977559 -0.9808522018814849 -0.29837035121964095 -0.8226229137915251
Ni 3.0028518196201297 2.1798616886474456 4.91024143264328 1.5483232088223722 -0.44949311017180654 -1.4095988235345596
Ni 8.097975406319396 2.6172564030992667 8.56615468121092 0.6413863661731147 -0.2296913006856883 0.9527572434174817
Ni 5.562621267543743 3.603357445982021 9.129537939800116 2.2767090211051824 1.5899709662701456 1.05145109514597
Ni 9.043744947992204 6.943270006968279 1.412315580353905 -0.5022346635398963 -2.1272122277922136 -0.8945919479306593
Ni 2.600036211571424 1.7474332700336754 10.772150923692163 0.7149978210116783 -0.3723415033904684 0.7276754164793467
Ni 3.745678352223676 2.4687854284548107 8.756656055660201 -1.3961619813033632 -0.7833824802336637 0.7325327445716481
Ni 6.57367401651786 3.786583243269672 2.783401657028824 -0.2741323046078827 0.9771721819267363 -0.2784651276552817
Ni 7.302572725039274 7.666286845558594 7.334649262254724 -0.5384751339291693 -1.2471279865594265 0.6500869792709062
Ni 2.2668782203797044 4.116245406106116 11.988333886513379 -1.8633936464055132 0.32002109672019724 0.7418594212892127
Ni 6.101348763182763 1.811107286504778 7.637943816033686 -0.022982319827786223 -0.6294358786794578 -0.13800704750581394
P 6.660977243168144 5.730125085455814 8.615059285292139 0.4571693957701417 -1.103861490426886 -1.1651540186887805
P 4.080177335773901 1.5981299553046302 0.8628582962022087 -0.44570664654618075 0.7526017474073813 1.497658592587969
P 1.4346028733522653 1.3868912900589585 12.536259664909432 0.18403930717452824 0.48284520326969105 1.0297664110836844
P 5.140282660399831 3.911933660008862 4.272153801817538 -1.4476274961725069 -0.2790852777377839 0.5914210899985815
P 8.07050818352794 8.054379282333226 -0.3770926001456226 0.9392599802619952 0.8327096086035659 2.669563042626706
P 7.663873059313285 5.801012715993359 2.3940745824620504 -1.6557642106158708 -1.6276844216605193 0.7073439040108462
P 4.479413881458871 6.68321921987301 11.219479154642402 -1.0014750203381593 1.182894373391337 0.08081748566869952
P 1.1055603414676825 7.7344185055938315 7.429087493074574 1.2477144551905157 0.7515229125209058 3.4598036834327828
