# total energy = -381164.0953828559 ev
CRYSTAL
PRIMVEC
9.29884770686998 0.00000000000000 0.00000000000000

0.00000000000000 9.29884770686998 0.00000000000000

0.00000000000000 0.00000000000000 13.60980356094421

PRIMCOORD
 96 1
Ni 4.834805536803326 0.12471707160142766 6.787154347589806 0.9700947062546648 0.5375760191536677 0.20424997779444823
Ni 1.518529681685041 1.3034287429592468 12.452248392013006 -0.4608802689628256 -0.8896888542020871 -1.0597732418584198
Ni 8.55706907066829 5.907148622306464 13.352142492177324 0.28897296916514104 -0.09445950193216636 -1.0074857453086132
Ni 9.209187942011072 6.871076445635816 2.6531359898027462 -2.891168738090782 -0.03346676429887785 -2.4823412239591374
Ni 8.982110087796826 0.954814952849009 6.573834138146649 -1.0289500858299763 -0.6880578020877246 1.346962893870893
Ni 1.7525909703184048 3.2167688887814045 3.79027530396009 -1.7773771330343777 -0.33028262654720536 -1.3101097295982855
Ni 5.987416273312908 5.937425669535029 7.0734091369569585 1.7105870719930218 2.5550574206769414 1.6567656552971919
Ni 0.35531825910648984 2.250823215559977 1.9481206248605496 -0.9574896158961446 0.5423909240438078 0.025586075999220453
Ni 1.9442960089130343 0.23192906291791204 0.7815718459397585 1.0697756044867706 0.4403456393445836 1.100248576264647
Ni 2.670452303484883 4.953709898876935 10.548182916616454 0.40632377387318414 0.10745925662594395 1.5585965657239222
Ni 4.24588163258749 7.058364531701708 10.80019563021135 0.46769214967833644 0.20227794166974195 -1.5093509413242328
Ni 2.8709447528998426 3.207776903317638 12.24803361397225 1.84946649480146 0.20787986123755167 1.355202765282182
Ni 4.501497649561092 3.6445437670540444 1.2926969431415296 -0.5362938100071345 1.3288741546899823 -0.1426208921287415
Ni 0.8369994858093263 8.008790428564266 11.451818872986168 -1.3755098522706504 -0.635216747027293 0.7453489224997099
Ni 8.731087701453111 1.1783127508031186 4.191806045134087 3.1379095380595894 -3.561076865852674 2.436212805032191
Ni 6.513321888502948 6.526210091039432 12.601997031008345 -0.6763813941910609 0.14386813427228126 0.39814509471713366
Ni 3.9947011658374834 7.2442112964161165 3.3003497191267726 0.09904429308937136 0.22024892432586585 -0.7892541085230924
Ni 0.4963938631048748 3.328578230266747 12.876411597944253 0.37726336617211803 -0.1651848934721865 1.3233861349922176
Ni 1.8594347272767038 5.239072928775655 12.919609393675303 -1.0821924900938844 0.11162701485038841 -0.5307541111358278
Ni 3.2116824192377846 1.6709842852821963 2.7931124700350334 1.1300540896618538 0.351428150276569 -0.22842091861369695
Ni 7.542416034614176 2.6765895427879705 4.038491298149757 -2.0688854670268624 5.225281236816098 -0.042319072483185186
Ni 1.3429767410744469 7.588752191352488 7.202443663419634 -1.1112084177102604 -0.9707606219734378 0.1775344161764749
Ni 1.5022659975318589 2.8007105582692042 10.43651398772729 -0.141270291638118 -0.12825048233968234 -1.0804755074027779
Ni 7.404635012259858 8.260826389277733 1.0178406809527478 -0.2396448123539744 -0.45351868639143184 -0.8192797083509052
P 9.016655305995268 1.7920552788067443 11.22415426149916 -0.48365304388296704 0.06628869592490519 0.4330779020385767
Ni 4.944736511108027 5.002919399470784 9.08389062233008 0.18345052455059374 0.3114752640327152 0.11891429254042099
P 5.803922116998015 0.2791207136196847 10.400788745790118 -0.5028131617511856 -0.45179938970747996 1.0964317736217182
Ni 4.286489699309587 2.8778630953869593 10.328860301157931 -0.11738062950471398 0.009377841670474172 0.31974521735099126
P 2.3813418380723084 8.977190997506927 10.49888786662626 1.7062241670386358 0.003068097402362458 -1.0342959235229219
P 2.699306627056824 6.3725745338188045 0.839207962073695 2.327799154912778 1.9672348466628957 -0.24713572141438087
P 1.2578364940152487 2.6062251642933276 7.667001062582114 -0.4796642344385481 0.10525196456198002 -0.38662578122362445
Ni 7.487906190985843 4.96091650563435 9.66263321849599 -3.055958453007079 -3.402092444764244 -1.0683496706735214
Ni 1.4565807601135714 1.5961285634793845 5.480722076911017 0.7786627061604913 0.7254472984797764 -1.3000821701589544
Ni 8.30194589260842 7.862221995389617 4.457305807039889 -0.3702493967481301 0.6186475298147023 0.9591271514995676
Ni 6.239442935178946 7.94560476028475 9.08764642680662 -0.9112488397610499 -0.10683396433711922 -0.6099500020407044
Ni 6.646899831819395 2.195950716881916 10.195674769202983 -1.3536117666459784 0.03530201773540372 0.7863027392042523
Ni 1.457529242551321 8.473119076079994 4.658376644764928 -1.1059623388199726 2.1401921849916494 0.1368258827135192
Ni 0.7689402915923126 0.2773753199572763 9.082488356137798 3.0251512378182355 -0.43108503997826403 -1.9180308741344194
Ni 2.6263943643666563 1.3185858642683879 8.62582474855773 2.6347379645277202 0.13421929832860754 1.3738088104191435
Ni 8.671379802112012 6.247114484307805 7.68118273479596 -1.0446327866725558 -1.2696145976977165 -0.994836689086035
Ni 4.595053353543463 4.367203694992619 6.544341913641085 -1.231116955843151 -0.9626176811513293 0.0071330115003554575
Ni 8.51578218808388 2.8221908958300115 9.197490921830232 1.3986623791277137 -0.870521794355333 -0.7943173819786127
Ni 7.135070724142874 0.7657777535817367 8.189427049064252 -1.1992064802877993 1.1775943013346624 -0.33302445095840066
Ni 5.402518770033794 2.571419578366877 8.129965569180017 -0.09574016841680284 0.5480663771620303 -0.10939632574765676
Ni 4.308100220734398 8.126430147387541 0.9804816315223159 -0.5803013259363361 -0.8843178196981609 -0.3642576979410695
Ni 2.488129801946034 4.857652804936184 2.1294853451142193 0.6930308298222839 -0.7096938923002617 1.0386081777450307
Ni 2.592965007859686 9.240850517506546 6.608988430851685 -0.4549168522905391 2.1370186723596745 -0.780667652405662
Ni 0.23291102120640608 4.666756766067871 1.3950316889815448 1.6212144976654597 -0.6494521739003848 0.2552213266359927
Ni 2.898208973561438 3.972997655938382 8.53902186757824 -0.6565684732301917 -0.3605766495450564 -1.5231238267386094
Ni 4.6200021611952575 2.5234933187182196 4.817747731079715 0.7785336367817948 -1.1295630089580482 -0.4135920253998232
Ni 4.596699249538382 1.4415259261261486 0.5116058476138463 -0.44605580235548337 -0.13496826067949014 -0.6056747717041182
Ni 5.576602492750619 5.920008928300661 1.4844345277021604 -0.6857993450708512 -0.44915269611325226 -0.8591297504683075
Ni 6.604478489848658 1.9225646024716465 6.123662985841454 0.44689578175827555 -0.01646534464487487 0.24445971724411444
Ni 3.8036656442577357 0.2351380951656326 4.577221883713764 0.6420880202258297 -0.4850013303807454 0.02046083895751315
Ni 3.361700724808563 8.046357772177107 8.254236296104857 1.9809843350385044 -0.5961272372249992 1.759466571302544
Ni 3.6938834515118977 0.7954522354969085 11.831219287164076 0.35411803840390627 0.49937971058960445 -0.7325713111190673
P 5.8777084713465015 8.556194979009971 4.763294610420697 -0.9282350899064014 -0.0533403632943533 -0.766877540600105
Ni 5.438496010736288 3.742869779767452 12.77930559401352 1.1236327595165423 -1.2076119307426751 -1.199274100300941
P 3.1508307616629274 5.97188719810661 7.392232209559163 0.0911584625833914 -0.6598183476260572 0.9663419240804518
Ni 7.9513514479958225 8.343939487597426 12.073719279839187 -0.8661717449167534 0.07027236316300156 0.8804033151351032
P -0.0521981501575036 4.691975240295104 3.8370392076801325 2.204801950552235 -0.2932813667325078 -0.6848940596477624
P 5.7903365009043615 5.276110238085045 11.041892202468599 -0.4860320856381049 -0.47159097051211035 0.368723704132223
P 2.5757342435738964 8.95545959106554 2.7515615001836435 -0.02317155302045687 -1.1057440521615796 0.5555662850835013
Ni 7.519661754955607 3.4082600538851686 0.6438317385141274 -0.09169659447504853 -0.5597085893866489 0.06977485470129274
Ni 4.197527625957102 5.639509195607268 12.650393812336905 -0.4986338335625155 0.2631621787496242 1.2275323238156859
Ni 6.462578078083328 7.454039788649713 2.960037010116332 0.541927354143828 -0.4145343347084345 0.5176530549774956
Ni 7.724747835000454 4.997544665656868 5.177332301386593 -1.502852992304715 0.3761804175205844 0.7482087605460082
Ni 5.626146751851909 6.325475871591321 4.933022753001815 -0.5804193395714391 0.03851975334175301 -1.0273115217852888
Ni 3.543270019705669 4.41923074635743 4.422233344192228 -0.7712335035759555 2.6622428548162085 -0.4525236694680142
Ni 0.6187434481508992 6.184421654942023 5.444887108574186 -1.194350951967711 -0.2676168720868682 0.7217171420133829
Ni 2.89164398727662 7.741364875355935 12.577703792100289 0.35373545825350694 0.5723360483426724 0.4541784314626178
Ni 1.7974207137732314 6.795030471362102 9.50854387752083 -0.14984157824689678 0.5774864821953603 -0.013904783006550245
Ni 5.413519306542208 8.697267793354127 12.48937590014246 0.8308422163775241 0.08872645610313107 -0.25954077994695307
Ni 8.81571651190372 3.6148339495186423 6.821682827862874 0.7756288044301738 -0.9063655435268198 -0.44704644840352686
Ni 5.586914914549292 0.217514919518342 2.2484073749979436 0.3714547299101409 -0.004987425912262379 1.113586945244766
Ni 3.3852361076511612 2.2462109872352323 6.6964450208054265 0.1510826497428495 0.31023573519865927 -0.4038246616004142
Ni 5.764690279695399 2.4765806334393146 2.6762454854331006 -0.07663687192844867 0.22957354416090137 -0.7080154761565741
Ni 2.320276307006586 2.823278860979195 1.0563844035456242 0.09776182683252195 0.11920945518333664 -1.879864647477343
Ni 1.6008151825835606 4.100001314122581 5.869757956794774 1.1470292840636116 0.17612390898219343 1.3804170597642806
Ni 3.1448330050712734 7.061600530606972 5.5540927727794305 0.5941868256691767 -0.7087011893696891 0.3278490774050483
Ni 7.233945368854588 1.5475420856632738 12.541678197391166 -0.7056444048212364 -0.591182234514898 -0.028511734286447668
Ni 7.921446354664414 3.676383020650669 11.771200806318852 -1.3589635178761952 1.5726018788640785 -0.9413669993026691
Ni 0.3894208521673137 4.835307674564487 9.292923133223761 1.852595784459061 -0.33645738789934954 -0.21449968054691446
Ni 1.6956076332739787 6.592641057071642 3.5978468150354903 3.3973423316737685 -1.8942124315585827 -0.8642449602076858
Ni 0.9703719245975934 7.457936005722431 0.47023899494154947 -1.6622994406312275 0.29978368662739985 -0.005190028841371706
Ni 8.945184364656583 0.48432023960316417 0.1545747408109492 0.09142791419469415 0.5706440053522301 -0.19232134467766232
Ni 8.084445851245965 6.871188031804962 10.012705067883083 2.187965852831503 3.4549119025581203 1.2254782695001347
Ni 7.033350632117911 8.585969888477376 6.509909211496534 0.4778145828243191 -1.0715486372267933 -0.2373742711522428
P 8.708110249456249 8.288815920038784 7.966770796802459 -0.8335012512669259 0.7469669177191071 0.3762400671139262
Ni 8.279470578372718 0.1666799803939182 9.959681180073892 -3.988755708362866 -0.8043919926057953 3.5834220663170933
P 0.3768404414807268 5.695376670960223 11.256082784031102 0.10750707914474389 0.4037112759510015 0.42404124575760516
Ni 7.613217458937978 4.989631346494856 2.463524121764367 -2.2952453893464733 0.33664816375391704 1.0875709807969787
P 7.592229960290904 1.3806370731615756 2.065532521921817 -0.4570297848684839 -0.2971205379729399 -0.9429597977110857
P 5.5430057569899285 4.381644805049732 3.817059704094353 1.716603967611063 0.26140894350394334 -0.575934307216892
P 7.014706443022925 4.1914554785860165 7.523308762917229 -1.6476094427192205 -0.6022986561430337 0.9964230597365485
Ni 9.273396483507769 9.317073169881409 2.488471069646675 1.0472198306734417 -2.4732639442482176 -0.9802240813791829
