# total energy = -340860.9085556493 ev
CRYSTAL
PRIMVEC
9.34135680052380 0.00000000000000 0.00000000000000

0.00000000000000 9.34135680052380 0.00000000000000

0.00000000000000 0.00000000000000 13.67201991638229

PRIMCOORD
 96 1
Ni 8.668685662723702 5.706214485612008 12.8081939478032 2.1030353734356946 0.23146073388128527 0.6334144037112317
Ni 1.4534310401500485 3.847349879223601 8.894305584355005 0.1936197517741117 0.21471385344024957 -1.709793886667765
Ni 1.1573567375389993 3.638897503051789 2.973527606976671 0.5181675327200689 1.1778084742279975 1.1032045735691776
Ni 2.153257464782072 5.186937804499983 12.746560610014985 -1.8648414345956335 1.667989291927153 -0.9419699229939905
Ni 2.3608597774884283 4.085713279751323 1.0318630825102135 -2.184953291257424 0.08371331915925583 1.3947476174543396
Ni 7.302054509617726 9.140321424343178 3.365627320571173 0.046671693024926075 -0.731414828917121 0.17810160153385457
Ni 6.765216077790801 6.971211677133878 13.432020962080816 0.9193742970816619 0.10379003530447287 -0.033060015778762414
Ni 8.512498177642247 5.897581520263844 2.9101166089964114 0.3859781203372965 -1.850304674432039 0.8238992094007876
Ni 2.100824429269978 2.9765486017539042 10.835800096128372 -0.6478881718473745 -1.0131984794226743 2.384590967090842
Ni 0.5861832147930905 3.35618134061218 12.878427872763334 0.34623657877330044 -0.4946141708801611 -1.4204236820642053
Ni 1.1574408097498683 7.423959215378073 10.93560595419391 -0.7289018326872801 -0.8461053131841816 0.04694114463622884
Ni 6.519473005420115 8.138143305355204 9.837428580021419 -0.3398070210978728 -0.9103055020111742 -0.41025370505520964
Ni 7.413207313743578 1.0178902810637516 1.1352373388593113 1.01356537584379 0.7148885491273236 -0.3819779980389679
Ni 9.241310832310619 7.048100384652147 5.444677047226027 0.34279798540539674 0.6959714005078464 -0.23991349263432876
Ni 3.1239645528346736 2.5914978759729466 7.449870270767962 -0.8672618926571387 0.07287251979000998 0.7796980894035411
Ni 4.087329334471364 8.834569476125406 5.337911878371871 1.16969201576845 -0.010631511571917175 -0.24461244077189487
Ni 8.318132567469409 4.488960968507082 5.305714089880319 -0.2825398119452876 3.125800413500881 1.3314516856091714
Ni 1.5147944127278048 5.3895518326947665 5.053206006941691 0.14671048881708282 -0.23046211741344183 -0.578867678813603
Ni 7.212059878560623 6.789083244320891 4.53730622629958 -0.8758709744823883 0.78609036608313 0.642588356901016
Ni 2.3835592744231135 5.925306667137155 2.6771459737281105 -2.1983736784283883 -0.3076944568340443 0.08616692290607095
Ni 3.729116326671209 4.786436474632618 7.779652859259181 0.8294918729972166 -0.8323347417626504 -1.5226607710592617
Ni 6.597099680122681 0.9753123769368811 10.783149407003695 -1.3291520909417172 0.8876142310612456 -1.6417311295615724
Ni 2.447603616391921 1.4707685983026313 0.5512764328401968 -0.5981833484230795 -0.25844471866929686 -0.20990640474927721
Ni 5.768185046379374 8.679372174860854 1.0915767714835807 0.8084908452655173 0.31999692835048116 2.7739099788759134
P 0.27218004614634506 4.149654866795735 10.618497718559063 -1.873468257032696 0.10110966025883232 0.9462945185112734
P 0.9986937929152833 6.488459700966141 0.5798806013849291 0.5952134671614782 -1.4966972571159645 0.1702275981024165
P 4.59209888853007 8.6578590302351 10.621532725371441 4.008221787507278 -0.21021365157705083 1.223221612255474
P 4.221835530505328 4.766352557591641 1.803694553344682 0.5004351484373124 0.934440704496481 0.17282544073657977
P 5.5524650946457585 7.0540414875535715 7.378201513408993 0.45866603492032626 -0.1431579955791341 0.992297210493633
P 6.670746936844104 6.96473811689695 2.022159929831016 0.3903759922946761 -0.4383386362168838 0.9618620339322274
P 9.464195604681644 8.520475696318057 3.4132336770436984 -0.7447722240606335 0.09023775054133491 2.4784457455594735
P 5.395380839315031 2.6479850603202895 9.199000090987177 0.18888429397165535 0.7979467512010838 0.19180378161129547
Ni 6.191554017603163 0.8185475960074566 8.187926197953566 2.4934116228406866 1.0928957354440016 -0.2621759035769549
Ni 8.839006620587949 1.588469693519518 10.119919615763035 0.5426634609789042 2.29725984867334 -0.3194942776824497
Ni 8.917707551318287 0.5309552453374337 5.320411780611608 0.0840637605201391 -1.997689306498011 0.028335356609583456
Ni 4.018175270353062 7.025811907415045 1.6893423345274186 0.8284076387941024 0.7221169485549628 -1.6124933157423778
Ni 3.6465947810247035 2.8903372201859168 2.6135976578034312 0.026287215831303116 -1.4884481297332945 0.44434730430480895
Ni 7.383268265317377 5.588121053411065 10.84148804826151 -1.3673160036059484 -0.6990883488702734 -0.48674479543441335
Ni 0.7201588217629026 7.9931561070328785 7.5003201362392184 -0.19653409720742926 1.5857780112347206 1.3833817988195594
Ni 1.8880656876303106 8.494656186224448 5.526763285647366 -1.7140871147264802 -0.42107136449600385 -0.9164684362887765
Ni 2.907926994971107 8.485781897299367 9.684944008760914 -3.916281966673171 -3.2270250020710227 -0.7972003599533626
Ni 4.286982152572199 2.3059699651476007 11.26642823569288 1.337041778102439 -0.7048406779730184 -1.4025164627664815
Ni 8.113192541440576 3.6496774287565743 8.658408302012779 0.11512500070131786 -0.27295602491159443 1.3002513487469671
Ni 0.9715945169451096 0.40205759990412154 11.664721268821411 0.28311959570815753 0.44336180046308804 0.5918486644543033
Ni 2.153369561063231 7.923478926935835 13.110127149376158 -0.9909836338885321 0.3747822516214771 1.041690159104464
Ni 5.94553070452958 4.499077657881676 7.15592112682055 1.0614262040808107 -0.022000929751123402 1.1010978116388197
Ni 7.734839568458865 2.485576231634512 6.605828243882256 -0.42407904097407606 -1.2227634416721327 0.5893567512703851
Ni 3.8072848000660433 4.337640330299276 10.192668233963834 0.7873188391735925 0.5022596032405608 0.40058172918308427
Ni 8.694346369752337 6.515166639952259 9.217635163594174 0.5418083120674605 -0.9135435493324976 -1.4037225672594404
Ni 1.6723831013237473 1.0672593515575013 9.495067854648493 0.02252183525159992 0.12060299309675358 -1.5433596941695098
Ni 1.7325040734519919 1.4601848410898748 5.777836536187159 0.8458816272091496 0.4162099226386445 0.881906639153507
Ni 4.833526254076136 6.076954252831674 5.665206863557038 -0.452351405556208 1.4445041200521769 0.436505696773203
Ni 8.862117137220215 7.618081950275066 1.5685912863273326 -1.4193247925730716 1.0949585315103012 -0.5053004469494137
Ni 3.6706767987603484 4.678562486730664 4.280408639817903 -0.8910780212401299 -0.44940903509843244 -1.337984858741999
Ni 7.318710148726591 3.7868459114680633 13.362608142380171 1.3322692964144605 1.3234398710482884 1.5798369631599374
Ni 8.77392538801842 8.556832256840607 13.13439506011139 0.06741586755081291 0.4732873843779269 -0.43765318011408494
P 0.2535477759463767 1.4813523555153878 0.3235799276004242 0.005462308666151883 -0.41193134986794866 0.6511151634251043
P 8.716317240859487 0.9064320145717416 8.115642779319575 -0.4046587274659354 0.05741093381930113 -1.1205363799794055
P 5.702384529339077 1.2668934869448096 2.7450268109195832 -0.5360796371137994 -0.3284609999574343 -2.877586885641289
P 7.998863676015221 7.478288546313105 11.445230211362473 0.4136773860247779 0.9176159196296583 0.2414106460051455
P 7.891923823789592 5.248459980142714 7.339645997504376 1.5370967439789334 1.6442739505880841 -0.016938170516235345
P 1.5480683255184833 3.794739357933005 6.539655006707105 -0.11475296207387978 -1.2201686843617632 -0.551860811207456
P 2.721239980057656 0.05480387185860561 7.668717708745912 -1.0245331877092034 -0.01993196303723664 -2.3077743750514195
P 4.703812174061715 3.6065390432239086 5.772969689313509 -0.490895070157361 -1.3608365665291917 -0.29533773504090427
Ni 6.804645944688457 2.1037389325801104 4.207277025989811 0.7632139757055888 1.3949221953589912 1.3594278591071234
Ni 3.7928150384397767 0.2865563942049791 2.3445049300673393 0.5480787184572045 0.2963983150949347 0.5314236263990267
Ni 7.441025874184522 8.459719511929912 7.366293151807209 0.7432573300780039 -1.0821904332113554 -0.4685341859636576
Ni 4.201013646280056 0.7786936315127482 8.956703979262128 -0.3309210314621527 1.9500647626415124 1.1285674778139982
Ni 8.789721622305066 8.727022435710166 9.850061830908032 0.6852596705172973 0.15265333666407901 -0.5535554253010596
Ni 3.4088946168271717 0.3520047420953023 11.972122900643571 -0.6169814549661891 -0.09201901081147378 0.8204341336703224
Ni 5.355736121211819 5.272495291094543 -0.04926444729800134 -1.1552028210133396 -1.2814005345890513 0.3550922293917175
Ni 3.547744543756045 3.5166565084479653 13.04619677195986 1.8023044924036766 -0.9875686946697121 -1.1949407630329099
Ni 9.354061008442986 2.6720670780559344 4.8280410093847586 0.7468018528961526 0.44849912168965334 -0.16599941895368184
Ni 8.19942260572209 1.5380543910682847 12.342634738758216 0.19707094354750576 -0.6194823670111718 1.901252883345132
Ni 6.054460265745781 4.80526864986732 4.228277330129262 0.3137697164938467 -1.7039348567838266 -0.6952327225696091
Ni 3.3809826428185956 6.782861900716569 11.62505880214035 1.7253593452061897 -0.05765390306804264 -1.5295852660932368
Ni 4.984678747862203 1.8575568164415526 0.5123183044590836 -0.09338838035517466 -1.310936339264639 -0.5849197985449539
Ni 3.0435448124598974 7.070061914402537 7.069172617238676 0.48282206334123945 0.6097000908134275 0.7860186323049302
Ni 6.065931451851045 3.460888608571393 1.8466115487220585 0.6234454654239778 0.08130599526934384 1.0739598177714471
Ni 1.7154000492184904 8.544529689983413 2.100815087913215 0.9918724642513886 -0.7191424393076712 -1.1348461117338586
Ni 4.653742501810723 1.336122281917218 6.472170243042395 1.2821135014956757 0.5566842007380283 -0.9999881513799875
Ni 0.8761202460106879 5.6372379072722065 7.39039665466341 -0.6685238458198551 0.6193198732913785 0.2656620623533425
Ni 0.7016208992662429 1.413412667776307 3.0516633856228337 0.7342417568429548 -1.8214849219868692 -0.9206950727756145
Ni 6.269003206527227 9.132820314862292 12.692228476672923 -0.12964350603246705 0.5924220204592701 -1.6499152080342616
Ni 7.471375942308304 3.2746312960690513 11.060677379896996 0.7407276216776146 1.0553015792403115 -1.947889609367065
Ni 9.089130789280594 4.0426402837160005 1.1743925698681288 -0.4782275019920215 0.4376164133388785 1.560461386846803
Ni 5.185872889828973 7.5802214313136345 3.6576073065128925 0.4670920542004924 0.226357608326765 -0.6705737863703484
Ni 4.644821506101824 6.442406812123344 9.420103466623452 1.265800109047633 1.3230961145556246 -0.4367206409974866
P 7.889737946306993 3.8043702967559105 3.3443262247439463 0.8581015663141094 0.13959830325233377 -1.8970848680103716
P 6.774529410483755 0.40407253055795345 5.604078893169716 -1.566375695448709 -0.29958802567682596 0.8876594824768842
P 3.1667479668103353 7.076619546850334 4.357245035738298 -0.17482858720953762 -0.934534806872184 0.23197906827860051
P 3.921454862426423 8.81229968160183 0.24747028923620948 -1.3506843085865383 0.7177519867180479 -0.24511560566055854
P 5.338277125421314 5.71266936313541 11.497703414708651 -0.759381746443692 -0.5044566108918795 -0.39525080388847417
P 2.6052203290581537 5.9140409908806815 9.006319661574429 -2.8842480997115487 1.5137457279578188 1.6305992813144692
P 6.011788948051277 2.7115623344509343 12.401096685925307 -2.7190832608440205 -2.3789085719940832 0.18063233837550827
P 2.9620041092735323 1.351180549019569 4.049050322726939 -0.8554993528045718 -0.30525525126493236 0.320638418589222
