# total energy = -340871.6160562855 ev
CRYSTAL
PRIMVEC
9.21243651317743 0.00000000000000 0.00000000000000
0.00000000000000 9.21243651317743 0.00000000000000
0.00000000000000 0.00000000000000 13.48333204438643
PRIMCOORD
 96 1
Ni 0.27047989922523635 7.532686886714471 4.2347239821252085 1.3580682597554352 -0.4329020385823447 -0.05035968339947456
Ni 5.678333969501453 8.166834165286842 0.37849018966764875 -0.5870175616142471 -1.1791557322845112 1.563103195345024
Ni 2.2982541697263783 2.987915590617842 2.6803243122159985 0.9322102725040655 -1.3350795121697459 -4.319453310960303e-05
Ni 5.887806350525605 3.6272402585004233 4.953830192542109 0.48194583138387326 -1.3584053313798798 -0.8282073498578382
Ni 8.757093396396856 1.8239795140888808 0.9574853746751809 -0.8013264663065941 0.4315167281990439 0.06613545817649255
Ni 2.0362709006805146 4.35370536318956 0.24093469414200303 -0.31362522049618247 0.0627526577471887 -0.14337962467163695
Ni 6.505352818533919 3.1487831566941793 1.7795709639645547 0.20595230519753563 -1.1748720173074927 0.882812438797228
Ni 1.80139061980305 4.262612791126634 7.2091332195976765 -0.5719172156376988 -0.6709856770967862 0.09473743818390135
Ni 3.168000299222826 1.5738250135026446 10.509691267547591 -0.48430507564466924 1.8924622816366954 1.3837155280098943
Ni 5.8987415126452145 8.710966726866205 11.442494682365268 -0.4298357409521952 -0.7114633254958587 0.2566745141427515
Ni 5.760647089584609 1.3545045378652976 -0.010068271845425993 -2.115038311433841 2.57705269400111 0.49890225673255373
Ni 1.010751682489485 2.5230468326417776 9.291822824045735 -0.3838644164284034 0.7588531276337318 0.2541630605748074
Ni 1.2370643974265654 3.431853692877183 11.423267406156477 0.37043837283048464 0.39783321990366965 1.3174836534648537
Ni 3.089068143333349 6.362292892202489 6.680640611455938 -0.012250021011946645 -0.5736280276812186 1.5627311567175861
Ni 8.82190288713944 5.404918066765249 10.341930956485669 -1.126870806837866 -0.4060126703906685 -0.7992880957203267
Ni 2.9952118403219115 6.507020269539521 11.624021137281726 0.8296412540908873 0.4399674300695584 1.0768952462506873
Ni 4.730033394011824 4.237435202185698 6.850449768394357 -0.8421224172770335 0.7093995009882944 1.3760215017997464
Ni 5.940354088293297 8.284126906741653 7.90050446870262 -0.5396732680023286 -2.750800132331327 0.7330083986564859
Ni 1.7443656378987706 8.354703382730131 6.344406946747374 -0.8705102243911073 0.6386152311858808 -0.17396032567197137
Ni 8.054055517714598 8.564065214516344 1.6227190989564044 0.1731990220259146 0.47265540722088273 0.21506815145587477
Ni 1.8438231022991907 5.800730400774515 9.396898032220827 1.3970433554670518 -1.516959092688794 -1.262702958179548
Ni 0.3699530247676979 6.270011915831702 7.01223581438925 -0.006580481430995119 0.750217820556237 0.03669529853850455
Ni 0.3172864465692206 8.531213665975041 12.945468689271882 0.9919915063277561 2.277776028917116 1.053072947020109
Ni 2.8646255530047613 1.3069223033684312 5.608850088481286 0.24448491405509507 -0.5936011283690358 0.3253193690046591
P 7.239768255918273 5.21995997925439 5.572620339477253 0.8756640006779047 -0.2028155593407668 -0.2605666501083061
P 0.7600812854595269 5.712742419810416 12.286632080892813 -0.3486816978796834 -1.8547436840399991 -0.47197560754503876
P 2.1570090933844703 6.555883032709197 4.887384573078005 0.7125146495785084 1.605935460019202 -1.7305876834846647
P 3.9909656761974763 0.9221096185342387 1.2547992589231611 1.1726444135285545 -0.33066237848412733 1.1606450750748334
P 7.143083734902859 6.674272054106919 1.6636950952426799 -1.4567582548291815 -0.44941314886349054 -0.31591067409624946
P 0.6056200477218388 3.9887823287481523 2.0301851651318934 -0.747504535390132 -1.7892278617253767 -0.6057729878448793
P 7.280828085376653 9.34629319730994 13.145534251390954 3.488577670241683 -1.062654677171273 -1.1357467691712568
P 6.99150230481352 0.763307480720089 9.94328303452323 -0.004442866262702026 0.7700973330889833 -1.2392547544589367
Ni 4.509423177265171 5.583952557609798 10.01680749019012 0.42571451969497004 0.17276064893691537 -1.8085700136974143
Ni 2.357315100096061 5.279149883735003 2.814281430046683 0.42221139163771804 1.6229816168682114 0.05882092679295032
Ni 8.499439972503659 3.7005344032549385 3.920373539066956 -0.37860188247788346 -0.44293936821368873 0.42043450224295337
Ni 3.113969359179434 2.4787718628466293 8.181254392132523 1.811407483146209 0.7836339341228375 -0.8291928536995591
Ni 3.4242442203322816 7.926057925052554 1.8078181367456372 -0.7163931586973081 -0.17160570939686573 0.2867445940552546
Ni 5.5973750775830675 2.948062590340312 8.832081708222807 -1.4521102145342089 -0.4630798477173057 0.8712702424855833
Ni 1.6001910067514407 6.714060567328984 0.479733024260807 -0.05878313157647941 0.949467002701984 0.8427294547334132
Ni 6.29552115248646 4.315519813917632 10.998853220561067 -0.8673516241574675 1.014749368849562 -1.1437765814542689
Ni 3.9727711141197783 4.1669969127446445 11.770948444453772 -0.04985523295923027 -0.5910158841403629 0.801692077176129
Ni 5.382310747606427 8.931143959097591 2.9489128982288038 1.1040424960894406 -0.16179952193972136 -1.5814071358605346
Ni 6.93332576834736 5.160244965893559 3.2611592207915896 -1.1560345728860153 0.8733644060104507 -0.14135976602813075
Ni 7.340653647975423 1.6434618209686298 5.0632739381031495 1.675223347781747 2.231984424504298 0.21882890404988767
Ni 3.196042955913719 3.625139822979555 4.979812948432712 -0.4780997181649056 -0.42282614240358146 0.15135544378826193
Ni 8.17520827006083 3.9855487635383944 12.12282298384361 2.292665544434439 -1.3249498799349115 -0.6218814633709677
Ni 2.9846083259161236 8.94328595039805 13.160675812014196 0.030704885283024536 -0.6486263355649797 -1.7078416480374006
Ni 8.707889773076863 1.597206177327049 11.2988571362656 -2.023689330106199 0.9754366872928684 1.5898341835819652
Ni 7.806701597822853 7.331339874678941 8.730875723375629 1.3220208792135748 -0.4559797463374147 -0.14806983105845467
Ni 7.677967010241206 2.9938391872841508 9.823241302018298 1.510706684021179 -0.38609253442797375 -1.634457992938927
Ni 3.7635566813174868 7.602378968799426 8.831528962033106 -1.9781399236111739 -0.057373395713146355 1.6130679572989253
Ni 8.936127887241405 0.3992937137607414 8.714088821594373 -0.38119098336129836 -0.6790849091651531 0.730905236270554
Ni 7.551682930767237 7.518591858877064 6.117590311534015 -0.21683681332052332 -1.5165400028735043 0.7274460740773601
Ni 4.762378258545899 0.44124438582819164 9.428071996076383 1.115830232752988 0.17662038900263777 -1.0043317730606638
Ni 3.245697988621969 2.3765875172436783 13.10304833676314 -0.19972123668615926 -1.6982079816023785 0.25156701771285706
Ni 5.34423574757244 0.4936272209826218 5.211173157325423 0.1584923119433593 0.5807893213163481 0.8871879421571044
P -0.3173371149699433 4.593210287187533 8.18552896266622 0.8167546279362062 -1.3847560534592667 0.3374184662610383
P 4.941164013605083 6.316083310743383 7.692752970815739 1.5394446753858195 -1.1239796013329997 0.6159504425985135
P 7.270335120208806 1.2495380364408455 2.9467415269469237 -0.4557573459139635 2.2290698219606644 -2.1587475793963335
P 0.9986373284985114 8.267701132471002 1.9852726947312886 0.05189386065581385 -0.8777494224520238 0.6053148172615382
P 4.58113278294254 3.722846924445918 3.2260358854106115 -0.14972150772926474 0.9245730676737819 -1.2741695640582509
P 6.211347120231307 3.5059585320432607 12.943607777099885 -1.6540713962944802 -1.8920336787397094 0.2605797627344286
P 5.187292679442987 2.063189640119013 6.92723726906779 -0.6897143638545412 -0.9301796152272819 -0.8559922332805903
P 3.6449741987533697 8.709612498701434 11.12451730305892 -0.04388847385283409 -0.6173331818786529 -0.7319825284951329
Ni 7.072691507644281 0.6869704681912634 7.179106204085753 0.2842171996477105 2.0671995946840074 0.6547437613166271
Ni 7.135999371238175 3.3530597235351305 6.996527688921562 0.6984846538480035 0.12818851875349535 -0.5826019490450547
Ni 8.116764572936315 6.842546419125266 12.68910961270624 -1.5077527435991775 -1.08408687890312 -0.12374899492490299
Ni 0.2720414072111451 1.7017673315457194 3.346077617915542 0.14197785922810385 -0.47126315485904646 0.26236873631405133
Ni 1.1912785880462313 0.4676426226047203 10.773883678864964 1.660926471543101 -1.4963977235976744 0.6732994128316276
Ni 4.511993447047287 5.500819530678584 4.757580421619283 0.2885996449861223 2.455886629312035 -0.6567124550072239
Ni 2.077607103233746 0.1347890008461861 3.595344039623657 -0.5360878646439154 -0.011342164485696596 0.004165958452231535
Ni 5.538959017768037 6.120853356540557 12.349572368270556 -0.6061766510412012 0.3473380393675954 0.5992562697722841
Ni 2.2038543329617335 0.4770125917638225 8.672722218000708 -0.1341475645504077 -1.636876886793065 -1.0575710920007786
Ni 4.058087488500316 9.127949239941067 7.106537999327046 -1.0667830975173498 1.090113030492542 -0.7877343294444563
Ni 1.837917930505872 0.9484940366560247 1.301740307839973 -0.8110231247690678 0.39121494325620365 0.7363482616629964
Ni 9.13371622518696 5.849104904809955 2.389799072421211 -0.4815239133551062 2.218521871241489 0.13441933015455562
Ni 0.017432693579558612 2.2156646765483714 7.28291378099913 0.3941544855005018 0.2975928496236681 -2.0977574128662066
Ni 4.491762936504186 4.13245948832475 0.8582020253245172 0.280133259386324 -1.5525670717003908 -0.45822997582417213
Ni 8.307434371074097 8.368899747368983 10.877786143874241 -2.152032629270004 1.3072084967910906 -0.47763126316891935
Ni 4.0461297459297585 1.6005779290842324 3.5227500400427645 0.3051858314795776 -0.20303127489599873 -0.7474932225362223
Ni 0.9752193149281272 7.290630117807373 10.8517766719178 0.5382655890215245 1.2476411787504191 0.4089717530189924
Ni 4.738499623150763 5.899856217461114 2.3113127984580935 0.9070574273875217 1.129422369615126 0.3875027845119391
Ni 6.784462007024057 5.113519487990731 8.516557600755087 -0.6469314643610601 1.028543337309861 0.8175012762942437
Ni 7.655018830932068 8.818300824469882 4.075472277410101 -0.4152406167468397 -1.5625136413901413 0.358794360833653
Ni 0.979116175565528 4.938354220474096 4.858422515224908 -0.8269002010106403 -1.2526810551671717 0.19534136245090872
Ni 5.433181821932022 1.947352463630417 11.132688734230019 1.0668005810188466 1.2126235250246535 0.696998042000148
Ni 3.756757903184149 8.056957435210535 4.44701905369144 -0.4639213697819946 -1.1191641822222276 0.8567337394323052
Ni 7.376950647765869 4.932412198934798 0.3917828142863377 -0.13924451945734084 1.4599479654110727 3.2096888247854203
P 3.6305475232021416 5.99848456257698 0.3506824501073794 0.6191725490802369 1.270404440588864 -0.07433856281257518
P 5.872200483103013 7.5998731860727755 4.703134921933614 -0.2510021463483226 -0.5927092126823856 -0.27834557135828186
P 2.855403904073229 3.7813827459353835 9.970424714924906 0.4241590022823921 0.4860881356870209 -1.157251476012252
P 1.1120608466254076 1.6512923919894114 12.87824093394935 0.1939732784587885 0.22302134486468045 -1.028735655826325
P 1.2409336207544808 7.730293649533016 8.602945381499998 -0.2531821847187769 0.2176477392575929 -0.554649943916819
P 8.799765402241867 0.06578324528011108 6.088007335461152 1.0118345091956122 0.24665595356448486 -0.46285436197006097
P 6.734198953507135 6.700619622482725 10.551017336420678 0.027430842517443082 -0.9964143179858002 0.1753302094363045
P 1.2579674158338046 2.6036556519733516 5.280302359540531 -1.4696253405998367 1.0727573128229138 -0.09460245526793384
