# total energy = -340895.3912472779 ev
CRYSTAL
PRIMVEC
9.04522271844669 0.00000000000000 0.00000000000000

0.00000000000000 9.04522271844669 0.00000000000000

0.00000000000000 0.00000000000000 13.23859775357745

PRIMCOORD
 96 1
Ni 6.500738343811706 1.9200746799156663 11.393375361801084 -0.6096579247215823 0.7413688548060393 0.5193008749935637
Ni 4.395706947113962 0.23119589597759713 6.025190275225079 1.0468580764586486 0.6346462192358038 0.08680249960754083
Ni 2.7395447342146633 1.5032255849967475 4.803480065427876 -1.00299248542395 0.8512752874208952 0.29016313281850026
Ni 3.4396540278203758 4.308936124339585 4.968260508126714 -0.9118808169180941 0.6616404884364605 -0.04692777489979015
Ni 5.068906702748886 4.385522026187876 2.5902904165332576 0.8265942397344475 0.4201691643967086 -0.32300460482855337
Ni 7.16467579125097 6.031779720069355 2.468190762361803 0.8606297320526015 -0.05314958743978588 0.27234281680762773
Ni 5.138346878547791 4.686438499872645 11.468319555702585 0.355611078009665 -1.0591569484306598 -0.3383420065165721
Ni 5.3372061028462054 8.061699586242922 12.587603471021263 -0.023655691745727 -0.402394614022107 0.040974899750464915
Ni 1.8790545943030528 6.397767526917772 0.5779472273966104 0.16446961257271672 -0.5626633011395987 -0.8989800496960259
Ni 2.4688121691714136 1.3801381924903648 0.31926742179741985 1.724176380641682 0.6130558946595377 -0.2718437656840222
Ni 0.598738576633469 9.027792702897038 4.638791884002082 -0.04604742917736586 0.08717685222782405 -0.21855431023226232
Ni 8.635628021128467 2.3981961144023565 1.5706007364196086 -0.3991259705731643 0.06859446123994638 -0.8954617521301222
Ni 6.925628641841896 0.7773392153207321 5.12697793795099 -0.9618998291486982 -0.6572600999805777 -1.7612804845828312
Ni 1.0279714861526588 7.4391078524387755 2.5846769512342087 -0.27074770440636603 -0.36691621860983903 0.5562278299269002
Ni 7.576649511055181 3.734076031500766 3.690828107500857 1.3458796881090433 0.36497580705401655 0.19462171067606482
Ni 7.4890193921103085 3.828490067581132 12.621374715044032 1.0215347672025117 0.5095355680766838 -0.4418710748501745
Ni 7.759987132947588 8.691020965845476 7.091612099179427 0.0724176916407785 1.1610194276951165 -0.015869877152721056
Ni 6.87113117418677 0.7777562000939938 0.3224820939973587 0.2197781553370344 -0.347521359022995 0.7238192759580502
Ni 1.8113420560679865 6.3690398991546715 9.395883524057458 -0.2434816696015613 0.39012582395708295 -1.375271253897283
Ni 0.24834654301840786 4.713773163317257 1.559560137412165 -0.3995962253413634 0.5604084436671509 -0.6012560738111322
Ni 6.197054031935656 2.132646462050624 6.9243695468215485 0.5439454130151212 -0.18705366852081978 1.2916147561178917
Ni 3.5277002270162257 4.159572359461726 0.4768342992755162 -0.22759636582987255 0.18744241931880623 -1.160906556266336
Ni 6.262351495670487 5.642247198149354 4.644907359169158 -1.413837029985623 -0.1782646094742801 0.9452426802079915
Ni 5.094956944549178 2.65090155031089 9.56182899145903 0.37021031598007853 0.6895148462492253 -0.36810766781477894
P 0.3148388806913701 5.316727718319864 12.479364716341047 -0.4571904788160642 1.7671716532562856 -0.18552437636048694
P 3.957312131372718 6.057920414098121 12.700554786804936 -0.07734829617317647 0.8278725922262387 0.04446157274748472
P 2.5637689186226194 8.42660196634966 1.3889274355311092 -0.6333223582180576 0.9188474780439143 0.45598051766836306
P 6.250755519980218 7.75156603047673 5.745472185805299 -0.6037001644762506 -0.12052688844317953 1.3073478505824325
P 4.735771145281949 1.1343342616143397 12.632693906915172 -0.4800540136777991 0.3956508675403702 -0.044129900439678835
P 3.9909513151419156 6.177869114276482 8.345069232126168 0.6671274796929607 -0.058038797211287144 -0.6357042281866729
P 4.692426437397573 1.2164558398451928 3.921577169469796 1.6732770226886537 -1.8127902224263488 0.965232750176673
P 0.08641082290505402 5.617716553787412 3.5255176147431664 0.593609870119784 0.19897638810033472 1.3209587564976475
Ni 1.5376064770394255 1.294335208560651 2.5219664212337123 -0.26740372763479753 -1.496042911361417 0.9463449121332347
Ni 1.955622405705649 6.384769541686168 4.699172364597107 -0.36101425130310727 0.30394913085899916 -0.23670501299936011
Ni 6.176801777980498 5.819434068505581 9.263033622531958 -1.4179574799119 -0.524744157496322 0.5301702136078998
Ni 8.613630039163775 2.334834328356853 10.180190274537484 0.3592239921719039 0.33224489247989875 -0.44597378416463834
Ni 2.39250666923139 5.326143795303929 7.140807257201453 -0.5894639662722105 -0.22786504611022693 -0.6843340733792344
Ni 0.560457384499025 0.08436117540785046 9.135003015739512 -1.0033745513537171 0.02694567535090843 -0.31851648715021275
Ni 1.3792608058741744 1.0357322873556627 11.342022918129974 0.16042809551349144 0.18461651983423688 0.036501437360143586
Ni 4.263529105646019 7.028807498861319 1.6121960982053118 -0.0122145397883209 -1.3222746470955937 0.04238746382727539
Ni 5.599264299178871 7.954477514610745 8.057473658128652 -0.6842178595163442 0.042161206749082226 0.018111364888730098
Ni 5.360624184797927 3.1737877926689864 4.818029306377796 0.08301423620970219 -1.2157934381122029 -0.5060095572012963
Ni 0.611869526640929 7.38044958227388 6.8184735048587894 0.7654408081535786 -0.16478431559965814 0.17262232358683818
Ni 5.254813167929933 4.611146064891521 7.116739728249293 -0.6275142361767129 0.29601084984852893 0.19646724852523584
Ni 7.970641327838912 7.2671853017796915 8.97265845155346 0.9536265333963124 0.7375391966473039 1.7517347498759248
Ni 4.454699890524208 0.29775245473277534 10.512942314555694 -0.2434474739295162 0.17833582903184772 -0.2880160045685104
Ni 8.063038279224326 7.265548116444326 4.735194964586574 1.1285602787251465 -0.2650707086262467 -0.5666096873818565
Ni 7.24244661729226 6.1645002749081375 7.07007361453538 -0.4737519827191712 -0.3364152218075045 -1.4777253439991518
Ni 2.5786030840922307 5.044394148832638 2.5047425078878383 -0.09109701321783666 0.9214975140722517 0.8641937952547762
Ni 2.3219901119136535 5.240168952140116 11.369281601702667 -0.37256493225518417 -0.9624071078024199 1.1428502129852576
Ni 1.1443292328606327 3.4800771287250654 3.7608607453962613 -0.6962367383540913 0.09386789109475448 0.6820504195513801
Ni 3.737287085611566 2.46260714629815 2.624393620234523 -0.5473724364187992 1.1845969579047404 -1.168906286642361
Ni 1.1051453274860257 3.213668180202837 8.109342584024347 -0.6294962996037481 0.505831122641903 -0.2814869452007411
Ni 3.6856840892675833 2.7529587996972444 6.916545429058613 -0.08157056178464016 -0.4746148449400987 0.4624280730659197
Ni 4.020203565830161 6.91760552917632 5.89747806027686 0.8180401795168493 -0.8854347069114235 0.059200935840188366
Ni 0.6029554595248914 7.407874697946966 11.423215551974405 0.6572480157957197 -1.1471647812002115 -0.22354842101274403
P 0.1326065850309063 5.5858140528049 8.083766311901252 1.1476147242534365 0.7113370843306395 -0.3546942226223504
P 8.389398964778616 1.6733843172006035 7.8250575615889515 -0.2749265183744039 -0.7712903249558201 1.3927498702980208
P 1.6727963777155272 3.1001144525775333 10.328489416686212 -0.11546490053923986 0.6770197991060082 -0.054780181064673396
P 4.147379399063533 5.997037019112784 3.695025090902015 -0.023153298188011737 1.2851425181299867 0.7757833277301671
P 6.9714517407864385 3.934427717568989 10.18978816050078 -1.3972670414420838 -0.13818599628583944 1.3149238631574773
P 6.182292228248823 7.925451394493683 10.519151860040381 0.9906403916165003 -0.737167415130182 -0.8254102467286752
P 2.3025157471233655 8.420713526276053 5.786524834220163 0.8949398181883812 -0.5893300117975077 -0.21416646557721183
P 6.996615550747693 4.046081948396354 1.5163221631573878 -0.164058236066911 0.08260671635863837 0.222176737476198
Ni 5.467837211207256 2.900495429559944 0.5034589127266139 -0.28414598009014286 -0.5129301955805294 -0.4995023522103978
Ni 1.3497462437233567 0.9473242792459196 6.958697072049428 0.024912704081279675 0.6672526924169153 -0.1556155046161965
Ni 6.9597291319763075 0.7176687847192217 9.358021125740846 -1.0076235564380582 -0.35967470655607736 -1.430444042414685
Ni 2.7362522730982377 1.615214489069464 9.086774792039868 0.1909907987916969 -0.8477145666528305 0.023149441533269807
Ni 6.355264024758196 1.9511631108419183 2.7218296652681797 0.06561943777202248 -0.5950108642323688 -0.38915368985180077
Ni 4.025178438396189 6.815114109093294 10.4897358908186 0.627532491009158 0.5123792081730659 0.010858025760426462
Ni 8.25402815964557 6.996687912530471 0.30212039284574804 0.46335058488018915 0.2733671443070841 0.6596250006683285
Ni 7.669390180908793 3.9751040847134043 8.127731522072954 0.02916839403384009 -0.8820012557498422 -0.4689741017145536
Ni 2.7433437278105397 8.146697545339224 12.406035999240078 1.2816347620870445 0.09726534681207764 -0.7857072717120984
Ni -0.00021527630376630717 4.850473616208863 10.12544858586548 0.07066317084351702 -0.4869242584350711 0.6916563180722604
Ni 8.599989843110011 2.3317318169202212 5.780647248413971 0.8868043335654405 1.2297249605916305 -0.32145474384293027
Ni 3.380733446192908 2.603658351379318 11.462149809198426 1.1836752174214196 0.2992753795324136 0.6362950676931364
Ni 1.0603081578318414 3.3019043290784804 12.661010881561005 0.223474373241699 -0.16138146056569627 -0.05564432883718159
Ni 3.033568748089772 8.303948744539948 8.016818094996786 0.15786419144105715 -0.2942825543035125 0.03377966755360634
Ni 5.789340612092534 7.849064487548033 3.6361135544973946 -0.8442937138967395 0.527205217442305 -0.6544491128943438
Ni 3.3076661360322257 8.541422025173588 3.5612625263912205 -0.47046945531315754 -0.9350130320601832 0.26269963729090884
Ni 3.2678219293897643 4.234484895083263 9.180623501692276 0.4010818087479544 -0.1636556013118536 0.2748768960833911
Ni 7.432079714286405 6.215379653424335 11.412041988191108 -0.651374073513446 -0.1920161547324177 -0.34795304724377496
Ni 0.6438859974313165 8.876918385803677 0.24372895675484904 -0.4381666294153938 0.5333642950651653 -0.06983938939064101
Ni 4.694841511897809 0.3135273233785081 1.6131232335471626 0.19509685054027046 0.8972157587067515 -0.31656964783648706
Ni 6.075857091004364 5.8971958493240235 0.27714743708657164 -0.4596304557161245 -1.1155273568005883 0.09186654439400953
Ni 8.03487145527776 9.024400744329292 11.378548432509751 -0.3053755788928806 -0.5073601576919198 0.02339292500264358
Ni 0.14074276298207408 5.056161983757007 5.913470014270929 -0.1676014733334791 -1.2713755462528813 -0.7964318572184542
Ni 8.359350734479808 9.009919342550727 2.2386202929298697 -1.1622630702942307 -0.6768981859264794 0.16975940021674635
P 8.446781858522039 1.5389542152436768 3.6427057129085245 0.16182034787532776 0.9458083229034744 0.2868176133850351
P 1.923222417466535 3.209389789796053 1.5831111841397423 -0.8198456081567042 -0.7929323287056279 -0.2614025157460401
P 4.701652564701844 1.0392418338204243 8.18169170349095 -0.13864236709696767 -0.28300132496273844 -0.22922773078570843
P 8.558173777886832 1.7668757405505426 12.513586412461613 -0.28039268369529774 -0.9706562351850896 0.25819095078727794
P 6.512750399752953 7.885498645177053 1.4806713218269456 -0.3972963735635932 0.22752694604451784 -0.6609650596359906
P 1.7723119194817842 3.1533184533654923 5.952034321880493 -0.2175724059349672 0.526693567913209 -0.08415040669667442
P 7.010192430241527 3.9564709256479174 5.895876151310599 0.35883498426360133 1.0999413294368734 0.5680333072022604
P 2.2527037049031526 8.358437166972228 10.126004867070591 0.7129748770443786 0.6624858671558914 1.140613867455571
