# total energy = -340864.5264432863 ev
CRYSTAL
PRIMVEC
9.33635850917242 0.00000000000000 0.00000000000000

0.00000000000000 9.33635850917242 0.00000000000000

0.00000000000000 0.00000000000000 13.66470441175137

PRIMCOORD
 96 1
Ni 9.011191984247889 1.4483026409349355 8.484524256311087 1.2901967927244424 -1.0930559151709498 -1.1209179316885405
Ni 5.036666746816359 6.495435445836634 4.990391084996576 0.8102767335213465 0.8696471050598636 1.998477092506629
Ni 2.05048843972728 7.477293606893346 8.270193204534218 0.3210924754075051 0.13889690630993498 0.991131472320306
Ni 3.1763039153404837 1.8606989403885184 5.830606414814687 0.12595628698886696 0.581494832023805 -0.45956874924025365
Ni 7.380718312660752 3.5468359824527145 2.0332264461554854 2.1495895670461493 -1.1025090901640497 1.4176535755182358
Ni 1.4018635928381726 6.403229567468392 11.093348418997163 0.7580702267211202 0.04327449441791902 -0.555733663899301
Ni 3.841202035416696 2.3149314631073996 1.280573089895939 -1.3615701022611066 -2.2617372302866983 3.0023337257030875
Ni 5.979004101561532 8.956863713062711 6.963451234881459 -0.7973862507119234 -0.10963235301786281 -0.9587409718047424
Ni 6.460059982781017 4.77766682054931 3.9724254903633813 0.5482363270809913 0.5757275905227247 0.5820884997437459
Ni 4.505801392015003 0.3622189733395412 4.654594940370072 0.33381635073207666 -1.1799782281858064 0.37356406294365985
Ni 9.19262544256401 4.379237713687758 8.090939785970928 2.0008041979779088 1.5052353764939623 0.18261543024380808
Ni 3.658825604873437 6.533434425682597 3.16959667526153 2.3081698107176245 0.5425115087820721 0.2628706156511344
Ni 7.361569440998818 7.252128644498967 5.630158528401687 0.5748667851843261 0.7697232375790163 -0.6265022499724306
Ni 7.501670839418607 3.1526362460752457 8.888630802888692 -1.4594093192987834 -1.5877587891101752 1.0612595965959595
Ni 5.2506560878653765 4.307394433610437 8.602423793779106 0.8228041765643959 1.3283074835532347 -0.5300668552608161
Ni 4.571585375306075 4.355373980890144 5.6084188172048 -0.2177626675689024 -0.7514174972912929 1.0249378793467896
Ni 1.1827112454366207 2.4212912612413615 0.0224987571579372 1.1305197164443628 0.004246433981179783 0.8466113062863226
Ni 3.5003875979972667 4.884521445693551 11.453783214192095 -1.1496968035934458 3.2023210715664394 -0.38135913350804646
Ni 1.5567351106968588 6.228994441698028 3.0501809131431474 -1.7484272827692469 -2.172753149646806 -0.5262803916351904
Ni 4.126418456869855 9.145299440392218 2.362709345039522 0.43417756286065873 -0.4228706224882718 -1.0073985849114455
Ni 2.530097185350665 2.9611848748906406 11.639581420193228 -1.727489247064999 -1.580612150763065 -0.5595473812184363
Ni 6.110590740861046 1.968188437923306 1.0150759916203378 -1.1497027171307166 -0.5489675488200609 -0.43020957935184617
Ni 2.7605838721952147 6.723616052086108 5.452968445107674 -0.9989908204637247 -0.3601267064918314 1.0776100129295247
Ni 1.7351435887992002 2.862910363377467 7.361941961710331 -0.6214019526313879 0.2936253803354879 0.1318780517899406
P 6.304040092804136 5.878348818583808 6.822267752490137 -0.6145484200446641 -1.120221162731832 -0.010416824457949801
P 7.790883222388737 3.091688496582751 4.509202627483771 -0.4463159979954056 0.05239136911752267 -0.1364402172393263
P -0.15992342154287578 6.570238351616943 8.801354521905875 0.32336815881555925 -0.4205103497862113 1.401281819028432
P 1.0728783218720206 3.7740456073990005 9.861024697146915 2.115596755040473 2.2433942090031365 -0.7878772827802237
P 1.7543484786132413 4.7097821565542235 13.128201258835492 1.8853914908328433 0.010262301157956519 -1.332354657039415
P 6.574626440198665 0.4016128051729714 2.5177489173545293 -0.5732161369547806 0.17437195928809326 -0.453814877475612
P 1.8815937111244563 7.9251774057067585 0.48002047904137224 -0.18982326084615694 1.4183940532286863 0.020302459002777936
P 3.6705240623051307 3.504803695655041 3.8337833648059823 -1.575735282286738 -0.7058873740699779 0.5960745296101928
Ni 1.4112186242400537 0.871151354319242 11.91836882505623 0.010026788108382732 -1.0977528064259867 -0.6650978508574417
Ni 7.896804211664526 7.541126291219355 11.062753171588017 -0.7448853525997301 -0.603913051818005 0.1643783384104911
Ni 1.7189263337642025 9.48742096802748 7.06454345944562 -0.7208828190375457 0.8803632059257871 -0.48033117859858565
Ni 1.1428543302124385 3.6002399541281234 4.123707178307873 -0.11455421579951239 -0.20352312693075275 0.9083643191244034
Ni 6.910688671047677 6.510149547123424 8.901939782193464 0.009459602751003065 -1.4746701021125959 -0.5998630501183476
Ni 3.170702100129777 3.294128761939026 9.227925281114283 -0.08150808397782092 -1.3104018069174077 1.0727190033858107
Ni 4.954264045066855 4.0131684260267235 2.2928556429978713 -0.24729847224449023 3.342404541985308 -1.97029420231451
Ni 5.002010183379451 3.316367968325534 10.82403088274786 0.22696695977598974 1.114742399005448 -0.7248358901480226
Ni 0.531507696278851 8.427987002661157 9.918170681383076 -0.15604847838855704 0.18317644495360066 0.7535453422675732
Ni 5.862953163113048 8.635440892631015 9.456085347374652 -0.705288049923082 -1.6306841277187916 0.39647567743451073
Ni 3.9767286180810726 0.6330499333316043 8.28702852651413 -0.5469019245402839 -0.06776399491885103 -0.07682661934175156
Ni 8.208918682487765 1.0719073405688313 0.9524411621135517 1.2416625925694809 -0.12490264891337198 -0.7406070369393503
Ni 8.647438113540613 5.210257663837493 5.363204958171301 1.1220507597414031 0.19386657767759516 -0.8095313707148897
Ni 3.8372247466170935 7.782928644789533 12.818299505020482 -1.4460143860491161 -0.19444276189603932 -0.4708996008720407
Ni 7.415141467130549 5.724252218495937 1.7463630910303782 -1.0307478011603475 1.7792087869264777 -0.7952725468030303
Ni 0.7374472288700814 0.8276196483168359 4.22143738010974 -0.1766718110658635 -0.5264297727288612 0.6468656441201311
Ni 4.839809623953423 5.8116592085003385 13.412249701817219 0.7579128752076495 -0.6189046401308309 -0.4726173548940958
Ni 6.54504885588613 2.498671002018597 12.275946694493703 -1.0023054866592545 0.10531495658943153 0.1545173864560113
Ni 0.7261408985031372 7.673198421170462 4.430575549186284 -1.4091923321247601 1.493051947053893 1.4704876886001321
Ni 8.6763808254626 9.03143320987591 2.7530830416280776 -0.4930208582511122 -1.5095242336773034 -0.32643265667349586
Ni 6.061388130593667 7.528232779876044 3.2303362239553604 1.3215915049856402 0.8753948061769181 -0.9556947287792508
Ni 7.5070392456622015 3.68134490202048 6.715929427981149 -1.9595747590144768 0.7269066566341222 -1.2904621305706871
Ni 0.3869397838643922 7.957219788712004 12.640029205026671 -0.09006034442320619 0.24350146709590323 -0.34380791472714983
Ni 4.932164884060617 1.111978992042757 10.584694261506261 -0.10517148903303178 -0.023839268511442815 0.9864304673002107
P 4.415444112666296 2.615552876390004 7.525043479749414 -0.4278485353188374 0.7250492917104094 -0.5907659729130857
P 3.560831184120798 6.409167491591742 9.754194346535254 -1.507959974513977 0.026492646973889856 0.335940339053615
P 3.508612929998322 1.44572580593801 13.158605110891607 -1.4826929724170723 -1.473026910082218 -2.105687980567193
P 8.41052801192112 1.5535514123854401 12.289994179770419 1.6444055910699424 -1.6051831552342097 2.488326752118611
P 4.945366495240516 7.111224319232311 1.3938679352607564 0.04064142767044614 0.6695471448780469 0.2639599920605712
P 6.133026010779927 4.164426773074504 0.25965253773909686 0.9776344662751355 -0.6347364649567648 0.164058236066911
P 1.8705581351593632 0.6820966264089516 9.326802921398476 0.13219686858194007 0.23812811859913183 -0.25245841917887485
P 5.862458336102768 8.236526295117867 11.784209085303267 0.6216850310894454 -0.09372648042088375 -0.8938884941057316
Ni 5.399627027035451 6.226090834147144 10.810694828002903 0.5926127963138373 0.5040830296025447 0.29974023498397406
Ni 3.3816944700410647 8.670452237697935 10.295794646552062 -0.46894016315282466 -1.0425689621649914 0.45700921604319356
Ni 4.346102976716424 6.878282170053736 7.752205489266409 2.3550567050771507 0.7191085007459421 -0.6810047518956852
Ni 0.24378539615476857 7.1470666002221535 6.7917135850592025 0.6545599274405953 -0.43019595250509135 -1.2728238486636336
Ni 9.15099461918977 2.4294605750903093 10.573406603856686 -0.7930585698708471 -0.7276867293332564 0.6544321436134793
Ni 4.166434090191674 3.467654324449368 13.128924826633542 1.4058175021152564 1.2563813868368943 -0.31137447678879276
Ni 2.8227920301101186 5.23489631440592 7.998867417531876 -0.8336100089306483 -1.3523382992501936 -0.8293841437747588
Ni -0.0916382277602229 4.737940614346711 11.958392861100867 0.631133578096855 0.0010232990581917861 -1.2863673916760234
Ni 9.33163448701771 7.159147848359912 1.4396179600866024 1.4125373373375931 -0.309169498717674 -1.1219839110592096
Ni 7.27141756154117 0.15303598974131122 4.544320407039694 -0.613230472564189 0.9686854846119639 1.8755521361449181
Ni 7.41787702022511 0.610946104146022 10.666408873620718 0.32202989962010986 -0.03171558593572603 -0.23991992039223198
Ni 5.706522473354047 2.1480720606978 5.851349936539936 0.7151099211095104 -0.39599513825366645 0.3804109106621642
Ni 0.28482989620362054 4.657143766290944 0.8970737542067897 0.04039897264233688 2.4535867775342646 2.2139532780342
Ni 2.8858124512305747 6.186570027835605 1.054301768997447 -0.6459251345837327 -1.1131740260770635 -1.563735172502068
Ni -0.27556356020924233 2.020126601285247 5.9315884703463695 0.32489925074810494 0.9149180610825212 0.36318760480534223
Ni 2.558087588686832 1.6116982542725813 3.206928105461552 2.1970431325424222 1.6737367359338917 1.5510663187851481
Ni 8.138233110887324 8.430115692441225 8.157568709722948 -0.9179025976321418 0.4322348373119911 0.9098162210795816
Ni 5.74141244575807 2.347291282307919 3.4579762550370026 0.7754747953508129 -2.1511111458969983 1.1998292014734628
Ni 8.397989282207819 3.287752028957504 13.537787314325035 -2.7904262313633814 -0.8026467277799144 -0.6794569477925911
Ni 5.2673401608346 0.12889309981903144 13.408628128283496 0.5004732007640994 0.8632548283802745 0.4576792455270247
Ni 7.627730354376889 8.021678009069875 0.19609247508667554 -1.3347910343950498 0.27738269322438036 -0.7751163835701296
Ni 1.4005004844702338 0.47695348521351005 1.757130713501226 -0.7241118674978045 -1.3294986756478586 -1.6097473775661244
Ni 7.076110274219862 5.506612361201275 12.445607938144525 0.5732336204562772 -0.10729573446488617 0.0014025367744814555
Ni 2.2213904854472735 4.017808596292926 1.98531785520178 1.0072561457963103 -0.46373496480280135 0.5625162340387732
P 1.4528494476142928 4.8109509392595955 6.323724871454561 -0.8242553071886256 0.17610925369417413 -1.0086311717669663
P 6.880196123584061 4.373075716955979 10.435530059711418 -0.5508418830246384 1.3433769762918477 1.1543954946206958
P 8.838497357660469 9.320234793063921 6.388454779850152 0.1970498605015832 -0.7689570488369531 -1.5090303247600205
P 6.819360410395779 0.9413570370832989 8.458001528560125 -0.09947418153793837 1.1194580593135626 0.06874898453993965
P 2.653523847159915 8.538772234811578 3.9581726051956054 0.36723374985025786 0.47079161453926666 -0.5026105588220763
P 0.31230493254040265 2.6062818722162837 2.1757487623821676 0.17367030523537832 -0.150385880786141 -0.20212444681101316
P 3.658778923080014 8.533525201230882 6.483506380345432 0.3790274000510762 0.5763189442498203 -0.045237531681560805
P 8.468908262775374 6.686905489738607 3.3460351816814393 -0.9871146378514289 -0.31348560959452465 1.1546528620471403
