# total energy = -340873.16054273245 ev
CRYSTAL
PRIMVEC
9.22566680801505 0.00000000000000 0.00000000000000
0.00000000000000 9.22566680801505 0.00000000000000
0.00000000000000 0.00000000000000 13.50269591822173
PRIMCOORD
 96 1
Ni 7.881348919084987 8.676250837725958 11.545089152247163 -0.239536054690252 0.014330814800375319 0.5026033597332247
Ni 2.851266186617543 3.3550337322570383 10.405353020793276 0.6160026359926876 -0.3558972417915161 0.564085635408422
Ni 2.1005459871610355 5.701480647198957 10.114383787230809 0.14816676164763515 2.1879128881063803 -0.023308849929269536
Ni 7.634137946592434 2.509390645206267 10.836331899065563 -0.05741736157720434 -0.8271156594555561 -0.6444904590197351
Ni 6.253719847170287 4.226720877202513 2.4310389006479465 -0.2293457444208115 0.3243863156674284 0.12816717859725668
Ni 2.345764215585132 3.236502362851741 4.453715645633903 -0.5145633603085783 -1.1172124578124953 0.8642570443925438
Ni 8.614448094602817 6.161739947343792 12.064442539688752 0.5066358779313855 -0.38751795402059064 -0.4045437991546259
Ni 4.674424044582668 1.7445182725969164 10.920210740713756 0.9376566403306174 -1.4650580329441283 0.911087117372205
Ni 5.672262959861894 5.282367821800978 0.34114579115287375 -0.3459267608423655 0.6947071890834422 0.5142854240568433
Ni 8.990052674506138 3.2493352656259296 0.6984623313946021 1.0172919327657577 -1.1025384007400882 -0.36927597709126725
Ni 8.998069779114886 3.2658953378614917 4.755973405317505 0.8858124019658165 0.062181358624750965 -1.2359557719926908
Ni 3.9716496364399316 7.756009007445793 13.27802459994617 0.25811741723686515 -0.899021958677555 0.5796683203380275
Ni 1.9628252304298501 8.133800070424225 9.11103899389577 -0.6667333295783356 0.2133838217749164 -0.10614979378590104
Ni 8.645492464002633 0.5476199085126421 7.876541424019833 1.3413182939906059 1.911232363155347 -1.4386990833346254
Ni 8.734335637054704 7.47356521274287 6.135962511224914 -0.587029388688789 0.40801967351836826 0.22111410053963854
Ni 6.422318911295582 7.679279135143189 0.49420145154419953 1.2158366326453125 0.044463886740329875 -0.8713381196090414
Ni 2.748280066079613 2.7357977386508017 6.9513638619034435 0.412673884460928 1.899403231730903 -1.170087965655288
Ni 8.253207878192965 5.632094405815298 4.571365041275568 1.1303996459267305 1.2355958175501107 -1.3335067683659874
Ni 0.7092683551324931 6.428380174503808 7.978499805255789 -1.0867916794287928 -0.24639987168962083 0.5186185042145584
Ni 6.694245445637201 6.080166599874798 10.40506979281688 0.341538916187315 1.7168829323040624 0.06446398401134058
Ni 0.553861994793746 2.2550851348033243 12.357478322655547 -0.15358690422194193 -0.291486222505298 -1.8665692159200176
Ni 8.687552279780867 4.301688647111249 2.604953794089192 0.7942302215814451 -0.012794580661506997 0.9367978918747478
Ni 8.066388121775057 8.089895121249272 9.161484940962096 0.24953276089164766 -1.5794834364752603 0.44386445113111944
Ni 1.7043866212182548 0.1561647101647991 2.9513250030215774 1.2418942489643128 1.788764806046029 -0.35818115272968637
P 6.784592402407599 4.10186992591345 4.690769158777512 -0.9606199339950101 -1.0652769452854685 -0.3835132037365718
P 4.015785227289475 7.0746473723719925 8.861927534004595 -0.16743949383431808 -0.6028604421837747 0.5181775600223979
P 4.741337807214721 1.8684558828546027 -0.014897607045117774 -1.0001480739966195 0.1597012446497959 0.4349090417100445
P 6.945654096607294 0.8872333163795397 9.421627530865562 1.0026459007178086 0.5794024682711505 -0.13744500435475684
P 3.249215331955142 4.663759173549626 6.190257406556799 0.2948703084861825 0.5901062278418998 -1.231811153696698
P 2.7714641672094005 1.0824106045178894 10.169015419407593 -0.7349022732450893 -1.1239646889346644 0.4123735796116898
P 4.8747594031315495 7.6657450816782475 5.8562135338478996 0.5004071234128542 0.36293255137174263 -0.6022688313463627
P 5.446455534771292 7.960671203809982 2.291920455368745 -0.7085299538991475 -0.009529793867306168 1.4144396965666284
Ni 6.871857986405475 4.438431483142173 11.961647390457383 -0.008301834997476025 -0.006310258488743971 -0.646245494037629
Ni 6.313068562875787 6.063929425983662 5.814557802283549 -0.05894691084785332 -0.15350771424457435 1.2642273652438745
Ni 4.1632482883553426 2.2948016311677235 8.667015945075372 -0.10219029491752078 0.4996316786994105 0.30748645458829627
Ni 1.7483007960601924 4.59765726961213 12.280877609690712 1.7844489522794946 0.7182461527456468 3.3427572973390363
Ni 1.2187936395364527 5.450773146919618 1.0432070552377783 0.2004599146243967 0.4648521091263801 0.6477994687883102
Ni 3.7323358348853395 4.751504492230649 2.193108026574196 0.31695788441384126 -0.9510330616375234 -0.6416614742113722
Ni 2.498282942158012 0.6418296520490733 12.314742265487414 -0.017221763194925178 -0.5264328580526546 -0.00834631508216627
Ni 6.73936818285399 8.854573754851966 6.8478251239131955 -1.3986734348713075 -0.5524048566363842 -0.35858147349189856
Ni 4.517347838519889 5.680556834480151 11.281988813508754 -0.49610618204465534 1.255309236818638 -0.42000667067691533
Ni 1.3756115269236906 8.119454158264729 4.6788053138331795 -1.6722061582219783 -2.0878118716177205 1.6232220150137915
Ni 2.803606390980264 5.6100450617244935 4.2204834037549 2.459844071297886 0.6670228357942964 -1.023677010356495
Ni 5.765266908723569 8.358943247492007 9.876601446395494 -1.10416539482055 0.2966456552190504 -0.3087020721629522
Ni 5.387005336728972 6.105288091071142 3.6128892793152696 -1.7360183675819327 -0.5892107126108239 -0.6574439338566096
Ni 6.354860834311497 2.8849583224416513 8.315122251886605 1.3317162521244679 -0.5321309368786964 1.7876702874302695
Ni 8.11287625770542 4.283412600816737 6.490516886771753 -0.40712518672855685 1.3703601897489108 3.3809206957826357
Ni 3.612623580106142 4.744206989646622 8.280014898747211 -0.20510178427178224 0.9526929658384495 0.501854140272026
Ni 3.521630826646892 8.097561650512644 4.127990556844118 1.8861476522725773 0.37168998584939855 0.13620573263101704
Ni 1.7346099062565294 1.3274719966032642 8.34465268933441 -0.7507050446053006 -0.556475427161332 -0.37754104531353694
Ni 3.394362750608126 7.967719613385453 10.975301811106325 1.927877685021512 0.44226445363385125 -1.5417594395619254
Ni 6.277236072311483 0.8080374232922197 1.5718350056979808 0.23520914518012398 -0.7355270513132817 -0.09474977947907554
Ni 4.619503649029296 3.642053457783827 4.115446417446516 0.4230385155247037 -0.0632265120598137 0.39957257119227957
Ni 3.277630386264631 6.9086591720030555 2.133210383683171 -0.24961555041344105 1.469205993674231 -0.7013398639086115
Ni 1.8922396523383245 3.1505191465645863 2.105448506596121 0.12106476322452053 0.8238429022415552 0.2496456323204281
Ni 3.9259456822031753 9.25924841142061 8.131999220229027 0.7597869523019108 -1.0548786327702802 -0.32968793038599997
P 5.677466236040645 7.691779913905967 11.95197889145857 -0.029966978675735483 -1.325646391781304 -1.529188030654818
P 3.4743954116908586 5.502418430693812 0.20113245617626369 -0.8129038867315485 0.04054449708126566 -1.022341065153891
P 0.5780729126588082 2.7890667398141096 6.8903988093424156 -1.5617088861006587 0.11489771518186019 -0.12901461419921653
P 0.38345469993966474 7.446284915472364 10.706233388396226 0.9259444941000118 0.9682010887763778 -1.1049822342948907
P 7.990147209822585 5.0736740089649555 0.2821172060917039 -0.2441203316268247 -0.1479459038860807 0.8689698764871809
P 7.6668337103823125 0.4037825345713297 4.785450333896806 0.9720184056399388 -1.2855734350198182 -0.7286688907408677
P 7.438627611875976 6.528248019601281 7.781806740032034 2.5319941110995745 0.6843520711013634 -0.6708018432207543
P 0.3313139978484509 2.1377161994379614 2.979032448673424 -0.9217883058397931 -1.4130947525029598 0.18633993028324683
Ni 6.9733034205571425 7.564825510544645 4.026841266602622 0.8074377214106546 1.9478266173396133 0.5722861689413434
Ni 2.9672974002702843 7.077341267131205 6.658436019240357 0.06054022347690218 0.038924702089655545 0.9288156450002197
Ni 1.8175117497711617 7.245820397585713 12.37754322577818 -1.058481776740506 -0.77953610990438 0.5978894713317444
Ni 4.298893270015218 2.502803518979976 1.9796574598414292 0.7679085529677807 -0.0686728798863656 1.0807603856330483
Ni 5.293235657507659 3.694150799240218 6.475177370278121 -0.3718123703598758 0.6425040247173257 -0.6504227653437702
Ni 5.8479288848966275 5.410244791860662 8.212974744477483 -1.7828494690028587 -0.8973767097646481 0.9252096728165162
Ni 0.9741566281323235 0.9991120573229624 0.9082373924011026 -1.1577806090428449 0.0788585621701158 -0.37389213570703994
Ni 7.148139035563353 2.0856742119834717 3.3206367554753826 0.6791674415766303 0.4337515310668336 0.7015951744525272
Ni 1.3328874631226377 4.028036913043697 8.626062286768473 -1.1951839893919673 -0.5617248484857293 -1.1415206955405568
Ni 5.495000994438997 0.28336082600109325 4.558577344269599 0.14790708022834526 0.56286976072345 0.5351638101677493
Ni 1.2626063320415706 5.573991155152584 5.801217487825261 -2.1960823112910504 -0.5840060284814329 0.8111583647953514
Ni 6.016435692352086 0.5140753833602714 12.673671452317876 0.3288466654316272 -0.2338012090890038 -1.094114438342451
Ni 8.675429753364416 8.639099076782998 2.861612772139651 -0.1446572058324799 0.7443459351564923 -0.12061610572287614
Ni 0.5419996321862327 1.1758389340608097 5.311312429395325 -0.03945152112740302 -1.2459581346210413 0.21479612874141074
Ni 3.803124377650505 0.20717711318391863 1.4692280600730765 0.12937456864179653 0.35627622239748963 0.5846480329408059
Ni 0.3468804657498797 0.7175880616183038 10.184894637419767 -0.02617331596125815 -0.33672992483444586 0.9931973537103991
Ni 7.392794498301449 1.993205351806846 6.174337595609898 -0.7777551067445573 0.002746195286569464 0.14449831165711244
Ni 2.6873353099859494 2.5843953177829375 0.11687812988183555 0.013116225666983863 0.5023256805918058 -1.0891210988929179
Ni 7.92578895694499 4.614457209189266 9.045685291550644 1.7153446412826652 -0.3467405149929125 0.24790062460486342
Ni 6.68822108509691 3.0478282473701315 0.35826124854084906 -0.6034355979609543 -1.3782298223049747 0.03103347226703687
Ni 7.8079956408983815 6.362481235239951 1.9875426374123122 -0.47209542095235474 0.4454765328132457 0.3703059610176784
Ni 4.504524161412686 3.70033199611923 12.371359261199071 -0.5776021818376181 -0.40405760354682674 1.4548713222191139
Ni 9.059660331897403 7.787542337195739 0.2862696788010224 0.19955848585604985 1.1241066138291673 0.7829502777922517
Ni 2.921658025702414 0.77988714562516 5.849286903076614 -0.24808111604678568 -1.7373689680725564 -1.0463664815342109
P 8.019946114179614 0.7755400113424875 0.000993604334133753 1.4199027765637287 0.24732238350389021 0.1555741098552998
P 0.8948306531405346 5.917628798957727 3.4546515617792557 -0.9226439689718692 0.34719662869372464 -0.6581047073690601
P 1.317462147926058 8.612519930203245 6.936105531279267 -0.4159556405359933 0.0004998224545539779 0.06644116234236945
P 5.380842591183927 3.7084136803968644 10.39282271989615 0.8076146133081511 0.9178673735188321 -1.4813218031011586
P 3.7674487234249225 1.3916549618081717 3.8593815723498013 -1.187495105388142 0.2925131211079156 -1.1875640109528647
P 0.7822821287741026 4.020877795464423 10.700427676163446 -3.561335261720383 -1.507975401132945 -2.026758455949826
P 4.777253328781877 1.601049925334948 6.564822253791066 1.4100227984458555 -0.5952368642002458 1.1058052444168183
P 1.9995618363585466 8.283421937564256 0.9548676036030119 -1.289974135190675 -0.2737970327556511 -0.6887987940188073
