# total energy = -340864.2649682824 ev
CRYSTAL
PRIMVEC
9.25606642097748 0.00000000000000 0.00000000000000

0.00000000000000 9.25606642097748 0.00000000000000

0.00000000000000 0.00000000000000 13.54718882463272

PRIMCOORD
 96 1
Ni 2.9398470895024436 7.853032047415134 9.342751541860855 0.29183049321859417 1.218784659530043 -0.2891223502588117
Ni 6.030031213155564 5.011567690087764 1.1934670491719375 -0.47812980007189276 -1.4655298303742246 1.4222458228746087
Ni 5.498011015586757 0.7192639461800785 4.85826593779656 -1.0280509710544745 0.20283252862163134 0.16199775399345648
Ni 4.5517633243403814 0.19630821465878767 13.471473745881736 -0.6967555869720388 1.0614956238661655 -1.5974626466615005
Ni 5.389326281256179 7.503726605057161 4.820333651153727 0.0957980182379318 3.4173593982256434 2.4569875756856976
Ni 6.912115850545733 1.083052355988832 10.14666869658864 0.41935463891521324 1.5327945170591537 -0.7693013195502493
Ni 0.7802604996432936 4.445975738863958 1.7888524276537292 -0.3039344755709798 -0.345761696019411 0.7145841305130274
Ni 7.27516655184434 2.038583882061775 0.186462536587979 -0.821544850235998 0.165365899134741 -0.6603127707639724
Ni 8.7470107304206 5.184248869075267 7.710979192895344 0.22304962699945458 -1.642470064610126 1.3013744066078168
Ni 4.386912777719058 6.475285042165791 2.8056905854218814 2.758941530491539 0.9782556447989023 0.8846500062265991
Ni 2.495287465489217 4.540804141454383 5.545853772766784 -0.1711475388135246 -1.15922274080601 -0.9854364788180577
Ni 8.846809640789555 6.61932795101032 2.393083829010647 0.017611285323859995 -1.1119802628792783 0.2699655748247028
Ni 0.17868744062156058 1.58597148008333 1.2134638555122357 -0.264785316175344 1.3916761776178679 -1.5586071072468834
Ni 4.524994779655999 3.073699068990987 1.9962864343977966 0.6581990668550793 0.8078311001943312 -1.033046110276221
Ni 6.764203905851249 6.669144101595157 3.521022554498943 2.092688225873415 -2.034173517466974 -1.4968191274058094
Ni 0.4432406345189232 3.390145474824217 12.855306646609703 -0.7716186548295163 0.23039372606935157 1.4042311314647429
Ni 9.022110286632412 8.852770547697142 2.2108068857512566 0.5178350890813146 0.1967079037811322 -0.2930913622088888
Ni 1.5310367246539331 5.88894098956495 3.713744968946551 -0.4374613758182531 -0.9954786935454083 0.16276085741172613
Ni 7.35301007217479 8.310670493571873 8.216072567040452 0.8129398821758064 -0.06788200855395407 2.1428645896174903
Ni 3.9694641728554023 2.665747188486314 6.119481841035882 -1.9831391765979778 -0.5081983373224989 0.2619974690175617
Ni 1.1594611859921462 3.9112990501732914 10.763187526392485 1.0089219635345077 0.03462041828734682 -1.2119195569790935
Ni 1.4655222850702314 9.027432524942757 0.24220997466719904 -0.47126906839631744 -0.3867162840549017 -2.4056809549919214
Ni 0.597637379492065 6.774144921408312 0.17288018441997616 -0.09538484195991315 0.17623009554275457 -0.06144808000315224
Ni 2.4677969476079524 3.006888780079549 0.9011345481145572 -0.9592683050631222 0.7831852766211932 3.994959008960101
P 5.95129911042895 1.5778353975184707 2.4639899274043953 1.4517975683897963 -0.5233647606502922 0.7910775348850764
P 6.6640254967505985 5.858775468428571 8.554115227527072 -0.16636451560258447 -0.7300973956572782 0.24925122509548686
P 1.983103018701404 0.8885018683824526 11.881074163524199 -1.340008316929931 -2.4316922914540187 3.0249818021199064
P -0.003241474532666345 2.3328527522574594 3.1383961978915527 0.9347641492741708 1.202185617520781 0.30067225987994023
P 8.800270137790564 6.521898593697795 4.736233029783635 -0.9997084153560396 -0.5015872597638845 -0.12925269835195158
P 5.391140470315009 2.7511344031175167 12.890882338689382 0.17076830109723493 -0.17260818251945112 -0.9470547937160657
P 4.586816048655652 7.990364307955314 11.585406701661222 -1.1478746627830425 0.578393567390662 1.6395032686723183
P 8.388051210570989 8.630902630655418 0.09282816659239722 0.7115193755447745 0.2508435092832712 -0.30125487185628763
Ni 2.79621144758949 2.726587314423538 12.507848715150416 -0.11745416305512675 -1.8216620709946822 -3.890451635873629
Ni 4.702294735890218 9.014807250063953 2.3763257203830275 -0.4920494954767784 0.4144980821538603 3.178492601688274
Ni 4.004174422705485 5.636250370656351 9.290039168028526 1.2143721322846441 0.22691373794055114 -1.7988592141675537
Ni 4.533584409485566 2.6050273914152373 8.853250937555067 0.21785497017239255 0.35504877774829174 0.52112481557618
Ni 7.089526879579473 8.889415315472203 3.3981630797362548 -0.8528930255299763 0.9486522201101727 0.2812676301010833
Ni 3.820136049967035 8.969739461658607 6.569357224112815 -1.3241631223675583 1.1779365151654293 -1.543422429086645
Ni 7.836084189421668 3.4821507770935014 1.9545480531580697 -0.9742992312543156 -0.2456326545062931 0.8081175210864985
Ni 1.3453507720559335 7.827457535325594 11.31888011435905 -1.3526190637154059 1.6175977268484787 -0.0442689971207044
Ni 1.7130665309343909 1.444427709228008 5.272714651466505 -0.7430886657106235 0.1875365216945093 1.1939138644302922
Ni 6.808984756191168 4.5469871939610105 5.929618625569257 1.5349061640855177 -1.1249633054025077 -1.7533751136928253
Ni 6.497499602069844 7.061425461300847 0.5882165548794214 0.7383174695742252 -0.9697188109724848 -0.8032370530657457
Ni 0.3177774282141474 0.3076225975180073 9.28346828633024 0.4220540401242473 0.38483012277578243 -0.44254573231969596
Ni 8.7389301842555 2.367618538507301 6.3297889308608735 -2.5873849291650535 -1.6544408638187569 -2.543924029767941
Ni 7.42629960772491 6.566355481705781 6.666612567372757 -0.2818980645962306 1.9464978712258607 -2.031418066209024
Ni 8.878807863118018 0.7780445972928643 4.371827240330881 -0.5924055653990378 -1.0250774902484474 0.9305781362172812
Ni 3.206042309619381 6.957600161949281 4.925080854741312 -2.3264619241585933 2.7524775200337497 1.2296429424007855
Ni 0.6462780096153135 7.050133060016287 9.054535213632363 -0.8122474840944721 0.25188840560801784 -0.7615219327151466
Ni 5.145447437776188 4.3588021033738045 7.446456544017851 -0.052402167750800074 0.6377485123102113 0.8157490694898274
Ni 3.155291296305247 2.5561553596263216 3.8218919258061184 -0.2946376236500861 -1.272584478959318 0.10888339066698022
Ni 6.464446188145939 9.155147732257806 0.9784634311405643 2.2960755985572523 2.209330691660524 1.1996600228854502
Ni 1.978465729321433 7.850532909425929 2.4912064657135105 -0.6987690178576417 0.9433341503313688 1.0212989970426216
Ni 5.032393839997813 7.508678600702439 7.633854868941787 0.9095074315899112 -2.0753669609861483 0.31782306062761395
Ni 4.08519277388889 4.42187294136806 13.288274898386328 0.042750760703965086 0.6242468782793507 0.6888111353139815
Ni 8.052528051420154 6.872712774915919 11.987406005718272 0.9290709555441353 0.16905337528865724 -0.7218179292573051
P 2.0767744129634926 5.786837318605947 9.991770272804331 -1.7990008819517407 -0.6167950499869959 -0.49774320342744593
P 3.5869016831077363 5.683345237652943 6.9422980326020385 -0.22101099930287096 1.6772113247460532 0.9291632581476256
P 8.30830094051544 5.1866369342649525 0.6857764227313817 -1.24791474412678 0.6547435042063111 -1.0202173339426688
P 3.081455652824152 0.2363203394726371 4.228281382264206 0.7370887393734467 -0.9186818990003275 -0.4691998445721145
P 8.004452041361134 8.505834658395601 10.24466915321203 0.641218987357315 -1.220606286119814 1.689669090893432
P 5.961804746050242 2.562144034733789 6.11400872883952 1.9476273568446136 -0.3001207582518444 1.4664579986154485
P 1.7785717144514661 8.370085185248586 7.166625286546475 -0.45202847499915055 0.5595931468547072 0.6336216346260313
P 4.106231813331354 0.5597124977025337 9.030799881981546 -0.5997625199847412 -0.12530605499937775 -0.21786808279851513
Ni 4.660133352405652 5.416789030937564 4.961929255982159 1.8476412686672632 -3.3977084567639353 0.34301935738758343
Ni 4.464978443648549 1.3517374580283485 11.381711220227675 0.549061394085448 0.06195021645055137 -0.8893551250117523
Ni 2.8696398241390106 6.286868549912919 11.861742868374359 0.8011477746368847 -0.7100391914548223 1.1402066047148234
Ni 3.645575889454315 3.8479875544467412 10.689910949335644 0.30660945129998163 0.21779172103462494 -0.012770926512423168
Ni 6.9286009052078645 4.794263013892996 12.399755443477284 0.06547211356088078 -0.5121282685045245 1.5506685691260973
Ni 5.829572578221368 0.914554919116593 7.633895595634945 0.14061671721451913 0.030233087852928577 -0.12757351087731575
Ni 5.54895640630005 8.443217367666053 9.873787819547244 0.07260075418586207 -0.31326012384727986 -1.2424136118028926
Ni 2.781151827187868 5.905759262625642 1.6191461484800447 -1.580801898176368 -0.994508873432971 -1.9443240035029932
Ni 6.248492897678667 3.368847265516206 10.630831327270815 -0.38908838383150407 0.1384500485805035 0.14243705825270955
Ni 8.26891637701888 5.018009912459939 10.179113986935171 -0.7022502915380229 0.9340354986382623 -0.2792703971653965
Ni 5.972615831870214 6.05964137029434 10.609142511951159 0.22008308817196293 0.35671022461111473 0.3620869155419958
Ni 2.286942661789084 0.9990165270851263 1.8861882986933238 1.7890255159065833 -0.17127866507475017 2.395657252207332
Ni 0.28999441862747893 2.86796447607958 8.263379397962796 0.4637645324891561 -0.900949514717571 3.717350315767843
Ni 8.7866174395162 1.2353424201977394 11.949595899154911 0.7380583023755676 -0.5099741982759991 -0.36333724300932907
Ni 7.093692109561483 3.1090664995715644 8.233886792870177 -0.16207745819145633 -0.3087717490586231 0.2699828012158835
Ni 1.2000490381501758 6.3386562426892405 6.612058236281718 0.4958087054088945 0.3573044065516879 -0.525017979982999
Ni 8.99631362894383 4.3087452950566725 4.2636117885782765 -0.23602032822750965 -0.4598304875420726 0.42851779347172014
Ni 2.424858054526744 3.8357695464995123 8.231841202145679 0.6755684113714623 1.0572620454007922 0.05563764396896224
Ni 2.5697988018340605 1.4665219402659138 7.675011043590695 -1.1722273805957941 -0.7785449496357044 0.1517627065290096
Ni 9.021740043967343 0.025225558377714417 6.7592482077793195 0.5691527655186843 -0.3868021589004887 -0.09788549689457982
Ni 1.0092259685743639 8.03397889390027 4.634669913115631 0.15643491519369834 1.4147690548815892 0.9203292047957633
Ni 6.734186481780898 8.80098285492082 12.162030033090716 -0.6509128176063113 0.8497868758008269 -0.44833868485238915
Ni 2.2818703372776583 1.5706341776829071 10.102383045813248 0.5828107226217512 1.3698469975579182 -2.944864170731709
Ni 7.141166475289769 2.5153268497359984 4.352372839494906 0.35742062041457795 0.536872822439056 -1.7350326066298958
P 6.816704315757826 8.676266613192817 6.260413785887179 -0.6317688976880087 0.5545625264093352 -2.345666265001186
P 8.506075316127895 2.939976674435217 10.391683259443726 -0.6895750100631995 -1.5822627989926106 -0.09700617961342002
P 0.7257107965855669 3.9016819969481618 6.449708678862925 0.9668409752040574 1.741157488580711 -0.30370179073488346
P 1.8674669783341833 5.049323185858027 13.50695410047516 -0.14146106749268542 -1.5182816681549594 -2.265222103511505
P 6.144797183259875 4.606642543370018 3.525398822800041 0.4953579910247211 -0.7551677083623446 -0.7084178538013154
P 4.915350877503336 6.232220732548949 12.796214066051597 2.5640174580837067 -0.11672936907396027 0.018077169216684997
P 3.3891180514286545 8.207104364085854 1.061520893801829 -1.0231627897242381 -1.4902355606510207 -1.066051618667964
P 3.3087568809757437 4.53986002265846 3.304606460700337 -0.3160744533676234 0.7653659890515851 -0.01818207022566546
