# total energy = -381174.060276527 ev
CRYSTAL
PRIMVEC
9.14639056086385 0.00000000000000 0.00000000000000

0.00000000000000 9.14639056086385 0.00000000000000

0.00000000000000 0.00000000000000 13.38666711715109

PRIMCOORD
 96 1
Ni 3.2475082350126705 8.047799171092208 0.6293228804649024 0.24952633313374445 -0.45960448757419553 -2.0449731791856394
Ni 2.7547830368671016 5.351031688639121 5.065247232230716 -0.748674130218201 -3.497027857891564 -0.9147499109357731
Ni 1.8510739317312594 3.7612792775073873 9.024674826367558 1.7051684720806117 0.9441702730794191 -1.7289714880374802
Ni 2.91844854698603 0.7627110943869668 12.485208896661717 -0.2313496622247177 0.18658315664230446 -0.21429887739001802
Ni 8.85791326309253 1.4483675080682263 -0.02591904116324021 0.544524682557359 -0.022163680581232796 -0.5866897459611832
Ni 5.142612890210596 8.627469956540255 12.401782840391638 0.37537154846604387 0.7633597572548337 0.9084679345818032
Ni 3.3376642053514587 2.8346859035486123 5.669119366721721 -0.31940351774085635 0.5985592437052595 -0.9691757939848212
Ni 4.883065769351937 1.12638712622422 6.210396349116999 0.699345459186402 1.0621558831579836 -0.7416570754704195
Ni 5.610176368319439 8.64586334766852 1.7573078810949445 -0.901943246089408 0.08126588606002778 -0.7306478688441094
Ni 5.826232402746025 8.366806976050741 9.691786018839634 3.3576851222934625 -1.9403549915529166 0.8453560937229827
Ni 2.4000768701116426 3.07933355441824 0.6696319376709565 1.7485504386106725 -0.052883221152276665 -1.8318608659045548
Ni 2.4042384777513046 2.796453991606223 3.225530373480046 -1.5384059497086602 -0.04928599071932157 -0.24364827708641265
Ni 6.455705284013764 1.6228897836119438 13.136483114127035 -0.7531108258333159 -0.6041434226612563 -2.429342046054287
Ni 8.238153848447475 6.165572633601193 12.852016652577696 -1.9052686893727444 -1.9018408946381182 -0.5071894364420103
Ni 8.644061508756403 3.3963291534850684 7.96003315256934 -1.3027964837663242 0.34273319360573234 0.6062167602505173
Ni 5.019648817446603 3.764325025516195 0.9342324392349192 -0.39047857931081137 -0.7957302031657393 0.4876534232916117
Ni 8.189824321484894 8.415804189513752 9.185863493961609 1.0437210734915638 -0.5609589168539824 0.6322723196869884
Ni 5.396214857298309 5.80711644677483 8.99041885033937 -0.46874733041572825 0.2550930285882445 0.34437921384958753
Ni 7.353258868399073 0.16247373544761454 11.334357005350535 1.2682051189446997 -1.1727945659531738 1.5934704947829719
Ni 7.279145666851421 7.822871137961287 4.912116534593903 -0.5286360363515605 -1.5210797997253866 0.865089053375536
Ni 7.254157728232615 3.7098948561455822 0.6186033108963663 2.007882187870613 1.2308991834053897 -0.5920584664722642
Ni 5.961416053106915 4.836675277157727 12.044680319346968 0.6907181225287072 -0.8104130019888947 -0.11492959686106012
Ni 4.439657908333968 8.09925676357735 6.303245931433547 1.6168760181911057 -0.7711067481901042 -0.6773578991717173
Ni 0.24084092317813835 3.881728092906749 12.467685327262094 -0.7596026042052466 0.17946634309186513 1.179311026915453
P 6.153462812689297 5.268823931572566 2.0691769283331345 0.47828766580599563 0.16797454040218165 0.987304385264732
Ni 1.1421280641316012 2.5157329769325805 6.359576720732779 -0.3461339917571652 0.3850782342308465 -0.5525812343132483
P 6.765219135719618 7.128257664144818 11.261666982151741 1.0188975866899805 -0.7950956549055338 1.1653195977323672
Ni 4.283885733144771 5.6949634074835425 6.759731301469515 -0.722785178266581 -0.5356479488930195 0.34398814905875597
P 2.2340332984843356 4.850394862782985 1.8697956782754885 -0.24039403181517308 -0.7338604622441361 0.563029940450398
P 8.809455686664114 0.12167991954946801 1.6791830727104669 -0.05963699493634245 0.9290017928690968 0.7238159335239405
P 6.216929615791748 1.7195579839275221 4.43751948225451 1.7706534411572992 1.1748805019479251 1.346499323970913
Ni 4.122250721698381 4.235373278373854 10.216824499688856 -0.3652326602598291 -0.6603243407281981 0.8734981033748376
Ni 6.718279860100396 2.0295017159829674 7.267982497347668 0.39992764053885316 2.386471986163638 -0.34825540897554214
Ni 6.621812880373988 1.7964608345523099 1.8524339999862436 -0.42433975083463044 0.03273939921455007 1.962756756286884
Ni 6.78072226747616 3.8848653048197246 9.868771417322607 0.054618972896460775 0.006007639646660621 0.2023393910352967
Ni 2.213371602532695 6.86966176788951 7.011668625501362 -0.39842714473392676 0.43128944267958624 0.3643584851849918
Ni 4.107195763072263 4.390614962918874 3.2912865181038313 0.6754431986475077 -0.26259859293667037 0.6549684757329235
Ni 0.3221934927407187 5.122463392122298 6.706144429295334 0.3473807196800727 0.8084689908886463 -0.5089750675875234
Ni 1.2131406393279442 8.965932133915405 3.4404266456017774 -1.6851033258996202 -0.1887598525786491 1.187301501320097
Ni 4.469594044168284 3.269477864793919 7.806447879328811 0.09296286278198183 0.43127992959788947 0.08804537087570642
Ni 5.535148527730103 1.5434991147937756 10.826118614418963 -2.9107569446353545 1.3047746905386175 1.0244295722518035
Ni 2.9589944957038803 6.254146278397869 9.484440092007006 -0.3903705929780374 0.0838704135624104 -1.005859779669416
Ni 0.0991441282014168 5.506776424657067 1.48363050168131 -1.140549589876539 -1.2375580834828042 1.3314938517010166
Ni 3.3379203042831302 7.281423118065214 4.613446643366254 0.3305055411912889 1.0534275021460502 -2.115307505934828
Ni 1.5495540252497235 8.533179817733055 8.889482944255294 0.05222861828741327 -1.096849320775111 0.18523152771041648
Ni 0.15213648499850235 1.9480622557114273 3.888009833845034 0.27017203440855403 0.6340618074872435 -0.19912859740748284
Ni 3.678531883406239 5.1296158694282665 13.109188455845102 -0.0737621214838149 0.16646967372188107 -2.448633033073415
Ni 7.230742968765505 8.181958425726412 0.15059989140847332 1.733973569237762 2.8638759638131 -0.35797392181488674
Ni 5.210332764856877 8.92175506820207 3.9977409089539426 0.022820597438941343 -1.438321902500865 1.0866258432748896
Ni 1.7067621837343634 5.238238402018654 10.938888120424346 1.3913231651538231 -0.9935585937045599 1.8690356751826391
Ni 4.261989274486857 1.5532125814164592 0.8963901635242868 0.185968405876441 -1.1023836203297788 -0.07329803736320278
Ni 1.6880669617223432 6.8387652610614245 2.6853116284559957 1.089841779109026 -0.6861101914430506 -1.6154158887058114
Ni 5.48002323268781 3.882606146386765 5.5327896736416005 1.3466255651361325 -0.2330890135133276 -0.2124317422742922
Ni 6.365585899236643 6.411445900786676 6.816838619315136 1.114394528747726 0.8899989292433381 -1.701651717176605
Ni 8.979276717533574 7.637601853677784 6.85243362690035 -0.9774858565124134 -0.20694012303210169 0.8509492715400441
Ni 1.520715456265428 5.904616968618341 13.2421714846717 1.0859113337063686 0.5377354275496674 -1.189191005033326
P 6.5310441018772725 4.4156120479280965 7.735940184883477 -0.13343614030567988 -1.2596081213043082 -1.2418261147305387
Ni 8.945700318313357 1.0798319990025063 7.6965704619732325 0.6750202521774762 -0.6985129359827776 1.204102632037836
P 2.3827718994429823 4.467133665146154 6.964373555294926 0.44681890577375305 -1.0933089117220203 0.5526249430669902
Ni 2.992022111499088 0.3660851910730488 4.8427878098733 0.1974257557837632 2.117317080165689 -0.6974610976794956
P 2.411299491153105 7.739529228483045 11.828258429303707 -0.012049989185998602 -0.1271896451753358 0.46098851240591576
P 4.08801578236815 3.1549101784325857 12.144063168338263 -0.07002810836267939 -0.9157359289981262 0.6009280010477522
P 0.7069684179915375 6.390948839862539 9.150710257033525 0.5774327461392893 1.3580512904745707 -1.1295416688018094
Ni 7.744385961794387 6.100816189449969 8.602111589109567 1.0841876661470424 -0.3169455431186671 -0.21618838110324703
Ni 7.586839386864323 3.569735569397931 3.019817991975864 -0.16077673710216184 0.9901925054458044 0.7315868357186109
Ni 7.770553784776965 7.0528456751579744 2.4412731271881305 -0.6051435817909966 0.22937685476906303 0.1434986667480045
Ni 0.22521888834617626 7.505665171914871 11.409402224081662 0.4531289071521809 -0.7447477985806013 -0.919160895519275
Ni 8.225943417240995 0.5427751611455572 5.601169003036936 0.5651660129567945 1.576603543824304 0.07756683994188576
Ni 5.852949009153614 6.624072038806948 0.3338752625811063 -1.66718325108609 -2.1488863703315375 0.07641215751215227
Ni 1.905055927971447 2.667188055845028 11.424609927427742 3.099991165747261 -0.01321521313869337 0.9454252285324428
Ni 8.74093092966115 5.316622967890971 10.542402156883805 -2.909718990289144 -0.6202439277675447 0.9226776504232819
Ni 4.491691723415368 1.9087327769190168 3.3477380397565657 -0.3362794675605886 0.6430293010931765 -1.0494602899681862
Ni 0.8654278026852011 6.710276768485662 4.7493217608426574 -1.3741782779434204 1.1278275143241803 1.136472591593688
Ni 3.8801914993167195 8.77644636364974 10.46019439981725 -3.836873702647172 0.7791792407855935 1.3201992526238036
Ni 2.799929619964622 0.652974531443808 7.161398695181194 -1.2623360617584325 0.20151329558957554 1.024452455069939
Ni 0.7878316556668169 0.44365206964209913 11.124360454575104 0.35279700559963756 1.553503724582047 0.0006144936555473289
Ni 4.670467070502916 6.614761013362606 11.163007612642419 -0.8857956897952679 -0.36904406358611924 0.430057370044698
Ni 1.8806076263872347 0.7416844574576943 1.4797487735884034 -0.12721355643473578 1.0089404754772688 -0.8213286204601338
Ni 7.784099588984304 5.5274289742182905 4.633580592590844 0.5267599023747702 0.217931846156915 0.1876149403409285
Ni 3.9934146662867778 6.0988680082911815 1.7056216288493833 0.1693901898027857 1.2249005426197936 1.6791028853418117
Ni 7.516467058997159 0.26783466521535726 3.34167306827116 0.2854374452080568 -0.12033611258861211 -0.3332381096311035
Ni 4.0466740976840345 7.844191374022941 8.4033596107126 -0.1912556224173093 0.03426740582330227 -0.9679704608228104
Ni 8.165915656935276 3.454070316186577 5.516003303309575 -0.8523659493819128 -1.3138298587623503 0.020235096099952245
Ni 0.16090330021304317 2.972009809267043 10.193706083271252 -2.9788685527016114 -0.21111662300729447 -0.01359419374466691
Ni 5.705307975044988 6.245841355899378 4.129612651344895 -1.3429362892100032 -0.048710063611193524 -0.5564564009979384
Ni 3.358883831118527 1.8254091602216074 9.439447168268487 1.8820413434136878 0.5605087166904412 0.6275934261540804
Ni 7.299679313337226 1.5114410163827527 9.575777775987648 1.754583789288946 0.5862572864094548 -2.2365882418248964
Ni 6.581431566683642 8.975535843853088 7.523734780822379 1.0040353248661675 -2.1676068295591766 -1.365306172264771
P 4.994670025218215 0.7428341587330909 8.582112091824106 -0.7330806466553181 2.375620388161115 -1.1905099809550659
Ni 0.6788405235426306 4.489030123804068 3.97944081100793 0.2555532560541148 -0.6293633735703097 -0.7345292061763866
P 3.3401245843735885 8.527545641236282 2.629408890228272 0.44679833694846277 0.30209253726623453 1.5332732564677851
Ni 0.3289773705128886 7.799694184645016 0.41507600206276707 1.9037872197312118 0.7620844900868359 0.6071333585275156
P 7.725846228419453 2.6628526667874457 11.594312969860827 -1.3746647306615356 -0.16054379515574932 0.7808843964021585
P 1.3936172150330242 1.502907434123841 9.293733278620689 -1.874142143171269 -0.5308955218096987 -0.9373568497020114
P 1.2123906353137635 8.769412789419189 5.729292554635067 -0.3944797300504045 0.48365972875118635 0.3326524123309626
Ni 0.4391730822549728 3.1532089498150535 1.5527863596230345 -1.743665085493913 -0.2442247184151729 1.3974660448267677
