# total energy = -381173.5738469175 ev
CRYSTAL
PRIMVEC
9.22921500239519 0.00000000000000 0.00000000000000

0.00000000000000 9.22921500239519 0.00000000000000

0.00000000000000 0.00000000000000 13.50788905935080

PRIMCOORD
 96 1
Ni 4.415330345589594 1.5264475758099776 5.232240477828905 -0.045135973106690014 1.168953852050845 0.6073917543952249
Ni 8.6334600517789 8.676062108757968 5.110696329348441 -1.6525780995784054 -0.8716317395900602 -0.33284678772995574
Ni 0.5986364259628746 1.3039958038501733 12.070636647823878 0.2575142364352275 0.638525499685552 -0.7629239552689958
Ni 0.42565324702902374 8.185686221957972 11.977121625653082 0.814638610034468 0.5804872166948971 -0.914943772114134
Ni 1.52879179644964 7.625066778904148 3.77157782444984 -0.007182890901684403 0.5128404640802007 -0.7525685801766007
Ni 1.8288151214659998 5.418084568027992 4.579971236979385 -1.3028628182278852 -2.129011485784482 0.8167191467125805
Ni 2.225948247941143 7.20815544443374 6.097501545143528 0.29753808512633273 -0.7618929429013201 -0.4813619338559451
Ni 6.56167661314849 0.8392457557434364 1.3836937680696353 -0.8423977824256071 -0.9554841554303416 -0.3536297859135781
Ni 5.356405723402536 8.152461047537557 13.405067634364665 -1.0099496334680735 -0.46496729454800567 1.986202388904334
Ni 8.084091021952434 4.922318819599797 5.1190303105988955 -0.1978733848441431 -0.61320450442226 0.43781335984103303
Ni 0.9623948647327094 2.4449390642321536 0.9933321167256756 0.08735091591184312 0.5183590799055847 0.2611981130447179
Ni 2.8972628971056547 7.593779739658256 1.173490087491313 0.9044994368523582 -0.7927821762810088 0.6347534342376294
Ni 0.5475545661345079 5.574418242891168 10.396819733793658 -0.3344830377817981 -1.228492116625794 1.2788032061755203
Ni 7.025712320005187 6.627148665186943 6.513774217927853 0.7389913557127983 0.47033421528687386 -0.9486974715258112
Ni 7.488834334565324 1.7175753916634224 12.215927566799824 -0.7134703286235583 -0.1346173050979746 0.8324656109135598
Ni 0.32666068568641665 7.6920616514368705 9.566409105681515 -0.2407282752261403 1.1222597904284157 0.26520543443189815
Ni 1.8496823768450446 8.593377570526714 7.735630007238664 -1.218944582146675 1.1496680072380394 2.3967633407873175
Ni 6.2843756157496475 3.4133606064361217 4.117825673378604 -0.6959171502311434 0.3335625828500578 0.04616390015057211
Ni 8.732701801929661 3.5250525677794213 9.122687824218367 0.39924012755352534 -0.3868970326071401 0.6106873944273611
Ni 2.0163527726390162 3.4672961395785977 8.881126039437754 -0.6559346963009348 -1.3679680353676504 -0.7898901994451946
Ni 8.421704940139447 5.778873045373246 12.986794990664533 0.5660638421807155 0.23893518788145948 0.2754163135266289
Ni 1.9401932894953287 6.096191919518456 8.52318108326998 -0.2648220829505504 -0.2938038148948811 -0.545200625578461
Ni 1.7784697530039522 0.23534960008550743 0.6260665762114634 2.333091513659969 1.5161311974708598 -0.8174377700461599
Ni 3.10757825118689 8.644119795238783 12.354572527970175 0.26482516827434394 -2.145225633650499 2.828636938105148
P 6.54526706867085 1.958540969147492 6.092192900608355 -0.15710957266321973 0.18052229516020524 0.3844004914375315
Ni 5.89382291965277 5.625132779957887 12.898008095398064 1.4921263499158302 -0.1590597544110551 -0.3917237645718221
P 4.165320137291078 0.9357685791207925 1.0057066483542572 -0.254104182312414 -1.3695310089793962 -0.28732797736255034
Ni 0.25103926578403735 1.595140623924188 7.218886252850022 0.8498244139069816 0.3058041817898669 0.7946112590699476
P 0.14182904038564054 6.526725575501234 5.79058861104249 0.02022352613572646 0.9188960718936626 0.4031340632912928
P 4.634173494438736 3.9326516241969958 2.162113458664406 -1.4081939727672328 1.5190159752178227 1.455005790914449
P 5.065223986468054 7.197707972921543 7.5333496078381 0.07786303102606591 0.38503915346279494 -0.15906026863168735
Ni 2.7393233388121594 2.979070659900813 2.956606750306565 -0.03215730145883494 2.199241939965954 -0.053104336024147256
Ni 7.278057519728249 3.8395934481744796 7.26194977058493 -0.34400511833962044 -0.8218901493905586 -0.40874523883048314
Ni 7.902275484151821 2.5814483850244807 2.14901074196311 -0.6893011875765226 -0.8587253159410373 -0.05328739856923081
Ni 5.710133851183452 3.0588387661551626 0.7125194029748984 1.3935355994241097 -1.5815791426620247 -0.14021253979756498
Ni 5.049866572513729 1.9553476607170852 7.714449881467161 -0.6224543051553022 1.95502262086742 -1.1191171310343757
Ni 6.2744542094991065 5.616595755974863 8.444619235431395 -1.779945665092502 -0.20843007731406685 1.43574874245705
Ni 8.166295640997614 3.4731566911777545 13.464542542420233 0.370009255712866 0.400773019258284 1.7321252031751135
Ni 2.5847155271758213 0.1300147221146475 10.519228659730564 -1.47345114210383 1.5122742856186149 -3.5614453049356856
Ni 7.382615297786276 1.5085521276985365 8.5980549367479 -0.6110591759444831 -0.7252063861135639 -0.5765562570716071
Ni 8.726693582888636 8.478095444502987 7.4754685852332 0.2369245852093339 0.04206941836622432 -0.46299937218835746
Ni 3.487766538707621 6.090119095971613 3.2937638223452983 0.35513876635893676 0.30561674836940916 -0.17466120839373792
Ni 4.0394336430981665 4.6300480352815345 8.910546931387032 0.7254850936962473 0.7083443202509027 1.035359588900746
Ni 6.968020496310181 7.966224715696005 8.881868991254654 -0.3513587304912142 -0.4880560580466691 -0.8084759328671819
Ni 7.375195008832383 6.698259767661751 10.82102122528481 0.5753416679382156 -1.6520253123987292 -0.16442616092929102
Ni 5.70841721717173 6.07441097184285 3.886571076040413 1.6415028156008507 -1.0173778076113447 -0.4916664011057467
Ni 8.322343210192168 6.617808699488759 3.676793785200486 0.10442381223372985 0.7081735990009933 -0.8009096904841496
Ni 8.489059752061724 2.711903340700199 5.448285328654639 -0.6866377818117465 -1.4194258369273103 -1.5397208118653418
Ni 3.0549532665909975 4.576869297778635 6.926643156177111 -1.0185432886743555 0.23193741640738766 -1.095405903460365
Ni 1.927549264785337 5.311311778341938 1.7047495514156301 -0.5112551218709518 0.17498542450237606 -0.6858826488132768
Ni 3.927344825504846 2.142423851134263 10.454147003491551 0.23537086756896883 0.08536988092607233 -2.10254352140094
Ni 8.86226152373905 0.4109344947607793 0.5031814227745303 -2.4267855981810205 1.421952717114222 -0.594281442265512
Ni 5.641090092894804 8.227033105681157 11.189043561438599 -1.1603581399620337 -1.160778258218588 -0.8501386027132907
Ni 7.737386326875389 9.217087928118863 10.673947221948302 1.6755501349935467 -0.5483224590368944 -0.3814491221186914
Ni 0.3859371656169744 3.9822955723101674 2.984041515162712 0.029409306400052574 0.8643208077509436 0.6170552456269179
Ni 5.343383300872757 3.2635058405849273 12.026317033911578 1.129680765482835 0.6254807506864518 -2.200024069547618
P 5.93951676369596 1.0240091048523483 10.845727834152436 -0.10278756218188749 2.141374635335525 -2.365468387328778
Ni 1.7235097769835135 6.600060918819186 12.873896770905468 1.2718553141027773 0.1874295638029998 -0.19468650247572922
P 8.753052221262166 5.643489688825167 1.7453950147899393 1.6278805968317256 -0.26315986475677905 -0.9875825786267832
Ni 3.9361771843716067 9.157605636691201 6.922739198182712 -1.1181804781527196 -0.5552945194793534 -1.208073700870442
P 3.4058664837612946 3.6413775951113454 5.033795740230875 2.3551492647909567 1.2582798894111877 -0.28219605545262366
P 3.278226438696195 8.937535002231527 4.591493912052688 -0.48493062504381 -0.17541916960568496 -0.3914627976009516
P 0.17757009884689176 1.83787821071068 3.431895639155156 0.6137534349471946 -0.9853858280857802 0.681144105687027
Ni 0.48946865495401504 7.6254359475088185 1.0050098426129401 -1.0541291561987651 -2.117141730930089 1.3230896867977213
Ni 3.732266905581418 7.4756365569483245 9.330060904520373 1.1659374338220243 -0.6195942099986878 -0.8671690758330163
Ni 1.601379573343133 2.7710995264592406 5.170036490863303 -1.3177765021149241 -0.7462346675387729 -0.08984977107429687
Ni 4.747508256072822 8.301208307574738 2.5587315949360327 -0.5473104728326122 0.438741013861625 0.22617943087768788
Ni 0.28247581831482127 1.0031695371186538 9.520347015955165 1.1805893794072442 0.22839649313366472 0.3516616064436137
Ni 7.616529754921124 8.030570803490212 12.786918801801889 -1.240718997709289 0.39147128224138383 0.61339245206335
Ni 6.9940837997999745 6.925538419127632 1.3578132030391545 1.5545347369497227 2.1754011287926147 0.20328298589548863
Ni 6.341181434793444 8.94288794699926 6.648488456379966 0.8689529072063165 1.3465391760699132 -0.2253188826496055
Ni 8.483725265724223 5.893103040873661 8.378633116110935 1.4952124450403217 0.014783586067077767 -0.690725835838191
Ni 5.9884408330300225 3.3811321872483178 9.337990646148713 1.0338104992460713 -0.4064088773878227 1.2872623926864668
Ni 4.963536494311347 6.1768921764996 1.4648767130013876 -2.3541848439951583 -1.424277508592657 -0.49321343387789257
Ni 4.6309432691478625 1.0539302202609566 12.425353224543802 -0.10766957286453714 0.3920091570227249 1.3878102669045584
Ni 3.849542542070371 4.301211100670581 13.31917040635126 -1.0246036359358226 1.3116369648760895 1.3563399642104188
Ni 2.6421212452022074 2.4173713986783247 12.472158266087051 0.040580235415207534 -0.36684962703796176 0.5188717578759452
Ni 8.415401386214684 8.895182134060613 2.645304401495986 0.14133559765841464 0.691341615045319 0.7621536527618745
Ni 2.109844721772021 0.7678882332250104 2.935872395625202 -0.4400687315341131 -0.6835275183175389 0.41506423906997547
Ni 1.3956326807447048 4.4969442948672995 12.81208410266082 -1.475326247639356 -2.1794873830468466 0.95466937283853
Ni 3.954506405593536 6.251113524468764 11.762656816455342 0.37648997834120324 0.5784958972964812 -0.3604331819886567
Ni 7.865515520341678 3.948876584372299 11.312586757913358 -0.3070156855994648 0.797167192722582 -0.7971029151435498
Ni 5.020951441552849 0.1008033333485198 8.859243570395863 0.8849924771676823 -0.08157596110127885 2.7176419004118038
Ni 4.679092084412115 7.4678194117444106 5.3213245538221345 -0.058372526401622056 -0.19854804231366452 0.2672054955810624
Ni 6.8205653263893495 4.739811090665426 2.1344765739972016 0.2358886877456518 -0.7308836390039993 0.09400930176862518
Ni 2.683781922239363 4.363960534249584 10.90667480201913 1.80150333665862 0.5099870537918056 0.03218455515234458
Ni 0.5153547575135661 4.017200463881839 7.012445323274813 0.33780618861776013 1.323753031413333 -0.2384376794197507
Ni 5.392113556689367 4.891096384859723 6.023451860575537 -0.8234263835294271 -0.26457371438517013 0.013553313204402466
P 0.9388695954000313 3.2017254745931867 10.98287304786631 -1.455833429022067 -0.4641162594016201 -0.47724996857010066
Ni 4.572836130772601 1.493434673337247 2.982014779523067 0.648145025053187 0.5832169569212342 -0.9140040339086839
P 2.2527406594251618 7.161584824954456 10.717564492590215 -2.1646027526255303 -0.753497005528141 0.6546378318663822
Ni 6.756422281327713 1.106222953112645 4.065793204393209 0.6259247802024059 -1.433993193218524 0.02827853522971904
P 6.553804092653874 8.034151738955524 3.6342166471022344 1.440153813503281 0.8239010091730005 0.3239168322301776
P 2.657450971511183 1.362084483795201 8.166356553817383 0.07342710674189935 0.21873248768133943 1.0554005667120212
P 5.657914952052698 5.10696772644126 10.673136896861049 0.035629833388467674 0.3659754519631246 0.1362584402458234
Ni 1.3593064900450498 0.4025986676673015 5.481582490952967 1.4002238100775628 0.032825016949820894 -0.15402861974505086
