# total energy = -340871.0728468582 ev
CRYSTAL
PRIMVEC
9.22716897069866 0.00000000000000 0.00000000000000

0.00000000000000 9.22716897069866 0.00000000000000

0.00000000000000 0.00000000000000 13.50489448514666

PRIMCOORD
 96 1
Ni 1.364199996707175 6.028949041898312 5.565042981169921 -0.9482603839883926 -0.5684241148827759 -0.25281708806987424
Ni 4.642788383474464 8.55350242243673 3.815820912424272 -1.9571826046332161 -0.044563131322355516 0.9665398990238709
Ni 8.302385023857223 4.228922181803084 6.313713311465148 -0.8989168005582584 0.679040686190779 0.7263456419243297
Ni 0.9064143170362085 4.907137542096706 7.990252048946765 -0.6902656083723209 1.3880501508295064 1.4196042714867034
Ni 1.2654877450076134 1.3848319461183003 0.252560527778031 -1.598741513373924 0.25859847063834174 0.09211439873875749
Ni 5.348011666812078 6.219960662989415 3.0506477907507814 -0.4297488376653438 0.5338108956842806 0.1651131596939866
Ni 0.745512793135796 5.562174254393571 3.2894681414858304 -1.268161410190958 0.04668300587883573 0.6749541748262311
Ni 3.7183552512280387 2.8756194714351486 5.135317121784836 1.1322495546512759 -0.23671786851516652 0.08355005410851417
Ni 7.418413026748448 6.566976026787985 8.752791736648012 0.15351259934058076 -0.6585497653262787 1.0617439924315457
Ni 5.084834358625978 5.422271921222067 12.502817399308881 0.7680443072146966 -1.3180076442891238 0.3859225845090128
Ni 2.567395125223506 7.9169754107296315 5.695054712117013 1.1000403169085828 1.3567012042045796 0.15648556592597565
Ni 4.7610991416808375 1.383826184720352 7.181754601660548 -0.03780267267007038 0.3424097488280426 -1.228992196190664
Ni 3.7072549671754524 5.047824184615234 6.413339052874773 0.0895083285744781 0.9524366268532696 -0.3125615551183585
Ni 7.375949595983689 8.839323202829853 12.961551631931307 -1.333022372530401 0.19960682259548201 -1.936263337982046
Ni 2.9617181834008064 9.225673987173874 -0.4141125670780339 0.2246033446398196 -0.8900112705385125 1.257502644925531
Ni 3.802396304553857 8.08871147622152 1.6525665529690485 0.8767708605888385 0.47321050839340445 -1.581526177936902
Ni 5.797485512838348 8.026815627988144 10.168172070474457 0.22849728037758713 -0.49279640094513194 -0.7792057231481548
Ni 8.296129003418608 8.442850214324828 1.3878981343067247 -0.03310835251819459 -0.3052953604742484 2.1951587710355165
Ni 0.8977859915020655 9.224013096791941 7.142549284195016 -0.12549451686110003 -0.2751833715802164 0.9773896972541811
Ni 8.416275968213897 3.6856449378727443 10.862296915193243 -0.836446964158811 1.4992148813314956 -0.41388487404989366
Ni 9.222592112798507 1.7422555563103188 11.387434468002235 1.6298870857387928 -1.5521968328451654 2.2961100513396135
Ni -0.011643764294230375 6.003666599417773 10.889239325338835 0.05771586665422963 0.16040906935009794 -0.32497021319535646
Ni 1.4824461647320282 1.8067073302981143 4.821922792900988 -0.4189556037045817 -1.0254878383129886 1.4381390970660974
Ni 5.9252633462217394 6.18507273780003 6.7792405857496805 0.9117553470838233 1.4018978553458759 2.246016991337964
P 6.206627404090007 3.3717458828561635 11.55399040093625 -0.06544511697768729 1.2911401304743184 2.2862562984739854
P 8.146879548264337 5.614676844800236 4.665670839353109 0.3883131962283764 -0.0842265113502485 0.7722873987617667
P 3.8646981482139284 7.046539670233611 10.391867246131369 -0.6850221005851944 1.143050759031838 1.1961640939170497
P 7.288411445687023 6.926669520501978 11.396982742264592 -0.9822655372892438 -0.6992346446401506 0.4778166397068481
P 3.578434463718958 1.7383893725879298 9.455870625959173 -0.33873847062404244 0.3307433682337078 0.18437792146086956
P 1.2254787411406014 8.192332581716574 3.654207973810265 -1.277333306498213 1.2700629980890448 -0.03467209746088867
P 8.614337146259427 1.0493320889678 8.963900131360507 -1.5830431288020608 -0.3615690953653128 -0.9228026060369204
P 4.211593558818248 5.9991083780362455 1.1353006978535398 -1.1509332471037084 -0.3400785295917046 -1.308726476097514
Ni 3.695370373775842 9.353396457544532 10.959708136093623 0.9381135253623779 -1.3147084047125617 -2.7001380872000853
Ni 5.96614893112366 3.558429961785452 9.49927522794036 1.0720790558089666 -3.037605661531504 -1.9704230145828903
Ni 2.3182615679335306 5.627235021521409 10.05749956259122 -0.1400842417498168 0.3129996710970416 -0.8351143613903166
Ni 3.0985201878593682 9.013135381299158 8.40019301301551 0.7372149805386657 -1.4207242440237597 0.3562402269532316
Ni 2.6964278535621364 6.111698291593738 12.804409256595337 0.5913408715799493 0.8390059831352388 -0.8638364119153574
Ni 2.764681221090801 6.887527870501087 3.388796768060465 1.0873408670640434 -1.5562298652639586 0.08306205872850211
Ni 7.411160472080673 4.4543326881377805 1.6169948945724344 0.945095870217482 -1.296642034129154 -0.9533403696144614
Ni 6.492826498403457 2.685143026133779 5.347127704042137 -0.5918640910732711 0.8828870007889054 -0.20291814635690214
Ni 7.215839763165332 2.063047306411922 2.5262253435228983 0.10737980953826023 -0.3958814954939376 0.208986206927853
Ni 4.824028432818528 7.7457007036771675 12.355803687152067 0.20867536055565353 0.4326829805930032 0.4651490715415086
Ni 9.168880763280546 0.7868099097656853 3.241039346099296 0.21247802213119538 0.038537236843249764 -0.7515344824851314
Ni 6.943878190292564 7.575736254592673 4.896712686799439 -0.47397566869420305 -3.4415817611081176 0.4191484364416781
Ni 1.8059876111326099 5.363910078634693 1.3229084163785587 0.4626862118233128 -0.7036091195587625 -0.46685448426838955
Ni 6.057691672674544 0.975763872216949 9.149336697069588 -1.230863702181764 -1.1384196880177297 -1.286326768246075
Ni 0.2507999839731818 2.65712934169184 7.467882646774327 0.6480838327979483 -1.9608680239046035 0.8593063852554877
Ni 3.7654599478934214 4.44083334020018 2.672916104772115 0.5104981891002691 -0.9383305264691905 -1.1332147467780227
Ni 2.266054246928098 0.7863199471030151 2.463967790273012 0.7733425794991584 -0.5365244379607018 -0.11799897981500324
Ni 6.274493230529553 0.43235652520669093 5.03140997405734 -0.663996904483779 1.0793689046021604 0.5697490043417864
Ni 4.775751885717003 1.6415871448275916 3.1321633679791825 -0.2419541772134414 0.6952170388403253 -0.5389757277146718
Ni 4.047276137032327 6.678624769129049 8.189422332680676 -1.2121774386261703 1.097785202325819 -0.2130115260371622
Ni 5.245645456272263 5.461533524417209 9.729601047088702 -0.43098605250655453 2.7784544037134857 0.8262486834695705
Ni 1.298419510413833 7.724229081906287 1.0379891303760753 0.43970877709153305 0.4581983512552883 -0.050872618480151094
Ni 8.884693191762993 8.678198381444759 5.350422726016516 1.4249282548027782 -0.8576079145071422 -1.2413504606457009
Ni 5.391886854401479 3.24621947865717 0.7567533301539682 -0.7132607837159136 -0.1357128521549985 0.2810431727951031
P 1.632110842481784 6.93064643024983 7.546359717320669 0.9056248087060533 0.43556981522249505 -0.3746102448199871
P 5.913037347576953 3.7471163363418487 2.9832848450102087 -0.6972870339954764 -0.09146005298421024 0.9952850894773633
P 0.3066409640475327 8.648569942464826 12.76658155542993 0.8161545324583621 1.0714478499828708 -0.08672896605712806
P 5.328191708254342 8.567684580864682 7.586023625074992 0.536365029564702 -1.031782413072449 0.9241922872955955
P -0.2609184972666702 6.065599356326304 0.8451200802078436 0.11184401595720093 -0.004110679734263888 1.1456025789194142
P 8.18364058871779 1.3798954108164436 5.156479633401302 0.9354454916119116 1.7352043563210695 -0.045765893381205056
P 5.133913669412103 3.5597771284285753 7.089219016748021 0.8409309680720938 0.1326828070794231 -0.5364758441109535
P 9.282531801248718 2.597789419212883 1.7145675909266138 -1.4036554614669308 -0.4280136001417919 -0.01983580377900455
Ni 6.126600169187193 6.968210234387884 0.8131940761995726 0.6969381352964901 0.25529640284830224 -0.1329622859930549
Ni 7.537545002976999 8.798354573408833 7.3311590732504675 -0.4503924820576243 0.15861083979909457 0.7700682796232609
Ni 8.800522958074135 3.4115149803346747 4.180156594755768 -0.5662348205409409 -0.5908400206841309 -0.6003489886158305
Ni 7.68424775954564 6.362566556615954 2.745490555444442 0.7148281282030334 1.8556240297624236 -0.06816508701201163
Ni 1.1932943764062518 0.7160532113446957 9.81939524015416 2.218705962227837 -1.0490206313276065 -0.42363295457559297
Ni 2.48053978541719 1.8447878558883264 11.658653253787527 -1.2718583994265709 1.4109401680538025 0.024290497116248488
Ni 2.3886740929587083 1.7139004666232038 7.470097167283572 0.30085429398375924 1.662930132236691 -0.4234347225218579
Ni 7.317781523940875 2.316130091943383 7.635464640877626 -2.0567503743262256 0.18544775748628062 0.13424603780148492
Ni 1.6260301382501507 3.2515527822169332 3.0377638949713743 1.0526885670974966 0.054327409797970946 -1.1107533324507126
Ni 8.563264767014982 6.594851303698097 6.669567380246239 -0.017162113601583345 0.7192100593208129 0.3569069140029531
Ni 1.6603275246370706 7.832851312884717 11.257395978265656 0.4920608083306881 0.15140275208642956 0.45759465623301837
Ni 7.081058508671456 1.4638534196231652 10.961450225560895 -0.9837958578908411 1.1118460512942592 1.8214576682933596
Ni 0.6217118695002551 7.775190735125269 9.154089611712553 -0.620268353247577 -0.8346603045720334 -0.5529507018375251
Ni 7.554246178484215 2.163411221324628 13.5093511112849 0.09108364348139797 0.21803494739368257 -0.43577627480634623
Ni 7.710176103841374 5.2199754727026075 12.799047348812328 -0.9559137867685924 0.21663626727394306 -0.3852605254449816
Ni 2.958562491675133 3.792809276182588 -0.1874628519750392 0.32452952611351205 -0.9946124888903709 1.1541052170737867
Ni 0.41840689143221 3.7597760119196946 13.292569853201224 -0.6837203510546354 -0.02882360909991165 0.3364424755010141
Ni 4.852992515645685 1.7549336862257419 12.23101822460679 0.3898954531138317 0.17382508564568774 0.953363766653229
Ni 3.750576524637543 3.796103375440089 11.11751209943173 1.0048349379493275 0.14367838685897835 -1.3375405721157287
Ni 3.3925623756430596 3.8087261423427807 8.569274422046943 0.8811659043327404 0.19658706193255174 -0.3327388013971818
Ni 1.3969010828936814 3.0402321626223023 9.623155505227482 -0.04775129924235002 0.9423936407949707 0.859088612817727
Ni 5.8554874958429695 4.921125929980098 5.02321255730562 0.39191196932322825 -1.2838649369691435 -1.6951298568976871
Ni 1.7368207538938818 3.788878502278679 6.292942954522195 0.5439788373562181 -0.7868624683624642 -1.4308518193760646
Ni 8.108448390260161 8.723070103263318 10.621451200909114 1.4279984090876696 -0.42610532737548545 -0.7375600225829104
P 2.6715606336770814 4.682262211551743 4.434534874785138 -1.221744256378999 0.18060996977800509 0.35865397860104686
P 3.307543242425658 0.7604248206149192 5.429723782735674 0.4928586216416351 -0.003460704855090814 -0.15935903081902877
P 1.5583580823551626 4.3117821575239725 11.561256796357208 -0.15063064980709542 -0.28792524462691704 -0.06250917427781492
P 8.060070344301963 4.321129279506741 8.733669352050688 -0.15756491503308348 0.3734846158559761 -0.3149783920899672
P 4.609662847523686 6.801779790949393 5.1703757495968095 -0.39519861049430005 -0.03917178510345512 -0.4342788643252134
P 3.430735172921157 1.8261951107794634 0.8192646305455383 0.35016291041090014 0.3959807400759632 0.49266347491169343
P 5.470936009412709 0.2612986566207572 0.2888316055688149 -0.5082428174071891 -0.6620660060096533 0.02324405812960513
P 6.575954062019212 8.495768027326976 3.0392356283931425 1.305497170526939 0.40559383768569496 -1.8117527823007702
