# total energy = -381167.9350836804 ev
CRYSTAL
PRIMVEC
9.26381793141123 0.00000000000000 0.00000000000000
0.00000000000000 9.26381793141123 0.00000000000000
0.00000000000000 0.00000000000000 13.55853394368473
PRIMCOORD
 96 1
Ni 3.3184478338594046 3.316835929524893 1.9968873044105102 -1.5927744971572118 1.0673348562557619 -0.6189581190765856
Ni 5.674375712200837 8.227057821350886 8.360816236897733 -1.4226559138288337 0.79214454269701 0.2936359218584491
Ni 8.949867221927299 3.497313632082146 7.77587375515757 4.163608463942119 -0.2992707515467233 -0.7705871282412083
Ni 3.845040305072036 4.463057396269142 8.95577753782051 -1.3596608010535358 -1.3915640775200357 0.3918232662641639
Ni 7.9778889082165865 3.747121748659442 9.79281352004213 -0.434718008745161 0.9318829710716339 1.903269399554529
Ni 4.282913191160408 6.486145557169883 3.200587056407133 1.335699662252248 -0.7523983731473236 -0.3438904471386271
Ni 5.563849099470595 1.0266441038139023 9.937443026028918 -0.14006315870389427 0.07163581916943147 -0.7205845710708365
Ni 0.2523658567310821 5.825950302553048 0.11544199456870256 -0.17968977195658084 -1.2125502485845567 0.7324517548220676
Ni 1.4542712071783082 2.5237512054909645 11.441951918299516 -2.2934664430691787 0.842261513958059 0.3966440846915749
Ni 5.6943762952940045 5.232880673268819 4.854863168135324 -0.8327900841325142 -2.3376073992524518 -0.7962349107162997
Ni 4.907294525333432 2.0455621834037645 3.4121948930200983 0.21862424423824925 0.1946695331948647 -1.1519256929239645
Ni 2.676261441462634 4.82627317297917 11.359068538524351 0.9732373656487043 0.8288035886809404 -0.9152373920951529
Ni 5.887147084356416 2.8701624163228057 5.334198124510911 1.5446730136642948 -0.340473193926962 0.4588043602704034
Ni 9.459562489081598 6.267778838933585 7.261801333991451 -0.4166066438564309 -1.2714148841312491 -0.44490600502175637
Ni 6.311883876500317 7.667791864001337 11.227279610687374 -0.6040976570249854 1.6899375140634705 -0.5657992756654191
Ni 3.7633890130927923 9.147242128542883 0.5094701563765484 -0.745359206912355 -1.2724338123140666 1.842442498075143
Ni 1.0309332515545864 8.111602857436964 8.307706768220969 0.32811595791318976 -0.01693174275833213 0.35774560785416454
Ni 3.653158842539012 3.9764568274248333 4.195674890536658 -0.6394151013793568 0.518787682802571 0.008607796273669047
Ni 1.1297040792245088 5.7510986529964 4.9902047701808385 -0.5971711051084811 1.648603945422006 0.5151940519140418
Ni 7.04150218331734 2.521333348989197 7.908815101955543 -1.8194401236426987 -0.6988847174998996 -0.4126296614865539
Ni 7.304316700386905 5.55667890432742 11.817943426433253 0.9805341564204338 -1.067818994981032 -0.3661124917616211
Ni 3.350519171825384 3.0788299170979885 12.668714871624879 0.8979523797624599 -0.30146621653614536 2.544239247015515
Ni 3.4237867085015625 6.660731471469955 8.850509068195262 -2.350599440636745 0.16055793622313638 -1.5548342704680127
Ni 5.298839057531607 5.8812275046451905 7.535331309358313 -0.4328997245894996 1.0124744567724564 0.27153497619435174
P 6.880561872952534 5.938237040706033 3.0204345138621864 -0.2681799436791898 -4.122192105778862 -1.656455837366257
Ni 2.2985107342879543 1.656583728795588 0.9590321280355371 -1.138354124887117 0.09653232530079504 -1.0716435109334448
P 7.506971983270719 8.71458477199664 9.71247954298454 -0.2770667046458583 -0.0547686111004476 -1.2181516539317343
Ni 4.238854472683748 4.145428868008156 6.431341736178278 -0.2011775095167116 -0.23635971384479942 0.9054736278401697
P 1.6219926323296818 4.100323338095864 0.2906967565294162 0.9971542814756181 -0.14800246815562898 -0.224612086390568
P 5.3254262152330405 5.549147420281684 12.344150522816484 -1.4684472611313355 -0.190919065013497 2.6024341101886925
P 3.26130860434636 0.37289831929871753 8.150089389377941 0.4321571899965202 0.9580154064926274 -0.0661565412224151
Ni 5.938802133604914 8.136930135888434 0.022368414977658502 0.2234340069220668 -0.8911700667333039 0.30523648221185495
Ni 2.432724929681111 1.7337142775837866 3.8279541191262094 -0.04067433779091059 -1.29350297427954 -0.8796011309487819
Ni 1.2690041107075913 4.907377899695562 9.355863310227996 -0.19590160582975294 -0.4587812203419518 -0.6965396143064907
Ni 1.1329464155295617 3.511357580192031 3.4062966200903064 -0.17935372877340078 1.1379422341606789 -0.479795874920406
Ni 1.6702849156389394 -0.022915906622311705 2.4685749790151794 -0.6892484799617162 0.1164123520541737 -1.0879623026981262
Ni 3.928238654659691 8.44946356424148 10.019634398598404 0.7574683314710632 2.078696025359381 1.1492062371102725
Ni 9.1342264642326 3.952898938214121 5.5226890296506514 -1.2014106870279697 0.8701404997565143 0.10640536144013286
Ni 8.327866688983985 0.18228785259727384 1.8398794847928326 0.5428534655025231 0.1630069119842612 -0.1625849939554942
Ni 4.7960268071620344 2.231931674218199 7.5334062879749135 0.26033422238252585 -1.1731015556706315 2.4187578427805376
Ni 5.503374895472353 6.112489457557585 1.1581690128374682 0.7995416064920294 1.9653653975543248 -1.5035639023288105
Ni 5.066030047010802 0.5097332488081584 12.256915001338138 1.578177316069327 1.1212534606510884 -1.0481377145020208
Ni 3.5572320069995214 5.230268276588748 0.11915400644708729 -0.09422938819923127 0.5837617736811108 0.3825050741870316
Ni 2.155644132869314 5.007834742244111 7.11425743085732 0.19579259105571442 -0.511013695284107 -0.27040677612717945
Ni 8.411657922924565 1.7660172110001269 5.61631102726815 -0.16063841175208463 -0.7273650843277796 0.5317357583228067
Ni 7.716102674946625 1.3844220193494563 10.820320085313176 0.44516542933073006 0.08925944578846563 -0.39606687203186625
Ni 4.823382861758667 1.8937930528732503 0.8996547600902045 -0.21148943296568093 0.5403265853156114 -0.5189324359105515
Ni 5.395395832696081 3.683238459631887 10.98218214557042 1.1294293115936611 0.7268297806495999 -0.04088902490487797
Ni 0.3643959871250676 7.240229607363033 3.108009091079861 -0.3286579464595888 1.2660477062820648 1.437808710309872
Ni 2.482045496789971 2.750955606113036 8.07085317475506 -0.896614891897959 -0.6419556084130235 0.21378748497123826
Ni 0.45739638255379766 5.264192378157615 11.475766706815813 -0.8924828720074566 0.26678280622134704 0.007056392626149138
Ni 1.3583628992748464 7.515290891847683 12.705756247955604 2.392799471043563 -1.9214668963991617 -2.4339198952329566
Ni 7.008319187189628 7.84837146855675 3.3820541347283277 0.16477171719416786 1.748531155336963 1.5881732509397746
Ni 8.286651962637757 6.605463533195826 9.776923293001968 0.3044998611561465 0.11844480910317019 -0.19450523970285857
Ni 7.3504505140987995 4.930769040182015 7.250792212663093 -0.07126892274831598 0.48961260390051164 -0.5768316222201807
Ni 3.6968192168410514 8.359669376227545 6.230336339282834 1.7258627672051696 3.002374863353668 2.4922438277848302
P 0.6839319355152262 8.69428774672701 0.5789626872118442 -0.8513997288139015 1.175826410800962 1.3857731818698715
Ni 3.84907932972633 7.635081322592362 12.342089323308272 0.13595479296247553 -1.4417604958687686 -0.789835434947859
P 5.871602397728191 4.201771409171959 8.833873103804937 1.535820191259355 -0.839230183330903 -0.10563891558775354
Ni 8.951784832256287 8.109481443111658 5.449391848756826 -0.3943339485011596 0.7709421975877819 0.28482886508978045
P 8.584474447983878 2.4227755891336065 12.60907070572073 0.0782587238025878 -0.21880653545238446 -0.1088157706538384
P 0.6093433783901888 2.4741064047515993 9.51165015863137 -0.08840378265638969 0.13295020180819683 -0.9795874762364483
P 2.3438200681965635 5.661702809157088 3.369336765358109 -0.3983613244929978 -1.3074542942533096 -1.0547032835346801
Ni 1.9158316759295948 8.556942380844973 4.6279348292900835 0.40287335343073843 -0.05020875964390708 0.7042251558762066
Ni 3.6966895233888493 6.185182637516869 5.410343003062373 -1.6624819889556786 -0.3268463471721467 0.25091652861305175
Ni 2.173708577997465 6.934820055063089 1.6504260689613919 0.9262003188645598 -0.017255958866970282 -1.1700326869373203
Ni 6.98142632349372 0.8002623302315133 3.7590628100800503 -0.028057163247532324 2.1471197653494185 1.9145565424325737
Ni 2.912618494282968 0.8484508587790094 12.116381029295532 -1.237744231351681 -1.3919741684742608 0.020043034693804192
Ni 7.979408174370954 7.06204933167336 1.390386991768952 -0.9715360666868816 0.21834270844208847 -1.0310244518605018
Ni 6.207610340929819 0.4869701951830849 6.377961764015491 0.2864291196973648 0.08488805619364735 -0.07053924367114303
Ni 1.3378713338269126 0.9472717110662098 6.830179672299219 0.8548190389080955 -0.2181856140389339 -0.80948817618178
Ni 3.7905412636931057 1.8926999223475467 5.600962733581832 -1.04268594735883 -0.8119237822064661 0.5605459976862799
Ni 4.8012793919762204 9.141202119197471 4.4532460866100525 0.3271438238079076 0.05132898929127934 -0.8875347839735618
Ni 5.711857119887248 9.28030761050225 2.0867129894056933 -0.6604775784766109 0.10079367168031028 -1.0997981189907897
Ni 9.073057473883276 5.212574384181174 2.376445382479806 -0.7163080551826696 -1.4572138543093613 0.36939013407162835
Ni 7.4009290584594645 0.6726773230094872 13.237251131661475 0.2641245426628935 -0.34686572771686713 0.21255978321172425
Ni 7.640574766674923 6.073581421896951 5.002923065932858 3.461884477221212 0.4397229181589201 0.97454400027527
Ni 6.960545677689178 2.3495636353655143 1.736915853089576 -0.3612546494486875 -0.7861932102095815 -0.4481597360723637
Ni 5.00860363913931 5.991531785743087 10.376711969492067 0.11316633431305026 0.43044766350458125 -1.523369624200828
Ni 7.728636620720157 3.3642759415768224 3.586923470117592 0.16264310088693923 0.7335491016513045 0.5970518059217975
Ni 5.711384665168511 7.301991482065282 5.755014468871102 1.6431118119591832 1.4977892046285624 0.26286315945196664
Ni 7.551049229383408 7.435964818190063 7.5495679448829 0.42226024259778244 0.2730084754160847 -0.43951157347906245
Ni 8.100291735641337 7.615201169133382 12.632283054519503 1.1937709110945247 0.04570264424343742 0.3383823728362043
Ni 6.3872728275018025 2.728231460523623 12.844501376739622 -0.13578098638877262 0.0051311505789782596 -0.56674492740814
Ni 1.7563272573570263 0.4524698841337203 9.912929110799116 0.23287586906125698 1.0901649667764 -0.16126139004806422
Ni 0.346082345292328 0.19318024981864834 12.03832409870589 -0.24973973469613114 1.6112033932863605 -0.05331542359368882
Ni 5.3069078430221825 4.26792433361305 2.201525970731215 1.560001930711881 -1.7031023335802025 1.5433959467240839
Ni 9.246809644562049 2.926662442392854 1.083954713960214 0.06532967444574554 0.02378887488948161 0.3266337169407084
P -0.16853108284583557 0.8440857477306069 3.7770818624999305 1.672841992033764 -0.7640542122186971 0.6170591022816597
Ni 8.743265552569335 0.9588514835842555 8.242802606448224 -0.3181323643379166 -0.8569777371223113 0.9393615388368661
P 2.1140217985304504 7.240275926453105 6.530346012062164 -3.3702835277837635 -1.7430624189129076 0.6569042593030557
Ni 7.285029431280848 4.469430903063074 0.48137299633876235 0.534423332457299 0.7709226572037562 0.8678936127038666
P 3.7871599701178367 8.424960765593296 2.736275233705558 -1.3262403166115613 1.4388667192607414 -1.2255538599330764
P 2.0581887673574415 7.5106404552044355 10.517422880458746 -0.7091063952279079 -0.49428609811678104 0.1780751191712933
P 1.6609747785344309 2.9060689749467614 5.559324650752343 1.090278866646445 -0.6355437913494086 1.140965594368035
Ni 3.606774905740728 2.514274319662196 10.536214535301031 -0.6571665118255069 -1.396561273624311 -2.289815219469837
