# total energy = -340864.2207968593 ev
CRYSTAL
PRIMVEC
9.22841447225004 0.00000000000000 0.00000000000000
0.00000000000000 9.22841447225004 0.00000000000000
0.00000000000000 0.00000000000000 13.50671740256800
PRIMCOORD
 96 1
Ni 5.562076143046805 1.3494433629483156 3.5356935106267904 2.647771143562595 -1.6774290971838144 -3.2141365761441287
Ni 2.5381554310436227 1.7240062495242985 12.906964761155706 0.41518379536697525 0.4656306391636174 1.5816256796292438
Ni 8.346242647076101 1.498556083981496 9.519385457116261 -0.2801376302616982 4.633164149191757 0.23673920867140516
Ni 2.1944154488030048 3.439789981754342 6.0509827762925195 0.4145986122874666 0.570757905222275 -0.29718353000039144
Ni 2.6634957563977917 1.100506882575123 2.2836209944519177 -1.1480623533138163 0.38965839740236113 -0.5322317241226189
Ni 9.330203883288556 1.2074549778872614 12.420588559158123 -1.804400712811073 -0.11602051593239374 0.7600486906037298
Ni 5.764547556555159 3.0429035605713994 4.891295917393496 0.31745385021365324 1.739037871134547 0.33464630283253977
Ni 6.612961841007779 6.102436724020741 5.571102455241542 -1.2172921341449165 1.3624090532226343 -0.709280716022243
Ni 8.583163731807186 6.622734731933274 3.6142762283773684 -0.9637283977170049 0.28713385907387323 0.38803397442506077
Ni 0.634587306936882 4.951275074410643 7.869850666695414 -0.9062752978058586 0.14093270579304115 -1.1968534066745904
Ni 3.75915772137529 1.8825319533185783 9.874585284447795 -0.4653994969894179 0.8001319317778607 -1.1515284574855458
Ni 6.607895441462834 7.446767545351753 7.721466067564049 0.34854105853676104 0.7565445341052132 -1.036145832247467
Ni 7.667391250125874 1.9330575225509499 5.84840892738353 2.034617032762296 -0.06333964059891027 -0.995418529731434
Ni 4.071493409168829 2.6746067674216776 7.548390845513739 0.7077113146525941 -0.7891890596131118 -0.10811720192491701
Ni 5.22422388923911 8.994040429329175 12.552778213733161 0.3076324932478573 0.6634014369916252 0.6414961522781017
Ni 2.3058300967194296 7.542373919278214 6.552202882967777 -0.5632284296144494 0.9292571034130124 0.8325933947406757
Ni 0.9222637484206814 7.168300138669229 8.69936608115151 -0.02863746123103455 0.7331780914651308 -0.6295528638732965
Ni 1.7182754041373935 1.6336047013598576 10.890290420759884 -1.0187489769272584 1.3990845542667971 -1.32061191468119
Ni 6.940330615975662 1.399895104864914 0.35705381579889073 -0.1833484517550907 -0.7504029399838495 -0.07440181195034282
Ni 4.032318789736606 3.094342742836466 2.399225342538479 -0.9284094107007366 -0.4876356826797989 -0.16745646311518259
Ni 5.8429983079787915 3.0322262850276815 9.940998492034586 -1.3347833210855655 0.326044934316774 0.4483731376347504
Ni 3.1758296426212773 8.98981381550115 10.655097818059344 1.3801571212346748 -0.25581679412814656 0.050270466119777944
Ni 7.4232996873503065 6.456632499857756 12.277093174013846 -2.4491523959119945 -0.5058835731463933 0.15842340637863683
Ni 2.1065424862038005 7.372663377144274 1.4860358940677867 -1.7117836634042842 0.400679173992897 -1.0769916626192355
P 0.13247388974076654 2.924023125347397 8.422883706421842 0.7648224578432892 0.019654541006133893 -1.4115130098381368
P 4.455727674111118 6.720666666306594 6.345509469838636 0.31153671339826994 -0.2982855048153185 -0.39035516635906964
P 1.6217185035203514 1.6098507625097889 4.429217207858362 -0.4160767394948898 -0.2371701255612367 -0.8339015720291381
P 5.825584289870758 1.3360621619643995 6.416500893844822 -2.7493263759992783 -0.6710476406829734 0.48497536223881643
P 1.0091917213779873 7.403449367821752 4.604128884388532 0.022119457606858677 1.5313546992888334 0.720249813439237
P 7.67335280587457 5.327849755341449 7.219786385848101 -0.5115117179664481 -0.49822991325587734 1.7043858282783162
P 4.147074123691773 6.967388327206587 0.5790682426338917 0.6440909095884715 0.0307791901643857 -1.1864918609346082
P 2.157741729692604 4.18754072115003 12.874251877536544 -0.8187621452845384 -1.356920005083605 1.0465991663703074
Ni 5.706749996719114 8.247258673453011 10.09023395098024 0.019130293071547698 -1.3737702438717243 -0.26291278174297944
Ni 7.7507238328050185 4.065310371472812 9.615850996430035 1.3079587446935539 0.6070109740170384 -0.5341819058704542
Ni 9.028093278729623 1.6343891165899491 2.0116227063140317 0.4398969818429392 -0.5593221525815076 1.6662663956987755
Ni 0.058115017293869954 7.6451323144202155 12.374597832797127 2.0834371395887925 2.7506983166461403 1.6402519739128847
Ni 3.103958750715942 6.608329176943003 4.594228641343329 1.842030607348705 -2.9745897228205997 -0.3701676356676012
Ni 0.9911778563292951 4.118133815908629 10.11744946809863 1.198501998021607 -0.908573606921732 0.7556230507322084
Ni 4.673010692846495 9.059977450729228 4.9605579365276915 0.9636700336752435 -2.904415061577727 1.2019069099380977
Ni 2.8334646941369375 0.8250876211925905 6.418405638591774 -0.3123664083884169 -0.6081476587246429 0.9030917578715543
Ni 4.375025189556397 7.3026750817911585 8.359239946017997 -0.2370292291079982 1.4793909046270326 0.4015525777367858
Ni 2.886897213927884 5.6451134164628565 7.9804578283455685 -0.4945102983124451 0.22859215408423858 -2.115359699329002
Ni 2.1673208239141935 4.638053458827824 3.612723086221787 -2.09996007694448 -1.4099050419210686 1.3133567757806737
Ni 6.644735272033725 5.2703105911106105 3.3038914274031406 -2.0659729213657583 0.6114083317537857 -0.3915034210308999
Ni 7.459742696098916 6.5070380997019965 9.54511612234616 -1.5568618424210028 -0.05345272050250149 0.05181775600223979
Ni 2.6040555387857904 8.599617994810165 4.0005278247231635 -1.205968224491665 3.5203865872221627 0.21079369245023696
Ni 3.26895357305486 5.535756704973613 1.9377280231150602 1.3435484688727055 -1.2466788148371495 -0.270743847751624
Ni 5.706971478666434 0.9004837674261024 8.59947034017862 0.07338056977468008 -0.10886693560674798 -1.0938105339487871
Ni 0.21558499047259125 9.065819037089792 10.43245309051593 0.3517256269123297 -0.7898518900080913 1.0885264027317125
Ni 6.924771509176433 8.81865441229516 5.807226204962273 0.5130957746241163 -0.718764230032646 -0.4696479878531266
Ni 6.274417456114709 7.483607375922643 1.459400844219664 -1.0825470452198258 -0.5405194180527079 -0.5959153783245092
Ni 8.932874498210971 0.21035432515005092 4.589758397373254 0.5864640031036223 -0.11787890929737119 0.2631130706792436
Ni -0.035292225463992584 6.175968730530975 10.71631081409135 1.832479216214844 -1.610342330837646 0.2109880678492302
Ni 3.702809022611297 1.7251228876753697 4.527533044273704 -1.7130059658471595 2.7925923857767647 0.37648329347298387
Ni 5.3656124273595065 5.14961215823569 0.6971568798962252 -0.6525632087255406 0.28230789844013965 0.09513415940168776
Ni 4.811944472717427 4.514134309302292 6.319428124858814 -1.466934938251867 1.516089288489331 -0.690303917809424
P 4.897215022435622 0.9941586342036433 1.466019463078743 0.4029093488749964 0.9635926434700889 -0.32539650209949766
P 1.1733190727565685 0.30532762984375517 0.569332265366284 0.2049341483456664 0.013799367776937525 0.7367696654711311
P 3.5727345206331638 9.264866708829159 8.380147841845003 -0.2682372792796864 1.0027849973988343 0.1486161904802279
P 0.7501722753530524 5.842075466531625 2.0474289544640962 1.9616997757772796 -2.3427118103585522 0.70447995219949
P 7.448936222752594 5.035299788175162 1.11276406267639 0.5174278263405668 0.009442890580454704 -0.3560443088923416
P 7.905087521672577 8.891614257108152 9.060914134798104 -3.3623676153707964 -4.586480886202604 -1.4519410359461962
P 4.884267556931874 1.882734978436955 11.681311349930318 -0.6347225809996939 0.32842783272665377 0.4596777640142922
P 7.657572217128021 2.4799241357274098 3.796779198651931 0.2565557291767001 -0.6445498515027609 -1.3457264503606308
Ni 9.116852169118106 3.1502577061202905 0.5311432405996355 -2.1002071599582797 1.2494023844159 -3.288316501891653
Ni 5.360988991709202 5.142976928230562 8.535529424828786 0.7791080212280259 -0.41089956616932466 1.0982819394565795
Ni 0.6282021669639362 1.7072474488437526 6.280151070025956 0.35539921910917505 1.6159396224197655 1.1771289316624696
Ni -0.005151300958084005 9.177833531946876 7.41171618150547 -2.1305824298160276 -1.9688433288005964 -1.088677840707912
Ni 3.388369256318219 6.142608012215902 10.210025230712596 -1.4306085930170072 -1.096807411793582 -4.456061678346377
Ni 6.818589372265443 4.1301676683796815 12.639626822326012 0.4928989879612672 -1.0922840700019318 -0.6734940453409368
Ni 8.585277038721198 7.093356184744828 1.2593094388035528 -1.1813684236651139 1.320703445953732 -1.4511265104647006
Ni 2.779607667280294 8.397598773610923 13.025621868749493 -0.029497752348800813 0.7906329911484901 -0.7831981321369995
Ni 4.4297681442023205 6.949623629348629 11.765863929002618 2.426580167038434 1.302874645302427 3.33172263679143
Ni 2.222571341356058 6.220652713402783 12.09240214666805 -1.3453803798751216 -0.644351876559342 2.0667069713183053
Ni 4.658429797981263 2.826654124256848 0.0910872193596857 0.06641853663455012 -0.22933648844943086 -0.24006313083831557
Ni 8.17187175563397 4.388692471388935 5.022581187350311 0.4815709645429577 -0.2578428234192398 1.275725595691461
Ni 3.941197425243375 4.586955727898209 11.824712605246985 1.5049386711891504 -1.781842882115215 0.2936948001208426
Ni 6.563515996268593 0.9330573019867421 10.832428262022537 1.3952165866709585 0.27555541020765445 1.9732165181676276
Ni 8.700927528880117 4.09858803405764 2.7333816163502718 0.9642423612389458 -0.03590776964020268 -0.7353666144760174
Ni 1.496894969376596 0.8290143115502845 8.643204719201291 2.0168483959249652 1.242914462698711 0.2762547502675243
Ni 0.6250294380685775 8.72198677070446 2.5557817026845053 0.09353133369094214 -0.23197675428575532 0.3086815033376619
Ni 1.8923786715598458 3.3924482155146953 1.3962028162348004 0.8315577543873098 0.5900388649390742 0.2709212538697528
Ni 6.636198988647434 3.288905405142602 7.355177377403361 -0.03629060690091814 0.8777949309779786 1.2953593107619885
Ni 3.979753740905996 8.3389152859856 2.198487948109351 2.8224716898347 0.6993770837552858 0.5919188555706064
Ni 6.244600448956756 3.2304341710501254 2.032747469881123 1.846553177809407 -0.48233201107869833 -0.04180330918903123
Ni 7.5267132999197965 -0.09497699605949295 2.564628060797044 -1.000739170613399 -0.10485652889577425 0.3753262970504052
Ni 8.84828685116368 7.033436089580301 6.336365956780109 0.3717426934642049 -0.18405936177918622 -0.11105417306605389
Ni 0.1532498192408284 5.405534548363933 13.159256693030796 0.33018338196517977 -1.2844431780701169 0.5203583697238007
P 6.146576230438719 7.745066814733887 3.730298623639496 0.5366398804926436 -0.09744223870957412 -0.03026368398054788
P 8.585590804813235 3.223116038374094 11.52551171977097 0.30545554020119653 -0.37289737589393845 0.4794487759936323
P 1.6137636102457753 7.619311210728494 10.676195819224468 0.8535651118963364 -1.3341775691807667 -0.12244184607770527
P 7.404778259505672 8.536403355679253 12.889487066987817 -0.5535911636350015 1.5540827370139687 0.8290113338163723
P 4.347035408463834 4.530210207311934 3.844767876746042 0.7371599589310143 1.3170599356638735 1.1561019357888411
P 0.9997787386168879 5.33273158659696 5.527462206046479 0.4245680647953527 -1.5572009709279762 0.4032626184493571
P 3.0908728589951195 3.9334732423305905 9.004199067979584 0.34993948154618437 -1.1525954652974795 1.4554925007428803
P 5.909793571924712 5.505838185256472 10.977084581707352 0.2587061998607996 -0.5954461519975746 -1.1678289944177822
