# total energy = -340889.55486639956 ev
CRYSTAL
PRIMVEC
9.12548562947845 0.00000000000000 0.00000000000000
0.00000000000000 9.12548562947845 0.00000000000000
0.00000000000000 0.00000000000000 13.35607063696752
PRIMCOORD
 96 1
Ni 6.627137674424509 2.336744897937046 11.465252146686414 0.3229351850431987 -0.38623085977805094 -0.8722228362068398
Ni 4.6258273835385975 0.4688227455441739 5.872370568970515 -0.31286160285728054 -0.19846756678471628 -0.2624312141208706
Ni 2.846229895659226 1.7444734930336294 4.256926882411654 0.13096916682242604 0.49813838198333565 1.4653516529251474
Ni 3.3709088272390733 4.400628644956306 4.669790323930609 0.1948302271424451 0.23173687036080734 0.1595480069013833
Ni 4.04059172818729 2.5385002634981086 2.2920482684866825 -0.603105211204729 1.0139369002505956 0.13981658991072696
Ni 5.138104779915701 4.655266200730692 2.2262170139225907 -0.13798827845273656 0.04951481890067601 0.279323361890519
Ni 5.282351333962637 4.671755953572016 11.447448323889832 0.25173773896276647 0.1524911000546019 -0.3730763246739639
Ni 5.558424655882165 7.803513174439984 12.376963919678602 0.07608382763845606 0.5442236063771724 0.17114779592384072
Ni 1.8670652692762144 6.699694412023497 0.33965514423382 -0.3164637183862421 -0.027674840207449113 -0.20408362741991304
Ni 3.1394591308835067 1.6805038375728194 0.24103419409172788 -0.760375220705213 -1.1876326594072706 0.15924410250771928
Ni 8.579097338101853 0.17122331517008132 6.764382243216799 0.12511193671070064 -0.5102943006195793 0.4625735975048485
Ni 8.73061690433171 2.4949899472017973 1.047352081380767 0.35514545122715613 0.21144752398415198 0.292877960646502
Ni 6.964205743433916 0.7582284022180866 4.910920335623242 -1.0153906019779868 -1.0735486983759575 -1.0950390070392497
Ni 0.8378145015291226 7.711957175404562 2.370729119606319 0.5987127385639882 -0.01971187660663057 -0.0070967589457813255
Ni 7.760130614944878 4.149540903158276 3.4825691840413584 0.8494449190803759 0.11801209244112579 0.9687232798284349
Ni 8.002184125800511 4.075496711373824 12.64667677799525 0.2795372776735379 0.453572936668135 -0.8466385599798322
Ni 8.880694643805102 7.433456474262129 9.455470667331989 -1.3301162546271994 0.21670311595613648 0.03704214035496201
Ni 6.876810965923477 1.0278125911849485 0.233456390683075 0.4062710662583778 -0.883006557085905 0.21798172555824397
Ni 2.0892525975443745 6.280715982469692 9.434901822337887 -0.27151389314842916 1.066193286452151 -2.1113531492727704
Ni 0.38610842970076054 5.152331412278526 1.3419510520236877 -0.9813808206914454 -1.4301586499637822 -0.44248402584382496
Ni 6.421084205051459 2.3216878463663844 6.7504786530513075 0.04527249868455429 -0.9881752179054594 1.1906539627320978
Ni 3.5497135960121278 4.1240534213177575 -0.017086559612670558 0.6429539677705507 1.6098209111165374 0.8665252716014301
Ni 6.032785658758602 5.69517006060117 4.825454685811007 -0.008655875902785094 0.7848050716128031 -0.5939639110250933
Ni 5.441445053406826 2.7913309730840146 9.254501918646922 0.966384090172297 -0.5564062644862933 -0.11159436184024006
P 0.45320082640246767 5.8628143602403355 12.27722053478306 0.1488506750885372 -1.1282502036838957 -0.250191220411253
P 4.082514209954333 6.096180408613987 12.665415050537792 0.2879926075297427 0.5962357377784054 -1.2033711531884503
P 2.6122341887653473 8.885476398364512 1.2544832706268454 -1.0017825242762488 -0.5084899004209887 -0.40939521370965626
P 6.377765523956955 7.744288771595382 5.723771158196788 -0.312708622219184 0.646275575944616 0.307210060998458
P 4.931202640363212 1.2106325737101793 12.478550652705824 0.7499535111512569 -1.374601224413452 0.7369660977526533
P 4.2181189289482885 6.205056579698568 8.287923162279823 -0.6191085286115209 -0.051752192871627 -1.0696573337413515
P 4.972550216524828 1.1376925657075754 3.655182310698841 -0.13092417251710356 -0.31526018499644415 1.5806507173104842
P 0.07546046718067476 5.98153693050355 3.323498278311671 -0.5000512827353324 -0.8599766718496351 1.0125153373127207
Ni 0.752020334228074 0.15803881328566216 4.2597585206555175 -0.26907751579279465 0.13072311224989097 0.9528624015367783
Ni 1.7824902668780993 6.511928416194449 4.524969776826828 0.0467367419349066 0.40451166036510977 0.8753729518000474
Ni 6.221144811164676 5.823419638040004 9.279143467953745 -0.7639894204190327 0.7039999272392778 -0.6110339791335024
Ni 9.08485001213167 2.5459466599112353 10.247070971122142 -0.33203637601351843 0.17284318134839266 -0.06150747248617793
Ni 2.6188136640274364 5.234232647337124 7.042789864404068 0.07156717071502512 0.5680595324545056 -0.6708432379816511
Ni 0.8624460128015645 0.25768638058029936 9.020529938016123 -0.3741137647995428 0.5303566185870932 -0.2255104298351213
Ni 1.6464292735941226 1.081205808603094 11.550263347305789 -0.06691784486847185 0.38930204250420697 -0.33585832086276995
Ni 4.017166606137661 7.008044577219041 1.2312132818358232 1.2067423836535283 0.5645016398999181 1.3480887799452204
Ni 5.827097208817566 8.05979331765844 7.904202872213027 -1.364290072295431 0.7510480297670162 0.17441335404898994
Ni 5.560760780247067 3.194485810259924 4.501129445173281 -0.7197363641379283 -0.26617988253002545 0.3701802340730915
Ni 1.104220283791705 7.214536069910512 6.92536311312451 -0.3863617289289604 0.3548577447834082 0.21443308897503713
Ni 5.155470579393864 4.668133135709257 6.890664365917066 1.0077477407207482 0.9108354063727153 0.5193648954622797
Ni 1.0402050009018928 7.883954331770517 11.409557481749406 -1.8046015159679698 -1.2176356335272642 0.41937032264449714
Ni 5.028708456140496 0.29976034541162755 10.530848028154368 -0.08806388281846769 0.7585080855894872 -0.7742686908578537
Ni 8.34592292493001 7.45124204608711 4.836700934511421 -0.009639322861976947 -0.331759468203048 -0.5586297545001734
Ni 7.781365620402411 6.868625405160517 7.212759337825174 -0.5608627575957502 -0.14195780462344584 -0.3446232115395936
Ni 2.5230051886090274 5.367720253625387 2.541606578864565 0.4081227747551358 0.019495903941082554 -0.9577850356493762
Ni 2.4828165491440624 5.1628713483779896 11.305446639349793 0.5739103348083278 -0.047768782743846765 1.0893216449394982
Ni 1.0671525604704768 3.5986079489306757 3.416789944746329 -0.1915322731174637 0.1334114577153315 0.7274699853367601
Ni 1.4401750435334624 1.4677431361364734 2.303268053278275 0.31377820113427896 -0.5752686486084351 -0.7867956196802708
Ni 1.160314645006769 3.7739815350427794 8.235940744966419 -0.32544689572145885 -1.3025116055360535 0.18139749867630695
Ni 3.638869592282044 3.0337677543432644 6.786700443838839 -0.22146479901083796 -1.43200573047485 -0.06132800948552019
Ni 3.9618570367014323 7.189404482016209 5.7507232805082715 0.3949872658144423 -0.7129645926317334 -0.057169250122140254
Ni 0.295217678580188 -0.060207217665304714 0.5135741279093398 0.6111692191597861 1.5410313031466494 -0.943892336827684
P 0.11456773657829261 5.736097864415969 8.235606752186124 1.7871609518940188 -0.22825122580505205 -0.9801587753588861
P 8.771763719805717 1.911698020325975 8.10798957091326 -0.06519803396388772 -0.020693266683293396 -0.8214263223802628
P 2.1230625224348594 3.1113617601040726 10.319675161247291 -1.4709548580445375 1.2572491341538283 -0.08825414445240284
P 4.302684805860603 6.257765385681684 3.4919583963813907 -0.7656230993677137 0.2682105398068091 0.41046582106601565
P 7.119430256898735 4.072065528712874 10.211184085663486 0.06751151258841276 0.11358516701802372 0.707035371631492
P 6.699201635790275 7.95684871234412 9.957311245599174 -0.5134737267888254 0.013920466735834091 -0.12629618682678895
P 2.2377060005452956 8.657822904101911 5.788895187611349 0.5387672112482915 0.019525728737753465 -1.060628904990496
P 7.205246325365704 4.11957280778976 1.4060064870510216 -0.40661636541293844 0.6182243262343546 -0.8553643698886043
Ni 5.623489369639023 3.0319335316973834 13.594209732948332 -0.2674672338828813 0.7517167736992667 0.3407323611256196
Ni 1.9261162878906084 1.3634479589236919 6.950913560817052 -1.143928790761417 0.24333897337610993 -0.6454571938083787
Ni 7.17761435436209 0.9251143739872374 9.302222734091536 0.26666556391719237 -0.33619487826658223 -0.6604832349035658
Ni 3.0307745950007323 1.5882086741875652 9.145128408586217 0.6953072845612864 -0.5243690335450906 -0.10140585134301246
Ni 6.499618135849708 2.2802307643751636 2.4958888075531367 0.812547531833394 -0.8068255417479524 -0.5302329485250352
Ni 4.239974467440248 7.156087333358944 10.22355094402019 0.23760464199549403 -0.17023402586031972 0.5890078525713985
Ni 8.350750306918423 7.0510073643673294 0.18247230151623545 0.20606929039137414 0.004364961836915063 0.5572858388777693
Ni 7.579701509699353 4.347062043307953 7.969273973809946 0.3214524298500851 -1.204334545542984 0.1687507564465739
Ni 3.083848420415864 8.173077098384617 12.375361484372052 1.874590029341965 1.2096320464964974 0.1389526992485349
Ni 0.11793595338722056 5.061231687533124 10.265102018515154 -0.6176648541864589 -1.1239276650491417 0.6520746991248962
Ni 8.633229719869831 2.19341089247015 5.472115811181973 1.5833658022488022 2.2716825144248682 0.7894880789107693
Ni 3.7865290780183303 2.7024304904165093 11.523537537042154 0.7323221712227388 0.20651254857637985 -1.3848990067950342
Ni 1.3998403962956907 3.356992461393462 12.52966432377103 -1.4383378433404648 -0.2656036983115813 0.2827187607253131
Ni 3.062065885810307 8.446120759018411 7.979784708354847 0.9456599702510681 -0.34560280184404346 -0.14340559281356594
Ni 5.707270454772503 8.038330175055899 3.5728558280019445 -1.0783831436501234 0.1256917204735706 0.7262170867662654
Ni 3.0041646784067635 8.590750583468965 3.4175783867194833 1.0753970644386062 -0.8210699674821085 0.37535355074391485
Ni 3.6840133705366274 4.151046608315342 9.11834967050494 -0.92942396800818 1.2322590398673938 0.09966907115756383
Ni 7.411819947429379 6.488412039286816 11.331050014859978 0.41133742503769155 -1.3628409985537302 0.5140527392207469
Ni 7.826983923918615 8.85199499096284 2.635793455456242 0.28286171406108057 0.5558953862881458 -0.5183410821834556
Ni 4.799001727572805 0.31129769710907434 1.6974097125666419 0.5322039562084769 -0.6296302540784512 -1.6095447746370148
Ni 6.297388245027025 5.745195973758969 0.261388590169522 -1.0896445754965556 0.06947686384489969 -0.9059379690710978
Ni 7.780599079595178 8.909166159502352 11.619434529672827 0.4387764950852508 -0.05211086176262639 0.12518315626826826
Ni 0.0672411421202537 4.907083981392754 6.070801520054491 0.5318530006269614 -0.24965565962275713 -0.8314441116275809
Ni 6.98977535464664 6.2970323510808095 2.4672539456600586 1.164719245144207 0.47889727436553653 0.25873859576063185
P 8.484201411263486 1.7573039260689929 3.397369998414496 0.4767038662586435 -0.22801648408642666 -1.0419758086656827
P 2.1510412618988886 3.4484663310566805 1.3648304700224527 -1.6862924611117154 -0.5241895705444327 1.099622512644874
P 4.832811652463291 1.157923767727064 7.903281198147186 0.03490992450330762 0.22421048007677516 0.62116206870644
P 8.672879955672572 1.672117516122251 12.226494696864373 0.37820207593630356 0.28372097673758234 1.5809731336469095
P 6.620603826591423 8.08775380615087 0.949166416911354 -0.7050833901114438 -0.6903003182649983 0.9760121001803643
P 1.6709220774823983 3.173305557717194 5.589929483059468 0.5261978592237131 0.692841082408981 0.6811747018146462
P 7.157246270055595 4.049726339473492 5.7864513825140005 -0.17901768559022072 0.5363976825748504 -0.3755191297875017
P 2.5642797608842405 8.673573492593404 10.15301823917173 1.1485359505161252 -0.19240516264072025 0.3075229642531865
