# total energy = -340896.11262841127 ev
CRYSTAL
PRIMVEC
9.02476839780285 0.00000000000000 0.00000000000000

0.00000000000000 9.02476839780285 0.00000000000000

0.00000000000000 0.00000000000000 13.20866078776052

PRIMCOORD
 96 1
Ni 6.382126805979728 1.967210026090502 11.43444764720389 -0.7749618602701364 -0.14347886925366257 0.1571028877950004
Ni 4.685614712867102 0.49213145933666264 6.0264516522344005 -0.9945937198372937 -0.7187799137619298 0.41898748538378167
Ni 2.604809924903204 1.4319329532188958 4.632396555141574 0.6242826166132927 0.9720202054121517 2.237492755917037
Ni 3.335364939891006 4.334885132293032 4.94660379982739 0.6416581317772626 0.4057640447149722 -1.0263627847187742
Ni 5.0367233337207225 4.503810750212016 2.685862273823611 1.2729562604764397 0.24955538659946697 -0.43018952474718813
Ni 7.275741339322066 6.200557487307219 2.49679337247717 -0.02946047135296217 -0.19381798382784685 0.4948229444568575
Ni 5.056875641916741 4.292938008022949 11.722699657509164 -0.554921709520967 0.3056799975071768 -0.2570285550480606
Ni 5.562028037332767 7.648374033192928 12.310392586181253 0.17386570907563606 0.7176879662493317 0.3328359890966784
Ni 1.8344105567199585 6.378995211289169 0.394654031635801 0.5524632206781454 0.6070531401088836 0.10393607396403391
Ni 2.8204206705866333 1.700410793130843 0.27209677210478367 -0.37304907098045426 -0.5768547621486324 0.47547873560229087
Ni 0.7089551339146484 0.034475518378689354 4.528232676414098 -0.49128664916882486 -0.31276467226810006 0.4664842454131643
Ni 8.660176935606053 2.3522878758065557 1.5149012605047372 -0.4202270142178376 0.11117270092178919 -0.5386612817980465
Ni 6.752756001230118 0.7461597423060902 4.90819348235624 0.5806260562656065 -0.5032548772742946 -0.190631101459433
Ni 0.8689002046388895 7.548921083654132 2.5175440228287624 0.8988712920323034 -0.5969823861364428 -0.41088054000593105
Ni 7.686891745409951 3.9511068492497188 3.8874280822854947 0.6564617724489985 0.09374910612870306 -0.6865902164032627
Ni 7.582664693302549 3.95937353725131 12.595990412052828 0.3459463012263913 -1.3776484958802078 1.002190815458261
Ni 7.844364932025418 8.715092652297848 7.175802857234704 0.04595075569850151 0.9740297796430128 -0.22661960373890006
Ni 6.7855249358739815 0.7593999802614776 0.496129431809048 -0.23426735009214492 -0.043533918726892766 -1.0839403260229268
Ni 1.9699625805015124 6.332093489079266 9.165410553939125 -0.2705343028439792 0.9628192556391741 0.08575683195184586
Ni 9.158966869186791 5.042002823328725 1.41991827883405 -0.36873887364087465 -1.5034091219185013 0.13019166522645323
Ni 6.384392022888461 2.1727401052916413 7.016744921259979 -0.08929621256367201 -0.26209877048211633 0.044538448732007165
Ni 3.391327529735841 4.210559920600977 0.5929606860809643 0.09908183119552615 -0.08164152423189165 -1.316744975526616
Ni 5.978060843211985 5.6419243134005495 4.906925502373464 0.3389870962997388 0.7219277153622922 -0.8492816540296342
Ni 5.225530516778903 2.9348366863990525 9.263101868654875 -0.07629620075957827 0.490419158962207 0.24537502996953223
P 0.168701803658678 5.459587889400382 12.430010478592054 0.34086400160747743 -0.03801633134277324 -0.27758221082969614
P 3.982440845692432 6.0098912019255355 12.704169410312954 -0.5646618196268662 0.2323076552626128 -0.9377947085703784
P 2.5192460941793087 8.55750214369109 1.2763757249688619 -0.9272776110891385 -0.02929926318474954 0.39478774820912654
P 6.453855666500087 7.672695784463986 5.793622550614032 -0.7892201699613633 0.659963872064986 -0.8213494463957403
P 4.644831783741348 0.989195857168598 12.495671084732207 0.9403879232188515 -0.028464168877963887 0.5502762403291555
P 3.9712050088343736 5.995875736350785 8.025767292479555 -0.3656172972927574 1.2690602678561436 0.6838404215722674
P 4.710135009046496 1.2345071161852557 3.920119403919736 0.6103081567110715 -1.350937305137609 -0.6026961486917685
P 0.33455900026702673 5.670442582052328 3.5062651771710684 -0.02958928362134259 -0.5206000534209615 0.276980058469323
Ni 1.6305229853968648 1.1318232995017323 2.529907955756907 -0.6253825345456907 -0.1142593102669129 -0.8526282019043637
Ni 1.873496829356304 6.538634342359202 4.7963946494264205 0.696751987427613 0.11542581977118829 -0.4538465020444958
Ni 5.879149379786829 5.6280622688913295 9.248651409235498 -0.11417832051733239 -0.34827237825640667 -0.46975211753115875
Ni 8.49911189110343 2.202043528808199 10.20374356849011 0.8497205413392657 0.9741115407235419 0.038481958125282115
Ni 2.265180809658782 5.036813581406329 6.932816378599279 -0.21523013095503576 0.749306107375245 0.7102019422849318
Ni 0.5736341442082481 0.14892673078849553 9.08918374876812 -0.3634552566444321 -0.8137135271170373 0.4906027357279228
Ni 1.478094644406822 0.9757850510874136 11.528228529702293 -0.5542871612607615 0.24711952346446475 -1.2723255688709767
Ni 4.090665870272218 6.978176670339017 1.5937308089286466 0.3230310871911146 -0.036852392941659116 -0.37950048303275286
Ni 5.5868551756432225 7.7773560254623 7.829024630425959 -0.35373905779793274 0.15715868073360031 0.32234048888199324
Ni 5.492465121266973 3.0870303834065176 4.7738877791129175 -0.5497645908000596 -0.022716210650593135 0.46810661150793575
Ni 0.7864878230963865 7.3831902338056326 7.036861130381754 0.5268758591273442 0.04067639467343962 -0.27670983552707185
Ni 5.140065958509176 4.610618886127774 6.959722823586119 0.8477240797345271 -0.10349872931629917 -0.06935447933442249
Ni 8.224722827784232 7.008915032056724 9.0325840102629 -0.2961082946583417 0.7905129206308579 1.594144895142177
Ni 4.48030122811142 0.3174146474322852 10.388031147453097 -0.1930980749426868 -0.9794424660181519 -0.4325407985881841
Ni 8.286975681315866 7.267519775163277 4.598965202485356 -0.8269418528818532 -0.17147149781184662 0.3520611558748775
Ni 7.528723651615309 6.221729594350596 7.01453836534689 -0.8942535907546342 -1.3477511941001434 -0.9728493861816665
Ni 2.5094451955223995 5.01876404428495 2.515431324508705 -0.9738878547485099 1.1245984658639214 1.4761173760820836
Ni 2.1948056644225264 5.215828890576162 11.375523128317436 0.7095637944803006 -0.5540115390018716 1.2773729014868969
Ni 1.163094122564521 3.316024860865449 3.7694743571972853 -1.0351608426263785 0.34237375338378456 -0.4475483277406098
Ni 3.6307456148823687 2.7312830315127044 2.88808658030097 -0.6512483465688591 -0.12526131780437139 -1.172808964130877
Ni 1.0620979376018467 3.2037206408962304 8.180863355056138 -1.0968688611591366 0.5076018413890806 -0.3187373449117672
Ni 3.58717403227136 2.941623312356691 7.0036021508050466 -0.3978131652990117 -1.3241230131582422 -0.018354848358103873
Ni 4.081803547545622 6.958421451959668 5.910043870000637 0.15150868153667454 -0.015225044479870553 -0.16956168238364347
Ni 0.7727322708561839 7.267230982569336 11.34597603604974 0.3494252609139272 0.44360502682214564 -0.18150985588445515
P 0.36331281537823906 5.443325256454019 8.08864014761131 -0.41182593463833594 -0.4859271846291244 -1.0240778453393395
P 8.317605745810846 1.6886785940019469 8.047812997119607 0.20500588212386628 -0.18522998504851973 -0.38846180599109875
P 1.6485093491383187 3.128553343554249 10.29715533795438 0.6817223467880001 0.06181086265920968 1.053077317895483
P 4.163667223159635 6.17516178857744 3.6635280866790727 -0.9108359205933474 0.5657774212885481 1.1539797472395157
P 6.801679271597615 3.9559711995039306 10.505165423555995 0.5263243574992484 -0.0776578569937953 -1.0220659571156334
P 6.109930761420777 7.661911186033962 9.982986899773373 0.6573156358088614 0.37463569874128383 1.1221011533633642
P 2.379470478711352 8.4434471186211 5.845611534861596 0.56788058367448 0.024323150126396822 -0.000945651742720952
P 7.072133535824353 4.0093075816976045 1.6986599880300692 -0.9623160907505103 -0.0034604477447746857 -0.6525300414947601
Ni 5.26921039661264 2.809870716139187 0.5965994727646342 0.5845487883587804 -0.08011171785092654 -0.008094861192992511
Ni 1.5300682865478317 1.0222716339435245 7.0069440226030695 -0.4374809162022788 0.32019053241852596 -0.9826342334825722
Ni 6.603179487105253 0.8189805998222924 9.21672629045206 -0.014573526938800707 -0.6656431818379503 -0.47430631256074446
Ni 2.656449650607468 1.5925918831362873 8.983487464339037 0.5465324570160073 -0.39861097860995864 1.375652548496102
Ni 6.52510621428673 2.0382349546631273 2.6851493171073164 -1.1182972062362417 -0.07297407836488078 -0.11171391813723987
Ni 4.0317882801822815 6.730690442099232 10.460414303694106 0.10242915040120423 0.6049934293663773 0.1593492606270159
Ni 8.165448147877624 7.124323772410819 0.14822731122504212 -0.49254314728374526 0.7711193465955946 0.6419692352597782
Ni 7.462996262187808 4.039351036236139 8.319673320288102 0.8955774517723802 -0.4586665491409585 -0.05101068671991215
Ni 3.0578623314183697 8.145710979035396 12.373675165805663 0.3793721849850047 0.3875961155566937 -0.10133874555050289
Ni 0.11422017833465252 4.893942470322055 10.238257893373607 -0.84193138431215 -1.155567660551926 -0.34163250434238585
Ni 8.630458372735704 2.137615706053438 5.829906632612285 0.2132619514850714 0.8415758007449441 -0.17530552684595616
Ni 3.602344668221879 2.4203436555227142 11.212198281767217 -0.5162086092214851 1.034809887044863 -0.036602224604065994
Ni 1.0595980767105357 3.270946141904806 12.636382568699904 -0.5802689300365038 0.05359953049301092 -0.6450602154802761
Ni 3.1386069357308575 8.230164763226327 8.10114937931328 0.3602010113731926 0.32763644717360996 -0.6573542023562808
Ni 5.671218712148547 8.023073399064188 3.474471820008616 -0.15377485186303194 -0.18643274710736923 0.535933084233606
Ni 3.151819196903707 8.463148188389082 3.553341077414192 0.6098083342565175 -1.2616300368303432 -0.19982639480545586
Ni 3.4244664798906923 4.4882159501391445 9.52319389362023 0.36147165055550007 -1.249796534530525 -0.7008600960587156
Ni 7.153482799630407 5.949867466228391 11.402046020640446 0.023959339029074867 0.9115655996705204 -0.5919054858341677
Ni 0.5016634198904627 0.1442943170862937 0.42416321987554295 0.3271340536158947 -0.30613996786273084 0.1531513593464201
Ni 4.542581155948737 0.5222895284359182 1.5521762620909523 0.3073391303771546 -0.3691978155551642 0.6081173197073397
Ni 5.928659260110771 5.502347242840927 0.5027166103814952 -0.04530592302565101 0.6438075740200977 0.06676512134069147
Ni 7.875401111105629 8.502703748990585 11.011492843838623 -0.5476753123711987 0.8281975796658253 0.4055660697715532
Ni 0.16112280302141108 5.033862482086984 5.666436487288237 -0.36674626869087806 -1.0916096696427264 0.0026124979221825973
Ni 8.009951385576947 8.823209379654907 2.3562271872832965 -0.5734290242965351 0.22465785202683888 0.7000784806976846
P 8.383676076443653 1.539562343073677 3.6398976326797636 0.8852788980598496 0.4702586248539321 0.16481748283043876
P 1.64341937967009 3.1179131414211967 1.5550822375674944 1.4148297329161956 0.6503677437361186 -0.0256809497058719
P 4.607333870371684 1.2435318847459451 8.109298745323583 0.31699259430651855 -1.0358992634542998 -0.15000510040795456
P 8.308960017529706 1.329844771260378 12.229436802284445 0.9301883569780303 0.22154913119452813 0.5454996448761186
P 6.276401642291252 7.832416138451066 1.3137978302826163 0.06514275524592007 -0.6947920354877647 0.05747109763327522
P 1.643356206290165 3.11285024625865 5.835903591320862 0.9142115219337997 -0.11492779708884723 1.248765007942217
P 7.119044282802816 4.014235105331741 6.005251568408485 -0.1454917859186333 0.48074332643533985 0.3893979446521229
P 2.3439760639621605 8.407140474701446 10.17202962929099 0.16028154263329816 0.06754056605413529 0.2709827032353075
