# total energy = -381165.84853476594 ev
CRYSTAL
PRIMVEC
9.24196420874955 0.00000000000000 0.00000000000000

0.00000000000000 9.24196420874955 0.00000000000000

0.00000000000000 0.00000000000000 13.52654881157381

PRIMCOORD
 96 1
Ni 2.0609857099533335 8.85443925933409 0.49698846540128383 0.25408001394269786 0.5746904075074619 0.574716632759707
Ni 7.34544833643915 4.4799311716495245 2.441880319692811 -1.8324769022219989 -0.7625364900225899 -1.0884945210525123
Ni 7.580647079651584 3.5721484944009845 6.429709252336447 1.7613745869585344 0.6930837945474063 0.8345944843311046
Ni 0.7936416485913622 5.396900361167826 5.2493561018299655 -0.7494665442125092 2.4228628660878466 0.2784155053642689
Ni 0.17805383107320946 2.1225279485894917 12.418466839920749 -0.844666523855126 -0.254901995623361 0.4354055217304889
Ni 6.1085315933324456 4.971862434320413 13.103397113736708 -0.18393312061396708 0.2912795058111306 0.39843640070530734
Ni 8.491516572894188 4.622617854680557 9.420280356938315 0.6146371231037285 -0.4271137140353419 -0.7073709005940398
Ni 5.620777698414005 1.383041436765857 5.754545886132846 -2.1650619516501357 0.6942554462580044 -0.27523967873944855
Ni 7.977857452732144 5.849996890883445 7.0426242938501575 3.8826740488107396 -0.4893860897120023 -0.5722308902233758
Ni 6.859912512893689 7.391741334386066 12.78830990904435 0.2657407381100778 -0.03564860244154506 -1.2794572948197511
Ni 5.650453644991675 2.5470113575936604 2.6201199142435074 2.9827506613648374 -4.5956910919469625 -1.4122568299826967
Ni 3.8677896825271403 2.8752212270464157 9.17081017283356 -0.7566851734481355 1.283299294273661 -0.5760155540767886
Ni 6.319174438053174 4.929238496102967 8.097316307506043 -1.5662250288034574 -0.6326315027986201 0.6200611223327772
Ni 7.978430454503497 7.050084407234616 8.893678790314928 -0.7739285339096156 0.4886669521577907 2.1204466269336057
Ni 1.997206916016086 2.0526956681968183 10.925893341971486 -1.0376095612771872 -0.22942750550134036 -1.9603206360415657
Ni 2.665095932312717 4.126740273358575 5.234692801661753 0.5715688311593446 -0.09829404518690814 -0.4717118123606908
Ni 3.662553386778053 6.060131427581198 9.465310902595442 1.0031233545748595 -0.48592512774659535 0.14437978380137717
Ni 3.1034792552542307 6.09266314105158 4.04515498727832 -0.012636714927404044 0.6031095820801032 -0.7733109549302747
Ni 1.5092034880681846 0.22667765235456655 6.812348744889335 0.20412322240859684 1.7732137456853074 1.0001822696686646
Ni 3.474590321846053 2.5583974573082946 3.6277121064905544 -0.5108303756287073 -1.897839743898525 0.6176041761518525
Ni 5.454348409728024 0.3188690163832903 12.246842643239967 -0.5735354679674123 -1.260973377082951 -1.216601792946111
Ni 2.770731581450919 7.704859076538499 8.105554594263856 -1.1279959215812445 -0.8285940437732956 -1.2177963274748447
Ni 6.770875431196625 3.1410385971700356 4.501824460297248 -1.3575802643754233 0.4738543126249904 -1.1950140394730067
Ni 6.305246798223665 6.582607381450839 3.362781040719721 -2.5926628897345414 0.5656025862735808 -0.36551959537262857
P 4.578422782573918 3.7144100470855297 5.905136296822932 1.7199924244673215 -1.3489953509198895 0.021879573681910704
Ni 0.9456747298702927 8.228120597352738 2.937019468086872 0.5428817476372972 0.38891920524349155 -0.5228816503662865
P 4.08099255129085 3.3373933654631465 1.4190841723803869 -0.5403962622112822 -0.36751991363210895 -1.6717703562361401
Ni 6.375485725034719 6.334044758216197 5.752516350826568 -1.0696316227097387 1.7577765851946308 -0.7002098640692264
P 3.0953925367069055 0.6707734332779108 12.249209510234218 -0.21193834757764143 -1.6354005593578544 0.34434424684659404
P 8.85432835576544 2.4913470080959006 10.329210886122372 -0.019295615004818384 0.040993668803542306 -0.5063216891250764
P 4.845589479449435 4.370358445824281 10.626849262680615 -0.0034985000715617165 1.4430715013707083 0.19112963836240632
Ni 3.9794973020488773 8.33599280179203 5.312294801234696 1.3423701322938884 -0.993991310366604 0.23464735913938298
Ni 4.284583777438309 5.800219672488138 6.2339672262601225 -0.7943322943769481 -0.13671686793948065 -0.9013387797361896
Ni 6.554197583948579 9.134036397862353 7.861846774746825 1.0842174909437134 -1.6266760350006633 -0.18166746450824198
Ni 6.458570981880952 3.1848455067864037 9.844892229242834 0.28130851064134776 0.5725839026874203 -0.7208033719498619
Ni 4.874073212664129 4.360256979113165 3.08222735891186 -0.294351459868235 4.332578278378034 3.2024761090870655
Ni 4.169669196389804 8.068909282593 2.631265722892735 -0.8205308071491869 -0.8786693631631318 -0.06156429386604236
Ni 5.14493669516128 1.0379095311300706 9.633675458554348 1.9457995596072555 -0.7814497819873251 -0.16838951645241323
Ni 6.9157247338163135 5.544097122657254 10.681076486767966 -1.9287006951434396 1.276539349842008 0.5626404183214633
Ni 7.959983494251542 7.407729932199635 2.1205566376567555 1.2026039360051224 0.36217253327726656 -0.5381833137203634
Ni 4.315322549882199 0.9225762891099156 1.448219464060893 -1.7355036327290432 -0.9459769872708547 1.1449993981177764
Ni 0.9035424641405255 3.7567752103094594 6.942987603579462 -0.823050488247247 1.1173314998888628 0.9826833415529528
Ni 0.22225999353671347 6.852629845219069 0.17721281234428762 1.8928271211752823 1.7925255586400421 -0.5978971846412283
Ni 5.094817524095973 7.088253718777991 7.9050363211643795 1.246259467911544 1.0282047230235196 0.8770297706771799
Ni 1.6742557241101061 1.3838454876385626 2.311930911521119 0.3101570594419239 0.5663242949309536 -0.8837724887176521
Ni 1.155763056747775 6.595472195414127 9.787526434162718 -0.1841246677994829 -0.6386147169652485 -0.8549416805288889
Ni 3.893445374741283 4.642081430978463 12.843822690331624 -0.2093723866226781 -1.9401572737198132 0.450969694717333
Ni 0.8139656517427027 9.103565642376031 12.032744228159416 1.3360981832422472 0.3819335179542777 -0.6632713391716641
Ni 9.173055970098703 3.1893278593526353 2.1699965243640884 0.2110104364467334 -0.15156318892369383 -1.3177297080373886
Ni 2.436098546980575 2.6178602540322835 13.091264263326504 2.2184941033273473 -1.5942377119662996 1.9250978082835295
Ni 7.9550760113388215 3.958499559717994 12.066140989465262 1.3861616755575419 0.5239689698931944 -0.7862173785792976
Ni 8.635922261239282 7.51975177849921 11.382090550627252 0.938457796075674 -2.1474547800913344 -0.7534062455865477
Ni 0.7882720674759384 3.1890413584669584 4.40517754539805 -0.39236165526613714 0.6473415553152851 -1.7578316068022823
Ni 0.899938098159432 5.833490743082847 2.80161914951608 -1.3666696282712012 -0.49774320342744593 -0.1478615717023905
Ni 6.684500035147137 0.12274529719153197 1.2699955808490881 -0.6401964596300717 0.012418171158694742 -0.02890896972486634
Ni 4.410061923400634 0.13868306420280324 7.384467908675501 -1.3824178922443933 0.2173813729700837 0.19798908448640096
P 0.4126952838531819 5.386845104276981 11.409629755115615 -0.37925854222527583 0.012108096117443663 1.1760765791385552
Ni 7.783351077249851 1.0895721101924112 5.216702394434069 1.3062649019308987 -0.12041941633103778 1.910624297257703
P 7.360300172674066 2.9508204930088384 0.5238104934790521 0.3877573237249064 0.5888402166452826 -0.08558456804003971
Ni 3.019719335032049 0.38260899407151044 9.284853236671765 -0.08940188490360088 0.5991642242791101 0.43173989995344353
P 6.12487138578007 6.79418366454103 1.031565847003346 -0.03404783361332846 -1.390115260888651 2.5872571453379374
P 5.439653686882028 8.176402566506074 10.029921894784069 -0.19812303896110395 -1.0398993857526284 -0.19651121438929384
P 2.9915590705592496 0.21952899315873106 3.8916154658585738 -0.47205274063987734 1.0067876908003242 -1.1360193061063533
Ni 8.193648071430998 5.203253488342563 0.5265008292151965 -0.25167963203132143 -0.4758731428272321 0.4530499742851294
Ni 4.126453772472899 5.642561007689485 1.354440330607677 0.31290068362533213 1.661924573790312 0.3252499492193044
Ni 1.5817436639287052 1.900332648801157 8.356241945034533 -1.385878339989168 0.14953458852943924 0.7509462140818293
Ni 0.9433087870724467 0.8474862553668725 4.459108102439263 -0.30797522129925675 -0.925185247336484 1.1131632274437862
Ni 7.789284418172574 5.262263428827902 4.320352950916838 2.5077102988515456 0.14621452301727075 2.4474906919388557
Ni 2.6506507424961803 7.949623252546911 10.936944882587364 0.8894661966683196 0.5525951182703193 0.24505004252994572
Ni 8.388163688877345 8.026350038123933 4.813665887213812 0.32525714830815594 -1.2721450774290541 -1.2975632603918428
Ni 8.22593025187192 1.3722283388225764 8.461329545704327 3.32680283089231 -0.31393529553743355 1.1982898820108008
Ni 1.4209242474235555 3.912908951039188 9.360777819768892 -0.13662302267409374 0.2416489872681967 -0.13995851480522994
Ni 4.717200114810073 8.064158913069198 0.1593092795787123 -1.7180185885704027 -0.31349332290400844 0.8759514500113367
Ni 3.3197319721557883 2.2010476751930064 6.961140669374498 0.8332148303747586 0.5107295883847849 -1.1501138365262062
Ni 6.7672156134312065 2.0373817337591977 11.68843947830647 1.1760752935869745 -0.6760918879751001 0.6888643571494201
Ni 4.2729019348739445 2.3097054465768947 11.390706833714875 0.7904085338425096 1.0286014442413058 0.3955691064598413
Ni 2.7650662574857647 6.7349888847746096 13.023415308419839 -0.9363487201524713 -0.49622008191470024 0.02409535038630689
Ni 2.303143652098494 4.025494557146063 2.0993879189908715 -1.4252907803485197 0.18189140759359 0.3407215624923422
Ni 7.955214640799633 0.21479710756303902 12.841902210201184 0.40901443333146975 0.3185465690571998 0.4733565470529654
Ni 5.960466087221935 9.265808321345512 3.6229913112517274 -0.47314751636595287 0.16092354709267126 -0.18684592338538789
Ni 5.279813918566611 2.2928943139625124 0.025202835975492437 1.357487447551301 1.423371708948936 -0.509688034494148
Ni 7.374505071425196 9.154960204480803 10.396180930247496 -0.20072036737463497 0.43571174011699804 -0.43238627528819085
Ni 2.658645041402965 4.723447682510635 11.011448975809376 -1.3788923955896382 -0.22111641453248368 0.8739655299295593
Ni 0.7286530815594352 8.923476730818113 9.272273075201344 -0.5929922911404433 0.05013831141728784 0.22557650718636635
Ni 1.6164010291315278 7.81293460418698 5.479199126873056 -0.20403709045269378 -1.9366767713703807 -1.3577661551339844
Ni 2.783337620420693 4.801985893042258 7.5661427412651 0.6755419290089011 0.20815754037897055 1.2165984505120016
Ni 8.741428522880728 8.246770880813884 7.141422737981148 0.49571588858477206 0.4470119956211656 -0.31580423042537226
Ni 4.7014240821697495 6.536757997778519 11.658099034513311 0.7563704704211942 0.730280972422994 -1.1394008209840765
P 0.18276353595517167 2.129126710924109 6.08063010385316 -0.38279972260931494 -2.5750163802973716 1.1058515242737212
Ni 6.4655209388496235 2.1852624005886274 7.740634719391865 -3.4910045345156204 1.4144461243245319 -0.16093665971879378
P 6.479143593865348 8.594490536384814 5.556070087089322 -0.8875463539377875 -1.261169552254157 1.6013275289335454
Ni 7.81596596839672 1.360675883754969 3.070364373852035 0.3933980669504515 0.8438897935901014 -1.3147318017513294
P 2.3358786887780663 6.940687278726401 1.6192226007572403 -0.2362267878113609 -0.19408589277725283 0.4241055233366373
P 1.067918188413688 6.181922029885942 7.58530965051687 -0.6957474574224985 0.3262287681928059 -0.6775160220161364
P 9.019593156980607 0.5062489133834779 1.5685248827421463 0.4621313677611073 -1.2531669936646548 -0.8278985603681678
Ni 1.031070477730047 4.1737818703938725 13.357723949951884 -1.2247485904229616 2.78400952920376 -0.24001505120919958
