# total energy = -340871.85271273856 ev
CRYSTAL
PRIMVEC
9.24463888532436 0.00000000000000 0.00000000000000
0.00000000000000 9.24463888532436 0.00000000000000
0.00000000000000 0.00000000000000 13.53046347109265
PRIMCOORD
 96 1
Ni 2.43457569246762 4.402602186257574 10.7897325470002 -1.8019540510427934 1.292213308933839 0.6748752419591796
Ni 2.1647893912210563 8.015998781893282 12.737903405049574 -0.19158498073227007 1.725473759296867 1.2484973561031274
Ni 5.617615851286345 2.2270890137444637 11.36981145993235 -1.7758956633928449 0.4508521953028622 -0.6041740187888757
Ni 6.135777869751544 3.4684406554120812 0.2863231115700347 0.19664953973937102 -1.6222745634988578 0.7199214835655408
Ni 5.011250731694001 4.397647059729521 4.383058094852806 3.215729631662862 1.6552466475495042 0.2709868170003656
Ni 1.6250226513079864 1.15629171781573 4.284136759217033 -1.5542663137796846 0.16214739219744334 -1.0503830588927716
Ni 4.7840822164443075 1.895261939867749 5.329839482458456 0.37347741676712454 1.1748231663474284 0.7905206339403418
Ni 3.923933265792078 2.1502013508082447 9.341756751432314 -0.42570783482675073 -0.9894736250019088 -0.6947776373100616
Ni 6.221438695141348 5.452303215885904 2.306430203883192 -1.4038246400549435 0.512377408400853 -1.202237296694323
Ni 5.509203969207105 3.2201111613886706 7.348840915941847 0.5488521062881192 -0.9810967137921233 -1.054712539506061
Ni 1.5594134480065143 2.993367899535041 13.097353460392373 -0.4656162409859142 -0.23789826197651287 -1.602136655098402
Ni 7.1465312350838195 5.116121917019054 6.665891357573956 1.2090838873025112 -0.5997571206681026 -0.2581253876566651
Ni 8.68863871879833 6.563573541553097 5.154172851327757 0.919774617843874 -1.7022255874022039 -0.2021984945820582
Ni 8.514349538885316 3.224807438023466 5.100782287451894 0.016019258246391766 0.8591228084897721 -0.4358971166549267
Ni 4.367185974076661 4.817307449171586 12.191759713123352 1.0686399482204305 -0.34726039205212456 0.5300365162435129
Ni 8.57721308439046 2.6418312552146546 7.660123628469137 -1.753556376465696 1.166842976355429 -2.5715513045669067
Ni 3.10365644334039 3.482122721198495 4.379256699277553 -3.410396336644249 -0.5929416404081659 0.8595249290241971
Ni 4.411514018296833 8.509477614108667 5.583914519648256 0.6461555054269839 -0.276374306564524 -0.48864484067060365
Ni 7.857212861658524 1.119331650914323 10.4741214944721 0.18809419397019217 0.9238940393288864 -1.4090892308879925
Ni 5.917918706020038 6.003108054818553 10.687902847920911 0.45867349111949396 0.7074176946715752 1.0449747433930068
Ni 8.658649109736757 8.203202722551985 3.5666030061822687 1.3034076349877617 0.5581733836890451 -0.4094864878718819
Ni 3.665074127896555 6.371969152709035 9.59450610738308 -0.4213243610470744 1.3033281879000778 0.9211108201567942
Ni 8.080618808816952 2.335815213551229 12.723899625824401 1.3040977190762508 1.889413981728675 0.289228793929689
Ni 6.849565695045325 8.271992081684894 11.281551966507033 0.5566330357851188 -0.4125206467125153 -0.6744702932112772
P 6.851507069244749 4.014734110490832 11.691132925998469 0.7244980471926297 0.6171439486859822 -0.8079573413595504
P 5.0763884584041845 7.374161982285757 2.5128639182191375 0.08085939465022848 1.0586077607954092 0.626600980333824
P 7.849761682588354 6.983918034284482 1.111208386585592 0.35721801748546866 -0.9510788272737942 -0.09086587104363705
P 1.000510305270555 5.244224880263876 12.692900502179128 0.7454887905116839 -0.4858636783810406 -0.7863544183777942
P 8.844715959792941 7.790697683730653 10.017359595151245 -0.18785842381030227 0.2575008666987888 -0.36579033253551196
P 1.7655226755119846 0.8059790637048851 0.17526911165176992 0.6669690997382255 -0.16043632304360755 0.9511253642410135
P 3.286487669730867 2.597808284082964 11.33461804355242 0.4669051350006668 -1.3506182312352932 1.515649629848751
P 4.051518529250386 7.326829430376001 11.812419816875506 0.06119354079018492 -1.1954665536293927 -0.6077285689093533
Ni 0.12424055305187333 2.6161588925870394 1.357605751048624 0.15661566374593675 -2.0254906449809957 1.1601542514813439
Ni 2.9784840306727935 6.056754695195958 0.06604092794486781 -0.21069521919915973 0.6167716529482281 -0.24765405581169608
Ni 5.451452709093776 7.982200381545223 13.2922054909329 0.6169446881909827 -0.6831701349781202 0.5586544370905218
Ni 6.807086578634128 8.74191557361394 2.2038017679904254 -0.4644898406909549 0.005641000335861252 -0.39622730886913055
Ni 6.8633124733050535 3.0232465729280746 2.788574184165656 -0.73355604362984 0.3619380486689573 0.20097182126380872
Ni 2.5267262544669262 2.1684410236437817 2.431938196948117 0.9625492898072391 -1.406211138009249 -2.3702616949523634
Ni 0.8670796565441723 0.2049425540580071 8.022387751937195 0.21674399649640091 0.6276993556043254 0.9353020240555118
Ni 2.393289134493212 7.168533476010619 6.967661336524071 -0.07149595115745751 -0.7782292181674985 -0.4052865908579213
Ni 2.6614206453507427 7.662594720485831 4.192035193804665 -0.7520723572664726 -0.09186191640831923 -0.2805217530739943
Ni 1.3619572026470463 6.522268494300599 1.6385928569619574 -1.4199619119364384 1.3503446658589324 0.4624396430301455
Ni 6.70960185990593 7.132026396422411 4.301848563163108 -2.107659245360951 0.22665559918315803 -1.0786137716036908
Ni 6.609103388849102 3.211763252331149 9.470174956868568 2.143615865961218 0.1895895475687961 -0.049444113563740656
Ni 4.859851278056096 0.7184988933510496 7.289916511133723 -0.14547944462345913 0.3106872209137811 1.5242980495523684
Ni 3.8699445737700127 2.666255591571212 -0.006488812145597199 -0.2929648639333535 0.7883565364094873 0.17116810763881488
Ni 4.792365413028516 1.154461279284845 1.5393877109075078 1.3714014865292317 -0.009931914401731282 -0.5194844517592796
Ni 3.715512878525389 4.820931347677176 7.704760443633407 -1.4728515608466182 0.5647636353120531 -1.2656396722103687
Ni 3.9223246985982696 0.5236357692436688 3.733271830130592 -0.544288655287153 -1.5072120406043592 -1.212050426130003
Ni 1.9450812996805762 0.2253362277909996 10.759302893120095 -1.008022848759006 0.9843615005863239 -0.4117416024546457
Ni 8.42034080443799 5.7462734928738595 10.982014567886255 -0.7585389388274226 0.043334401121576986 0.4815030874194998
Ni 6.435553780059679 0.8335271635947058 12.849543515083285 -0.7501363165860242 -1.7045184972014387 1.773181092675159
Ni 7.644826524241584 0.18087783416029507 8.184875225645522 -0.2424599132052663 0.48842295446778466 0.39540378452657066
Ni 3.612000655139932 8.275181482155375 1.251861871797735 -0.9582768876841301 0.29097740118967946 0.7386594262946762
Ni 8.695396549940131 4.462350288404596 0.455688596727748 -0.2065958523188055 1.6405803037865812 -0.3852728667401559
Ni 6.593415236389951 0.27343608474148007 4.6195572242904905 -0.6099217199059301 0.12888168816577805 0.23586271960372285
P 5.801778305699284 1.0992985181040806 9.191785594526843 1.4381630083254975 0.007771673525618873 1.779165592393368
P 0.3825228254709956 2.0944007095333843 9.206844187067038 0.5908690741498532 -2.340105740194273 3.1402590121283724
P 4.417449076563642 4.771925516100298 0.9184003457378869 0.5363516598282634 -1.2769008469464849 0.1575787989901544
P 0.9655378357637958 3.2183177014139646 3.445451087035288 -0.833413576649126 -0.15972078503382167 0.2184686924969915
P 3.2081301091865133 5.796139075881911 5.218077343189354 0.4442912542558929 -0.8368434282662813 0.016635808784468124
P 8.600241480251242 0.35747909829843144 12.229009137226862 0.40396375828143977 -2.451131631125553 0.9516668385667802
P 3.3677203130181765 2.6455568447497386 7.1418654657578715 -0.07771982057998228 -0.05824448546419002 -0.44515231670460753
P 3.094439538212651 8.823712139882986 8.153917702875951 -0.7580815395750299 0.4389626429541279 1.0708050741925494
Ni 1.4117765624598733 5.271958797398499 4.040277972635724 -0.4102529337242612 0.3684825346556944 -0.13969317695898523
Ni 2.352150490743522 0.412181476454761 6.166346193217325 1.8009004129672985 -0.5201439397201494 1.6756403807145077
Ni 4.096142401919995 8.784977102284962 10.167778192586486 1.1157153044416785 0.45083471180136553 -1.0953351981234298
Ni 5.2562614003003025 6.375463626267997 5.977447710221697 -0.5977421471206028 -1.8720140410846728 -0.4161099067256705
Ni 8.600833137150115 0.7440899031550703 5.8263801391255035 1.9659863189677753 -0.5735141278111736 0.107651318032092
Ni 3.8799472732165663 0.49581772589373785 12.452477947930799 -0.2150619808082877 0.19892985113311545 0.06323088293518787
Ni 4.631943191682812 4.308759855313056 9.953495779701443 -0.6135266636483692 -1.4709219479240732 -0.09036861969224437
Ni 9.181211576387316 7.1448302214995625 12.654447426071973 -0.9896291767431666 0.7773331887157903 1.4109260269864152
Ni 8.514136912187285 5.488717849083664 2.7225184647983167 2.027409459270263 0.8227350138893572 -1.1057880180256374
Ni 1.4624649183429186 8.897401157709679 2.4286914797155577 1.0463464269295528 0.791357013798708 -0.44376572076972604
Ni 7.1035529081641995 7.005152970170558 8.932582556058852 -0.022716210650593135 -0.3805867741183962 -0.925407133539303
Ni 8.709910633240584 4.947009734971171 8.866350264085755 0.7613481261414436 -0.20659122433311516 -1.4031402123934094
Ni 6.697851923679895 5.5543178077460915 13.239829063960261 -0.3713881383382636 2.797959563625949 -0.026864685601327928
Ni 1.9647631362071132 4.301650727887547 1.5290780894446643 0.16001363368389215 -0.01858676186325186 0.2229789216625192
Ni 8.979234702534905 8.86123612976613 0.8898861810678769 -0.282684565053268 1.0304053302192642 -0.45507034714926786
Ni 4.828040475102684 7.516501689659684 7.807456365391202 -0.3416121926274117 -0.2919657332448778 2.2087331672858412
Ni 3.631950586198771 5.7880962399128695 2.7752064361067683 -0.16156478022109597 -0.12921027514979036 -0.24617412883205994
Ni 1.4345645977054884 2.59294560394536 6.20987365169621 -0.35329451406134643 0.7689503639687337 0.23074108210644134
Ni 0.7877440131888709 5.293711433071088 6.576508640504685 0.40254528066735834 -1.0433960860519773 0.9352331184907894
Ni 8.954459069894641 7.5289634630921745 7.196691722077402 -0.46415739705220055 -0.32558522107153604 0.46297546092895747
Ni 0.0782040995362088 3.475503559642365 10.903998134522656 -0.3321955272992021 -0.1149005433953376 -0.16023346300418212
Ni 8.60985590485791 1.4085964066284367 3.28767283245642 -0.15013751222076077 -0.5753416679382156 0.01063588244729136
Ni 1.7496588749109805 3.547297426464858 8.587067869612296 0.3343578250578435 -1.0157724107974377 -0.9474144910483298
Ni 1.5406375861063748 6.9728337120696775 10.84329968348182 -0.4164876017800634 -1.0687204237493788 -1.6215160880662784
P 6.968950963670831 1.973157268459859 6.159499613540691 -1.3345043563925663 0.825349568694069 -0.07433933414352359
P 1.7715964033644669 5.5920729136053575 8.840561419006173 -0.6802488475662671 1.8803400444518648 -0.4375696192613432
P 7.246206933265652 4.921207947396927 4.216390195368387 -1.1157528425478331 -0.8339331965980219 2.4262492660615766
P 6.526484049705062 8.269357359557105 6.792522574282834 0.629456190394432 -0.44283138188091475 -1.7424767216127668
P 0.8396905644459234 8.350257195838799 5.409276816843251 -0.35593477989767086 -0.6419481522138557 -0.5188568454776097
P 7.225249336550923 1.5140500042133167 1.2348970346864865 0.5176972779518697 0.2558005961782304 0.5081330313022023
P 5.722348367025725 5.102393628037416 8.33702534397387 1.7010153691441867 2.2334016165667987 0.23451109067183484
P 4.658817357386262 2.487260890384358 3.2648607611492886 0.5668385155632109 0.17862482102717625 -0.6788164859951148
