# total energy = -340857.5691623761 ev
CRYSTAL
PRIMVEC
9.37322259133333 0.00000000000000 0.00000000000000
0.00000000000000 9.37322259133333 0.00000000000000
0.00000000000000 0.00000000000000 13.71865872227201
PRIMCOORD
 96 1
Ni 6.956102938076732 3.7164359567899394 10.409306930910217 -0.49187800289592065 0.3347874563960944 0.14947751003925872
Ni 3.9170416702219333 3.919328736574489 6.810367133338297 -0.08784456771881001 0.18208449744100252 -0.7074801724783943
Ni 1.2102424026352077 1.4607230343538864 9.295831805367301 -0.05074277777050616 0.29514875895854975 -0.5834167316368661
Ni 9.099571518005163 1.8594411839646772 5.258457638721268 1.0749782317336325 0.5395290291149806 -1.3169951438642091
Ni 2.209915356048392 3.1063141411318083 0.901680596106635 0.897168450408584 -0.5426765736050266 -0.9006029300114295
Ni 4.692282177956412 6.0896141068089165 5.080197688340478 -1.736128925017868 -1.6067587272514459 1.840745312878378
Ni 8.24252152205302 8.946488043948005 4.364494954232233 0.6177777256152392 -0.10401629238266602 0.35652510518350206
Ni 6.1737387810474065 8.991854442088872 2.8162625749025305 0.5018322858951552 0.8266163512216345 0.582258706773023
Ni 3.204957937419926 0.23391158585223013 9.53094222641007 0.8424708017553879 -0.5001142747627838 0.4232963971717807
Ni 1.6490123330839999 0.9719375872770633 11.72466534014682 0.44375826457055834 1.973847466883407 0.22646970842459707
Ni 1.9104315157593712 0.36560630290161117 2.838637394944279 -0.2461525315655051 0.47118396488167885 1.2310832743917377
Ni 2.165055111936369 6.417133256362264 12.411051445439943 -0.12581873296973814 -0.8446315568521325 0.38144063747825924
Ni 5.728360728555368 7.651202391244182 11.947882078834025 -0.40963638318618484 -0.0181365616997107 -0.10799044653906562
Ni 7.365131632719538 3.7813174047095854 1.6247694297469049 0.1641309982863754 1.1295113297845063 1.2516852669128056
Ni 1.7459970689442388 7.3215555201251385 2.325834001876514 -1.6283590791300406 2.722309738201118 -1.3444277861538652
Ni 3.0276259360920186 1.2758362154843381 5.599806041129373 -0.8361294329183923 0.726428174335807 0.5591948829750241
Ni 3.7492797293282867 8.293333762615344 4.409766682823262 -0.5781230873380947 -0.5561792360771518 0.05765184618551361
Ni 1.1691970601850301 5.014552322766187 7.638069568840223 2.383210798913863 -0.7711645980112332 -3.533052098504973
Ni 2.908520394526728 5.202879114387326 10.697673191687898 -0.17492243247492456 0.3293066357871812 -1.7138888826727452
Ni 7.685536506200793 1.4614728921743967 8.903999225193346 -1.455014018444565 1.235906406811994 0.8425402215407426
Ni 3.8037850196566225 8.676108060317535 1.9276088837827088 0.0497359337725466 -0.5079952201727573 0.27846821297907526
Ni 5.525271111092935 8.662535633766302 0.44983220794586903 -0.31098315488764505 2.237390426011218 -2.630578433833392
Ni 1.341739344684429 2.352472700950139 7.011263416675739 -0.020541828707093653 0.3486318184783544 0.3575674304050874
Ni 3.4772875513837214 3.825137221095651 3.0560914762808618 -2.5281413130123878 -2.716601374962431 0.9232587197377325
P 0.2706302486780638 5.276346434351814 2.4158422480391812 -0.34121135764456717 -0.7624269610279192 -4.210682791722103
P 5.786296618412538 8.122422418875555 7.9701019251507645 0.1424149467655225 -0.9791727572965331 -0.4884535505954039
P 9.106676420854498 7.386980614964654 5.88187537085932 -0.4381915691160582 0.7043660523294449 -0.4465443119561277
P 1.426510771293108 8.276311990089763 12.288611848540208 -1.5835941162095244 1.622255280225148 0.5335818103926101
P 7.462313206257662 7.715624551248766 13.420744373979694 -0.44986592013019294 2.4031859564842097 -0.6479789317889679
P 6.241525928021528 2.280336378617057 0.909287903695711 -1.0107366481457432 -0.9757583322983452 -0.5035847498098875
P 7.402568284408511 1.854248418557644 6.506567861292241 -1.8406962048079976 1.4723139431755934 1.0692536705450295
P 1.7464469836365448 3.6834703323557596 9.271549534494628 0.4425053660000637 -0.5647806045929176 0.4330889577821702
Ni 7.321686745243729 5.95148092304818 6.498021356782975 0.8709221151175452 1.2267913318846033 1.1612276870511808
Ni 4.840800892531215 5.4034285884827815 2.5706157141593153 -1.3832478443448564 3.049040385731007 1.3358498146768674
Ni 4.025564843295273 6.470813703088038 0.10256086607800814 0.42862089470848763 1.1398718470832239 1.2009928827642606
Ni 9.805515789901742 7.49812829040978 7.861587187977905 -1.4753678995105688 0.9319783589989175 -0.6313726906908546
Ni 7.660303790540626 5.856839492877035 0.47117128687303833 -0.3154010814496826 -1.875719257850402 0.3351870058273582
Ni 8.361224015039786 0.9657793799261232 1.6647452874805797 -0.712801841801624 0.6456474554423138 -0.09692364720194276
Ni 1.3513937641234979 9.039807849710499 5.167475514714212 -0.5945624638410405 -0.5025547658834765 0.679402697515888
Ni 8.614497867139866 3.553913647417108 8.344086014552026 0.8453481233031829 -0.4356245797198304 -0.7643113225348257
Ni 3.5093252267650197 8.9388394941788 11.924422776919362 1.2189682362957586 -1.6388234689964742 -0.39192276795650566
Ni 6.153295782215746 3.5386446675469694 8.022919098060676 1.408502248036271 1.0238299909945916 -0.4582875685349849
Ni 6.288495147253737 -0.04919442231457224 6.344838526564598 1.1034282595442095 1.4985739053133869 -0.44537266024552974
Ni 0.43912705023581017 6.212393951694707 4.110699950946899 0.9871305786910289 1.8157886429330403 3.4036729018774863
Ni 1.3982692511281425 0.9273332321462892 0.634740585227757 -0.592653933964418 -1.1105730981191066 -0.9002985113971333
Ni 6.186430124659541 7.6699019706431555 4.969378075691825 1.116552198520677 -0.00462438614588881 -1.2543651277378138
Ni 4.05108812886089 8.75649281867623 6.775014149068069 -0.08898279508831126 -1.2866615258776744 0.14757849324433295
Ni 5.40930559915103 2.866593969137451 12.440752376388078 1.034359943991638 -0.6939034622352244 0.448854191036227
Ni 4.8962809980262145 4.1929424820559085 0.9879976671478407 0.011642983555567045 -3.0798013210629476 -4.100941681040518
Ni 1.9331240880525615 4.324448797327886 5.024568548603652 -0.5906605576834731 -1.174490722708674 0.36399878785272793
Ni 4.611278786895797 5.636606250993188 9.041419106702321 1.2450685329272364 -0.5670472891399073 0.5079273430492993
Ni 2.2454679899633323 5.2644143217829455 1.5239369859451728 0.1408386034173381 0.25930192446326955 -1.2222448501645014
Ni 5.7188656539031575 3.3031518190157385 3.4736188719968752 -0.014682798823155358 1.5808484351435872 -1.819486146389286
Ni 8.629841832792057 0.2927435558049098 7.154390653521074 1.522435542422333 -1.4864742938363755 -0.7261047295581172
Ni 3.7151799449405853 1.4057678293332445 13.296329839045194 -0.04758829130192449 0.08347137835177883 0.7124089772385795
Ni 4.9024298321543975 1.762981348578795 7.184804886720968 0.4464512380216892 -1.3613824117303328 -0.36004545963193474
P 6.764804834841822 1.5470597891628806 11.162817496328588 3.0623694987397454 0.1271413084359036 -0.08419025879567436
P 4.885389313183303 2.4599366998520082 5.122231905791454 -0.5530298918148927 1.2393064336324786 2.518568067501656
P 3.7262216013475977 1.5011403708793865 1.7890501557088323 -0.7663147261180995 0.13322839517024798 -0.7875618084223339
P 7.5067516553456475 5.379798693913953 8.858536282858086 -2.1624854491722107 -0.11781103217391324 -0.7504080821901722
P 3.182790265601093 4.481609623284069 13.069327255686687 0.37052527611733604 -0.14190509700863946 -0.06007074003965138
P 3.817666762558818 6.049637311752966 7.198070808888068 -1.1081290074539885 0.4325120022327777 -1.2316982822679174
P 6.338473170990743 5.696463651515415 3.8109199168187775 3.017829507345841 -0.7341132016848906 1.7308208825413933
P 4.711750361621409 1.3912205876153465 10.851198144536882 -4.428321275008315 0.7621351408191133 0.749645750102851
Ni 7.068825314944929 0.8182973437881753 13.252224139365058 -0.04680898993373874 -0.04780040731273058 -0.17060272205364813
Ni 1.0851567449513484 3.945086352709015 11.996102623304209 2.1272574792078527 1.143065414319857 0.4141579252056222
Ni 8.04723979914665 6.838319020920091 11.518035456449304 -0.1612181955149546 -0.8649167894637299 2.0774860642116804
Ni 0.13507376385305517 5.588202928679253 9.32626009840133 -0.19921832890781174 -0.10233453380486891 3.423204544152511
Ni 6.652419893992854 4.0377312864330515 5.567703690511055 -0.31607573891920404 -1.2823824388863465 -0.08373183110201708
Ni 5.681250910981813 0.21825267991542566 9.454679811419632 0.7789699529882649 -0.15816346784903085 -0.13438384893092983
Ni 0.43572269573069383 7.501071482355283 10.361909355398042 1.2021460225320975 2.174284241579352 0.47259292941406345
Ni 9.08524923363342 2.5641388172346584 10.788998375647836 -0.4091566153362889 -0.7341224576562712 0.09334621426332955
Ni 4.41575336019776 0.9994292496215188 3.7886407036491434 0.6647944606844098 -0.511341510937171 -2.0317039728805586
Ni 3.3373172159627345 3.05978546336915 11.270728597955936 -0.6150844950537923 -1.033202176238111 0.7612337120507664
Ni 0.10713781074994733 3.0495686505646984 2.1813214027077867 0.7653575044111528 -0.6128766887691961 -1.5106061538875726
Ni 2.9100763495042865 6.164131227722119 3.592052353490533 0.6671362214437092 -1.1097691141605726 1.2404253777282703
Ni 0.38763993763502796 6.842940019738986 13.94364460260063 0.09031668340838639 1.1231252237525045 0.34454787821696786
Ni 2.3370443762931417 7.212479326909172 8.801630510181843 2.991761092393564 -0.49144014402755365 0.6147366247960703
Ni 5.894810418263121 7.083250704766995 1.689260951599885 0.6074156656546248 -2.2651660534625893 0.491856919849998
Ni 6.905103233059282 7.387243065201833 9.687115114687733 -0.5213564719710118 -0.3522637588039869 -1.4922495057572558
Ni 8.35438156242763 4.270880829275188 3.76492176346413 -1.392043074038983 -0.25916051378939886 1.9968261871667674
Ni 7.7570073297181725 3.326359918560529 13.076928002019836 -0.021760017384910908 0.3706713147768971 -0.9607307485412615
Ni 5.16126200534901 5.16340847336022 12.243326997437322 0.17719271656634 0.3922564971468406 -0.8261630657342998
Ni 8.888758364991475 0.15807658981948144 11.828995870681233 -0.8165944482092581 -1.1238687867867483 -0.2854847535062245
Ni 2.1825174259315006 6.57659052189376 5.828495804584025 0.11544536015521409 0.997557430451308 0.986876553698694
Ni 7.22498320606618 1.736764444529207 3.690292163877851 0.8135906283859279 -0.9375548246454304 0.23957487834798738
Ni 7.860019047810763 7.01044888361821 2.968402165428122 0.3305554205926178 -0.14108620065176994 -0.6153791434760757
Ni 4.20605562069208 2.9566612666034837 9.040610197578445 -1.3527270500481798 0.025606387714194608 1.1203183504313285
P 8.607739773532517 4.77299499911158 11.49504294102791 -1.257889853061621 0.4221607409054407 -0.20485624391987944
P 4.135137817317327 7.188830685894832 10.501331357287782 -0.6389888124752157 -0.030427206141605666 0.5225402078664678
P 9.085830373444313 4.0473575862038516 6.084307925406532 0.5925865710615924 0.19604430205520432 -0.20435436458279643
P 1.365622316267679 2.355190935549489 3.6788230885131474 0.9130072172130534 0.26786781175540963 1.4979473274729815
P 8.997928290435004 9.35701645423183 9.508704255420566 0.5956179016887484 -1.405990537358011 -0.2657245401601617
P -0.036443090076796136 8.641445882564451 2.3342436573335363 0.5397411451257865 -0.4112327811390273 0.30963666816207963
P 0.31738857039825347 2.495948621682011 13.295205052314428 0.4959974243809329 -1.8854485693230236 1.0307159194811475
P 2.256228449687654 0.034282562231451104 7.6297967624354435 -1.9320022487128468 0.8055618445441803 -0.4244932456933593
