# total energy = -381170.0595353314 ev
CRYSTAL
PRIMVEC
9.20813553965941 0.00000000000000 0.00000000000000

0.00000000000000 9.20813553965941 0.00000000000000

0.00000000000000 0.00000000000000 13.47703713489325

PRIMCOORD
 96 1
Ni 3.8879325694722793 3.296236208621863 10.455403978447075 -0.265537106739704 0.8980991897529694 1.6572510795740427
Ni -0.17003466479746554 4.689638873083371 4.09036145440532 1.1158317754148848 -0.2715097793833711 1.5055696199049298
Ni 8.3965579179891 6.374211985216003 2.729962588639072 -2.4905170749017107 -0.8364785887276949 -3.1726145456409425
Ni 2.51669388678062 7.09346864496867 13.064531890238195 0.49697727179569895 -0.283814307782337 0.8482478134484811
Ni 6.091374900030012 5.633306999272676 1.9924185720958274 -0.534871218627995 -0.22465708069589052 0.37667818309260936
Ni 6.279800973547427 1.0182263980590467 4.162719902741693 -2.0291999755117827 -0.1163321336355416 -1.0050920482654562
Ni 3.152046017290718 3.9982091983363053 4.956395791520427 -0.093690999197258 0.6783614007355673 1.1653185692911028
Ni 1.6618474341068785 4.194885761120769 1.0305109714197263 2.4742869861960934 -1.9143737369978064 0.31678304939887375
Ni 2.939605126799574 2.8171000942004585 8.50829587793201 -1.3514427840191177 0.009846039556144335 -2.085298104056931
Ni 6.454341178968069 6.710106346246559 11.299093854339615 -0.3719185569204369 -0.4703779240406157 -2.1759778272316916
Ni 8.358067912256665 0.7069223624611374 5.170478492543173 0.7531681614338126 -0.246196240319247 1.3622313899941894
Ni 8.038628489083491 3.965980724636899 2.0558009301001485 -2.899018573152504 0.809641928150825 -0.25345575009513766
Ni 5.048839024666269 6.726745446810796 13.315393725446702 -0.8664494240581723 0.058447088393299346 0.927852509756002
Ni 2.7286651623692872 0.6367876788100234 12.114670372217399 1.4306692710516136 -0.20172412604880097 0.5821100970103007
Ni 1.7664978922765227 1.3088167332035807 10.086052778462397 -1.2283442781940201 0.5464869484900523 0.6589647413765103
Ni 3.621393883842846 5.229751259744052 1.4909647000443516 1.0096503570600999 0.3593168089960263 0.878079552097933
Ni 7.825662734877813 2.1642340902685686 9.112835745958407 -0.03203491694835773 0.1669358147250222 0.18027932591146373
Ni 9.320935000635474 3.1615856455057427 11.06048252239102 -0.73627961320859 0.3610718440139201 -0.30913016083930633
Ni -0.03418059839205619 1.0725820209869315 11.914792140774283 -1.0629223290103629 0.6249475038908011 -1.2910591407247378
Ni 3.3613837661713775 7.536352330545913 8.545829158402338 -1.5793469108973963 -2.560311212876713 -0.5748660138533778
Ni 4.671719841706501 5.258379352524467 9.232605962360743 0.08020530600599736 -1.4769717536625788 0.1586841162391912
Ni 8.903281605897195 7.312511768500521 0.5629623745135601 -1.2714369956184361 -0.4996152236391783 -0.1123698065536839
Ni 1.7338550524866951 1.4584028918455398 1.0749779778030988 0.18919308346132577 1.6513303432142337 -0.07160265193865088
Ni 5.204576217717145 3.0321837195349546 2.921538765257221 1.1990768966884704 0.4266714842916006 -0.4618778569894046
P 5.021638192863971 7.210476420768201 9.688075327324373 2.2344323718241585 1.5741609958210825 1.1105139627463971
Ni 7.76216343355464 4.737613258218774 10.540309432001393 -1.5650546626444402 -0.6066044826072391 -0.40738461103753065
P 2.1949155972304037 2.1619873052449528 6.33203780453296 0.9788516265116883 0.8140565122787528 -0.0942162755731087
Ni 3.9495902437269157 1.666405461101509 4.899104615045294 -0.8265232772871958 -0.06101819155458523 0.7555369187763052
P 2.452550015983459 5.654117385147151 7.608932694944046 0.5938330418741837 -1.0253867939587502 -1.2890194845868896
P 2.1592340727774895 5.408232547091365 3.4305396250355633 0.6554467009209227 -0.6863439047204115 1.2165208031965307
P 8.888005309363676 8.219190815018251 6.412319853331716 0.5163919288768849 -0.3673106258347803 -0.33071122944419173
Ni 7.461471773939177 8.401033071765644 3.7093251306707717 0.7772743104533968 -1.1785263262306283 0.07017157591907916
Ni 3.5735392044668988 6.290187750213979 11.12069820265099 -0.4003279613010654 -1.1394247322434765 -1.114104765421449
Ni 6.478098168152203 0.4287197317931212 10.346361239718968 1.5924975893467412 -0.9175362154316585 0.15811795932307607
Ni 0.45865906304633547 4.010842760026473 8.696017529095709 -0.3074028937355544 0.049656743795178995 0.513644962259367
Ni 6.294285370441474 8.321336660374683 1.7987530695684226 0.015205761206160911 -0.46536427287610826 -1.2454950789416936
Ni 6.062884929279736 1.3577763888206502 6.386659542572247 -0.20114305673435037 0.12414725880458619 1.3104144053228979
Ni 6.543954752123105 8.165240350045446 6.114828020747837 -1.4719555313949102 0.05115364005567965 -2.9726613954496353
Ni 1.0186775966908386 8.927425336765722 13.18147152583619 0.5267311060193638 -0.8215345658233529 1.4813354299479131
Ni 9.175501711033068 2.8282143135590827 0.22728900873122818 -0.9442008692070384 -1.1367577269342746 -0.8281353589693223
Ni 4.5807710889267765 6.169266516893806 4.551397137183603 0.984925343509594 -0.39880586822958414 -0.2018645082814072
Ni 7.55231002909479 6.198622052366294 5.550383136444104 -1.0629637237712597 -1.0960160262405383 -1.1614775982784575
Ni 3.9659162676895003 8.10710939162706 6.144060167206733 0.49387215050781397 0.9024284132559426 0.46949166478092047
Ni 2.4280103352951965 8.08673178811369 4.039970854555997 1.6712322243444828 -0.18808930887418576 -0.9108055815760443
Ni 8.7765316229051 7.959429317001035 11.643270012297384 -0.8245561262584961 0.012821834355016626 -1.2714940741086165
Ni 2.4340692883506847 6.528125967469025 5.568226661111163 -1.397340832102813 -2.7695858975792627 1.2242760216619175
Ni 0.9816516844778918 8.292441531669331 8.500533419838124 -1.8743655720359849 -0.41212546815662565 -0.6895215311174447
Ni 5.6839333273867725 1.2828866240785723 0.7326268722702496 -0.19416662541651722 0.03803690016806353 0.3758703424793333
Ni 5.615111723835526 4.293210230309987 11.897595948021813 -0.09328296512556192 1.3308454194837402 -0.6850915203705492
Ni 1.6243703232621403 6.1642572912673845 9.442483307972484 -0.8932485465288874 -1.1238209642679484 1.1810390653501532
Ni 5.306418194607269 3.0040712823337294 8.296948913919577 1.2495679634594867 -0.31896334487964423 0.12763290336034147
Ni 5.014363765943248 1.4740383056574233 12.029657183479568 0.017127917929538244 -0.5685339009877628 0.18919848277796447
Ni 7.488000411861461 2.8185181470432323 4.3058051178317145 -0.03365985414629042 1.0048411085969147 -0.9104165736677418
Ni 7.822918710545693 0.31649005742291103 0.5204051354002611 4.1095934431782455 1.5281840148703358 0.19844288419436792
Ni 0.4292823488625594 2.7001383590776413 2.7671864757618865 0.9936814924356692 -0.5214171500056181 -0.8737279599974567
Ni 7.389169495228395 1.6285416085723776 2.0837255213403827 0.8327643731009013 1.6307041823234498 2.7919519239792883
P 9.13634871955596 4.971803764389346 0.6118630980644366 -2.4542521790324052 2.9559008881618447 -1.5228983409913643
Ni 2.012097278136685 2.7623485214528385 12.246273042535089 -0.3595932025858646 0.036676786595743284 0.3971336227334838
P 9.425631499481831 8.716448539794063 2.492470045134612 -0.2315324676594851 -0.5390790860617555 -0.12017053354502531
Ni 2.9106547492821644 3.1647808684696552 2.892818591123379 -0.9326373327391551 -0.8881621331449155 -1.1621373433496438
P 5.053424676066928 8.419044184495942 4.322490259072665 0.06640928066316949 -0.907555964290495 -0.27121795917456515
P 4.3198677821270675 8.875086295477885 0.5533196151826978 -0.733572241579756 -1.0577605823037655 -0.3795480484412367
P 6.655833596536759 4.8301366021420975 4.01735659496789 -0.22363121053453744 0.5664477078826954 -0.3722772258114363
Ni 0.31165394474093155 5.83793018285788 11.759833035159863 0.26276931418657967 -0.7877772668672497 0.7211844094383644
Ni 6.829802897566155 8.37264439050414 12.705691776747196 -2.7408569050756864 -0.9894988218128894 -1.1651118525969353
Ni 5.176684775764143 8.799469088043736 8.118108509293899 -0.32192319883891657 1.461770106221476 0.23584780720538737
Ni 4.27321016034567 0.5251086509333059 2.794693017657563 -0.13920158203454736 1.4788576578313821 -0.4927164396368159
Ni 1.642740553270802 0.9286312411746969 3.61247948801759 -0.11787710952515827 0.4692736352328434 -0.18036340098483777
Ni 3.8158789104157496 2.5166570542392495 0.1906470757620716 -1.224447257132459 0.21285186053084632 1.5402818265751343
Ni 4.4758259704261665 8.27715602700047 11.55139768354279 0.531538040489704 1.6874548568509324 0.04253221693525578
Ni 1.5041673244986968 6.494866182611237 1.754723449613828 0.10568570966528897 -0.019388946049573058 0.4389811548968891
Ni 0.2441923827797997 7.126617932202345 4.334740762332576 2.0310180025571283 1.6597676753483093 2.808599045617666
Ni 4.348983906080645 1.1096447657412487 9.944759466510062 -1.6342049963878564 -0.7327088651381962 -1.8852287400027339
Ni 7.779677306976432 3.1023312945755483 6.661631959362049 0.25765718977099494 0.6949617282964096 1.0907977152643924
Ni 4.641102791692065 4.997595751484214 6.9839894406253205 -1.423426473446271 0.7343926805985223 -0.8642251627133438
Ni 1.090629966258599 4.244508402482512 6.389516826969084 0.7368342001604794 0.12135684054364261 0.23267275191151543
Ni 7.3955323167501925 8.991670497051652 7.864268763115565 3.087211754594406 1.4759296855513098 2.9783898132929805
Ni 2.4034246139302207 8.65462511910326 1.7962871309236512 -0.3951502737548679 -0.14224936772193567 -1.4576774242093413
Ni 3.4971577217993053 4.650274094493382 12.625948403865987 -1.316774800323287 -0.06874589921614613 1.0867811379058314
Ni 1.7610835086950223 9.262187097149129 5.987200502457585 -0.9100959571035294 -0.2903235696557645 0.1212362558053783
Ni 4.284048135644013 7.370762432678363 2.3842762964851016 -0.25580085328854657 -0.9544498006285561 0.06771154441436081
Ni 2.721823517809671 0.34690084520567094 8.32029153701329 1.9530971217099333 2.3792425582947345 -1.9798563920816483
Ni 5.534862824324004 3.5254082810306704 5.490167456184133 -0.029288721661788267 0.08625485463418693 -0.26002877532696506
Ni -0.09618634016264563 6.168787693855986 7.157600545189886 1.08961372225862 -0.011013320391368129 0.39449309978684316
Ni 0.41121690813374073 2.55866456767259 4.964711658548408 1.977707206949129 -0.38747475948748106 1.5590210548558505
Ni 6.373189882192965 6.698181810977778 7.936465148269907 -0.021510363267950052 -1.2122316889028735 0.1310897515606904
Ni 0.6629848238599695 1.5860000232891613 7.79695084806578 -0.47196815134587106 0.12218165043778315 -0.1870366992399553
Ni 7.124454020396813 5.621980992801171 13.16688952270751 1.8196792362366987 -0.7389329916710371 1.0854961005458208
P 6.129165087476402 2.6709025293646085 10.470350623735325 -0.06076005279719213 -0.09403141325581224 -0.5101186942736634
Ni 1.867216476654839 7.943904400813265 10.969809092858041 -0.2770178536857939 1.1076502680453568 -0.5977606590633641
P 8.74288509636292 -0.009433734658583397 9.788102380738453 -0.46402987033540083 0.7770943332321069 0.5987608181931043
Ni 6.928606189793192 2.6237292520040203 12.591352518569975 2.2670360167917925 -0.630781594074075 0.8448321028987127
P 7.506048357133129 4.725117818558746 8.308067737345871 0.22057236910355563 -0.09560801371431277 -0.4797609079174124
P 1.8128976862683253 4.453072667994385 10.924526245683305 1.0741675629068792 0.3851335129488141 -0.8126981984786456
P 5.29028554148688 3.959535029897018 0.6881985400553166 1.0169720875324937 0.5633464432495523 0.054817204950195916
Ni 8.359504381370124 6.666957024030726 9.324613650704878 0.1522998099794022 0.8245617826854508 0.977435205780136
