# total energy = -340862.80421071936 ev
CRYSTAL
PRIMVEC
9.39473910517399 0.00000000000000 0.00000000000000
0.00000000000000 9.39473910517399 0.00000000000000
0.00000000000000 0.00000000000000 13.75015031520016
PRIMCOORD
 96 1
Ni 6.278212904733417 4.878500120714814 11.803954181118634 0.8619355953482187 -0.9729357752478858 -1.6018219520714607
Ni 2.2389824069271236 5.137841893616394 8.250887339715073 1.4661062717029847 1.049565705197799 -0.23030013791428078
Ni 5.138847130700274 1.6374372622472408 7.779367263150112 1.5465272932642138 0.34981941102855235 -1.5679121866978933
Ni 0.45013671089565055 1.815129357616213 13.395121413816243 0.18879610513322323 -0.8279448402250708 -0.16957479500976605
Ni 8.163248516005151 5.981329754381567 4.441133678680063 0.36327142276840013 -2.015280537217213 -1.0971593958163621
Ni 9.318491399120115 5.3275498602964015 8.963461390046303 -0.6946043449569909 -0.027259092826269184 0.2529371585875063
Ni 3.8584287437946676 5.285245350121586 4.949888864200579 0.3558501906036646 -0.5224823580453388 0.2851847057673024
Ni 7.619264937801195 8.561425743351199 11.76036634958253 0.3110060377057805 -0.06283956103404016 0.06432514444063116
Ni 2.3971804186601324 5.455590759513052 -0.012650016200397662 1.2092168133359495 1.1554907845674034 -0.03885322542177179
Ni 5.272365162813197 3.338289013430749 9.574683116000905 0.5934748872038166 -0.7388283477723727 0.7855622614938019
Ni 3.8866693295342856 7.291670385325988 3.891017214790538 0.38285294444475354 0.5169380311883419 -0.42523500895539024
Ni 1.6342336562135715 5.705396872226438 5.5642324619586665 -0.6808728543035112 0.9695576028042722 -0.6990107015548026
Ni 5.502827507716246 8.40919339094775 10.801498879488026 0.015656732700650457 -1.3020436647606997 -1.2853497490447865
Ni 5.885991941977826 4.288961452606865 2.2216942080322317 0.6284431757488855 -0.025100908832685804 1.8094534447436321
Ni 3.1330985167111907 8.386880885581286 10.106099351708558 0.8706662903529974 -1.6869501493003722 -1.5570400198700798
Ni 4.258268839961712 1.8073035399445228 2.140307583194471 -0.3424578284571586 -0.4132055885946819 -0.5975434008462354
Ni 8.172521123498498 3.759342430489362 13.526050255832747 1.2055028548194722 -2.0760066514526763 0.0047020334613596445
Ni 6.373625875049969 2.348985407068569 1.2862196383008861 1.063329848861427 -0.38361013432575225 -0.8543253871011288
Ni 0.8678221139863151 5.674178154191591 2.75651979455988 -0.4173880021071457 0.6467867112530796 0.3722162906665138
Ni 5.881416704035313 1.4000134156698552 11.185940058793525 0.8118440780084664 0.32370754443284894 -1.7942463979858907
Ni 1.8162755157866168 8.633643102825731 3.3107060594282482 0.7816744964036215 -0.2393349944230394 -0.9716340257173265
Ni 2.034599857770309 5.718089164752793 10.517764605982872 -0.7789193022559876 1.1548827186697594 1.5532532991341377
Ni 6.657685206528042 7.874191183324991 1.7073425764288517 0.5683667792822792 -1.4319872185320885 -0.7265546726113423
Ni 8.830425308049294 0.11193737692247911 6.9056001582602615 1.9165177799240023 1.0527998958643803 0.5822278535350877
P -0.0625943282126918 3.069467948775585 2.009791170224531 -1.456121392576131 -0.17542328337074303 -0.020293717252029567
P 3.7431459002780842 7.301854282512198 7.2978784289243706 -1.601369180804758 -0.8874692208429491 -1.806785925213798
P 3.04506981132855 3.959722820788866 9.986156717597545 0.6217554793160647 -1.561195179689034 -0.581009150636638
P 7.360176822855361 2.6355343444085833 9.293121845649967 0.3364455608248077 -0.4306559228606454 0.380728441902583
P 2.4649352770613713 7.158481169081623 1.513506561387571 0.5311621452075239 -0.4818010782758928 1.4815853411751903
P 0.44357448563313456 5.135897182622349 13.386623872298783 -1.5849393173835091 0.19551388347303103 -0.8265127357642346
P 9.297184130837529 0.47569509862174175 11.275439040845576 0.2428208960891108 1.104321203672124 0.19546220429948918
P 1.7694803203212022 4.073737374526724 3.964951932572855 -0.704825765574683 2.568784540455047 0.9062097346752458
Ni 8.756469921840955 7.832187304801428 2.88343426455824 0.5273844233326467 -0.004376788911456978 -0.5958153624115352
Ni 4.786178019562711 1.1085886087360746 13.122497358772724 -1.5417774372840545 2.1683794460591432 -0.5553564830655403
Ni 0.5618448561840489 7.6712742134680365 11.303641108154878 0.3326920073196464 0.6236789215910227 0.719288220856916
Ni 8.044480224281848 8.03003111554348 9.388011528998558 1.6571806313474233 -0.8029843136249913 0.3092584588870545
Ni 6.196873253591163 3.8647232189927863 4.547862612244577 -0.019621373775353303 1.7670608387100342 0.4541714894840823
Ni 3.4309775094078185 1.426948132674341 5.991133164634158 -0.6183503102892576 -0.10976219372750774 -0.9035944085395857
Ni 6.781864867973906 3.342817277677754 7.2231460977923225 0.06859163302646896 0.6243810898643698 -0.10258238814961688
Ni 5.503156323584804 6.218340232438479 6.251451050928401 0.34593293148995263 1.9832687601973071 -1.032722922608847
Ni 0.344179085411384 0.8848031049125824 2.3475357988251817 -1.4314172049612315 0.20458473542604766 -0.8164316973791488
Ni 1.832575388128013 3.3596338606697413 1.082172481330001 0.26563223755667154 -0.29883237845772403 -0.1978556442323302
Ni 2.4853124661728914 3.5076667646947444 6.25425632002416 -0.35062905141404127 0.46637111687406785 -0.5616875674898907
Ni 8.058703859281776 7.052950064752572 -0.02803108305765058 0.8065512050406431 -0.9831744222567582 -0.20548282176028485
Ni 5.367627817304123 7.354164189830293 8.538279924626417 1.479745202642658 0.2493299008522222 0.6059128558568532
Ni 1.6743679816559027 8.552275267466174 5.629119106512165 0.4998903316774359 0.5546401737248061 1.040080648525499
Ni 1.9364248341578651 3.2752784982758536 11.850910966096595 -1.4699253883387586 1.1446165608570609 1.5030653654258372
Ni 9.42292331897427 2.771269534949501 5.2849531737355235 0.814720371114997 0.5182726908393654 0.8335387893730806
Ni 3.146608151539391 1.5551675319339229 10.499395072617379 1.0413525732593871 -1.1497063166751427 0.9335534167955213
Ni 1.2809257028170955 8.358123589191077 0.20911373976841546 -0.008225473233585833 -0.339879269096705 -0.08988679495981938
Ni 4.649061802373848 8.771200872752372 5.653264525477366 0.5026113301530246 -0.36790609332693414 0.3697269485857568
Ni 9.22689269287884 2.4684489094853954 7.787054038683099 -0.8364083976113919 0.7310281350016636 0.8002789988786863
Ni 1.7158833337461792 2.0990007943122517 3.5644927230990113 -0.13055547632377518 -1.8857956682497974 0.10243994903448164
Ni 4.2167910668278425 8.528891761842118 1.7126365119126423 -0.7143851271283439 0.560054659872158 0.3412671505831671
Ni 5.342919653466733 8.294154810647811 12.982507290892661 0.2702337408844249 -1.4183580577844284 1.6007757701951335
Ni 7.447313028023343 7.829622541026671 7.139517888204904 -2.9421478002418104 -0.4277482622955472 -0.3225423204801542
P 6.793984081415059 0.36289340570190914 6.066634924898634 0.10113511418012905 0.026413199886206124 1.1345038979030913
P 0.7148447587721041 4.420168378900779 7.045728328805119 -2.346695991817281 -0.6714839568894435 -0.20360488801128157
P 9.224901008189285 7.667535107305572 5.013607742683741 1.3931633036863555 0.5896799389377587 0.9659048365430333
P 0.9308993317888328 7.298472176435597 9.220548425563482 0.11724384681653358 -0.47653700166347607 -0.21205636121274446
P 7.158697248080961 6.629435226049322 10.72565327177243 -1.3403852406533754 0.2105880041973341 0.32791618319755783
P 3.933473919738802 0.7079330492150059 3.922588235541698 -1.9653844237177185 -1.700824593289619 -0.8383799195154658
P 6.111146259288432 6.161671166177209 4.114485176432394 -2.1951497721744517 -0.3494370879884691 -1.4401319591264101
P 2.7515311880968936 1.6186947577394106 13.048040293496353 -1.1772070931985725 0.49777174267253627 -0.23834871925037018
Ni 3.0351207826198823 2.3253482434887696 8.291326994178208 -1.7401614432160288 1.4316370342815217 0.6148944905301733
Ni 8.762764397039073 0.4769276883918808 4.62009218487994 0.2312319056999308 0.0014143638490233706 -0.9704988836716189
Ni 7.009621528015673 8.214900791586128 4.547064998894846 -0.6964609385497554 -1.6853288116468652 0.7264723973101811
Ni 8.1432659059359 5.016518232857438 1.8376109682865078 0.2946599922475893 0.31109139833073524 0.15692882411098136
Ni 4.221995752290167 3.335489381178452 11.745611911823358 1.3238021394837136 0.4893927745802216 1.2540581380203566
Ni 7.789817031452899 2.43048476877555 3.6167565961955077 0.2530099208069707 -0.05717310677688218 -1.4065001300045779
Ni 8.776584058257628 5.447238836451668 11.386788307100291 0.7728810664817076 -0.6496054116487974 0.8632784825293583
Ni 5.5917956870090535 1.624876496068309 4.79304087647648 1.3491838127816118 0.7436016007913 1.0916636628091134
Ni 8.853677287325926 6.1984421750211425 6.7233835565399245 0.5155691758652733 -0.9505260400941179 0.16140742870762526
Ni 4.94550339998792 6.27654064117332 1.8634070429118712 0.5951538175681363 1.1109171117220866 0.5140977335260695
Ni 3.268589444035465 -0.021803310507154026 7.778377997122707 -1.0124189209441725 -1.1394409301933925 -0.21064585401846303
Ni 2.801886989681841 8.665867057944457 12.247107782440013 0.19359429785281496 1.9799034432694997 1.746312293308773
Ni 3.12954730533076 5.219717044887442 2.5526877771144227 -0.6180921715318645 -0.6455476966396559 0.326782840924063
Ni 8.213435212286267 2.832598391805198 11.39155989509003 -0.0894983012721491 -0.691429546773435 -1.1348684803313618
Ni 7.500449672382385 1.060684834056663 13.15051998656518 0.25784050942639464 -0.016077622288152953 0.5106036043298818
Ni 6.353821765023651 0.2776746667845774 2.9750104234256716 -0.6463233984634159 2.4368586661463065 0.002284682269118646
Ni 3.658696590493179 3.146918177929746 4.084248208633672 2.3873253353028696 -0.3384883022864493 -0.6616682563506024
Ni 7.148344245590922 0.5448807757881647 8.564680080976016 -0.7253817353491636 0.8334817108829 -0.18247504801120187
Ni 4.760859197683713 5.907120710217481 13.371375271262863 -0.4507334103368108 -0.165975764804598 -0.7463853341840242
Ni 0.9524386501272298 2.331652113425989 10.036633711316904 -1.2390899467462984 0.11478510086339587 -0.426814180517052
Ni 1.3211445809113418 0.08458929139751988 9.412830550757347 -1.9959833795504982 0.3434132503918924 -0.6305285975230044
Ni 4.698863314351797 4.761563803116338 7.920788149795361 -0.6207100687706859 0.07623655116623644 -0.4854188775341382
Ni 4.127672571709407 3.958153899358887 0.905844502078591 0.34074110287636805 -1.1293838030677066 -1.530345541298029
Ni 4.645905170035688 5.768745597988994 10.244233019142131 -0.015501438069708785 -0.5078453248584544 0.15065687505934056
P 3.713054550935438 6.856355754311042 11.779877343748876 -0.4141561254334093 0.15762636439863822 0.2031292339264437
P 4.701399893909247 3.410666083470009 6.148791918342732 0.3277526610365001 -0.252314694512159 -0.0209856011127316
P 4.760492802858748 0.22241950875810962 9.253658304579496 0.5419391812183698 0.4933800413627438 1.2868805838670159
P 1.359832116532016 1.2827388874637178 6.884315437351519 1.100064485278299 -0.9687561899488994 -0.349194890070676
P 6.649699678291622 5.042410133821638 0.09618052050115941 -1.0456177762936445 1.5217783684543083 2.4545941357528567
P 6.78413839483651 5.564513364657806 7.776246330820538 1.6128069903280549 0.4100878689013066 0.6754719950029141
P 8.847194917345774 8.951373179244184 1.0223552379957628 -2.004960129127811 -0.08386064337039752 -1.3060563854645184
P 5.868508332509619 0.2726456629434538 0.8227677636764399 1.4700122916256102 0.06702068899492328 1.77497880800553
