# total energy = -381171.9400667226 ev
CRYSTAL
PRIMVEC
9.17111560767481 0.00000000000000 0.00000000000000

0.00000000000000 9.17111560767481 0.00000000000000

0.00000000000000 0.00000000000000 13.42285472240227

PRIMCOORD
 96 1
Ni 5.9513937642471975 6.9984050161912 12.819645057861985 1.9470514297364854 -0.23564263317311673 -0.11578397444155544
Ni 3.938746569900724 7.484850163648908 10.849371169350599 -1.7614424640819923 -0.07509909512768358 -0.7465439712490756
Ni 2.7765094203933534 4.645445231834862 8.871084477058478 -1.0514752635156859 -0.813758778532676 -0.1479281632742678
Ni 8.323521180401327 3.079413029492601 10.477008281329375 -0.08634304347261904 0.844506601238494 0.9138711078752455
Ni 3.8372590036450536 8.048085062801784 2.8156453223889093 0.7681324960531286 2.2354960372019823 0.8271837936893303
Ni 7.182487650375531 1.391936913147305 2.1673749214215388 -1.652582984674412 1.0785312391922137 0.31416669482194926
Ni 0.5436123800167262 5.756168224496209 8.309633359907837 -0.0022168051456606984 0.7671781025596595 0.044774733112529344
Ni 5.96194054729383 8.492480644808358 4.367139472135066 -0.9227159598603851 -0.6426269234484352 1.1155422691989239
Ni 0.5493351562089852 6.092959106080066 5.929263862080658 -1.6792908329829015 -0.21186764224070612 -0.17067188472868672
Ni 4.860856397225534 6.016086814343664 3.371069182306293 -0.44732515598621025 -1.888162111599445 2.2651321149008603
Ni 2.590280745136925 3.9644256938403477 13.277552444618648 1.0414153081765227 0.648245040966161 0.4138069696241067
Ni 2.2860473242622326 0.30771477639164985 1.4463665676720454 -1.2285008583765422 -1.5501636044652205 -1.2590026265098253
Ni 8.286148883953482 3.5415088647861297 2.611564153325027 0.07844487167146491 -0.033550839372251895 0.5224851862588162
Ni 7.076442039620578 0.38733931994743814 6.745494992956123 3.857142737308854 0.3433587430048732 -2.0619473451461325
Ni 7.345394178425366 8.745291619993955 0.42051124540801643 -0.3602390636999796 -0.11921793982376885 -0.40967597817486867
Ni 5.860342927649847 7.3219803200618445 1.8856960253699595 1.3875241031227072 1.587506821000369 -1.080013994385327
Ni 8.700013821818983 6.7400730293585855 13.156908251904017 0.3589028613870593 1.0008042195233795 -3.8017598896631757
Ni 4.877841303488457 5.482392078837049 7.978705572586336 -0.9250014134604522 0.5723177935102273 0.9373897598224759
Ni 0.06976009151669571 6.164053594930055 3.4114055833460264 -0.6463331686554288 0.2653278189423753 0.36323619865509055
Ni 5.509777030295519 8.861984896068158 7.843631546440776 -2.784235529171637 -2.3705190623788077 1.4728358771173344
Ni 8.221070646997921 5.748510342892785 10.204805899123087 -0.29603938909361915 -0.0553414528847821 0.5344544428055505
Ni 1.5158111728089114 2.5410410249826962 1.4254133196488816 -0.32888214665525295 0.09563398185624175 -0.45616820819913695
Ni 1.6528459834895748 3.904043068119461 6.6309844424167865 0.31100346660261924 0.22417114219840747 0.7303951294033549
Ni 7.446634124557332 7.270438649868742 5.7137334721859805 0.6351031042675643 0.49056082674639384 0.8506427960432189
P 3.7425305496549206 4.915571273448318 6.035157232315113 -0.10312386247538369 -0.2682318799630477 -0.648884988543005
Ni 0.903795109286443 8.789716504409503 12.812907039162543 0.3454806744438824 0.24733215369590308 0.11699136448609529
P 2.4995325553574332 9.048259426903051 11.429614819667197 0.5044825790338086 1.1705343091640872 -0.4862717124527367
Ni 0.28361308435117444 0.9932593428689536 9.616535688352217 -1.2914658892448532 1.7187102153207885 1.8565676246226155
P 2.989581951282381 4.457290622282962 10.98479461500405 0.34101929623841915 -0.2907506298908541 1.111183478009596
P 6.111310508581205 3.901190851139024 1.5070105701901746 1.5917046611318006 0.3443537599282908 -0.3003411017927666
P 2.536620547218804 4.178360309604492 2.530812479650603 -0.10717232151314447 -0.3532999133779851 -1.3997772094584473
Ni 4.214063462996261 7.706552714404789 6.272459850864314 0.8105166174462944 -0.2675975888131585 -1.5523629261093845
Ni 4.55890658415833 5.523377794867827 1.0936206961175574 0.41183004840339393 -1.6043547457956433 1.1619437392815988
Ni 2.3356814023912484 1.7224180671345697 5.82014959601492 -0.6674336980794698 0.6291060061438649 -1.3798267344784494
Ni 0.5866129901651954 1.155808197406772 7.323549497956869 0.8403612116115527 -1.2413157507530235 -0.7566478924522969
Ni 3.5854018244915014 1.5951596657823488 -0.01951063152469841 -0.13181917352754718 -0.7603191706562971 -0.09463896493282412
Ni 5.124305866614689 9.140878524283858 11.879629544258702 0.4849092848875713 1.0310506771127468 1.5067566982344953
Ni 0.49746791140879165 7.630780956551513 1.5626755739987246 0.7033666645306532 0.39859246666719744 0.23925374756314277
Ni 7.995176896370467 3.5557424363412355 0.16146116021666138 -0.4785159797667177 0.8549157123869598 -1.1232645775438461
Ni 8.993058481548553 2.471982523816494 5.374269210377694 1.3449762024581675 0.9978420515712622 0.4251601898533969
Ni 5.270869466500091 5.556008624502534 10.505652426972457 -0.07083054965931673 -1.1998364005623143 -0.640494964707097
Ni 3.699912375030838 7.763395289468283 0.36681619725026315 0.005515016280958244 1.1240395080366576 0.12205849459635752
Ni 2.316146925965749 1.8866635780755419 8.888506845539943 0.3354934813241835 1.7519029000226733 -0.1655862426756632
Ni 3.945789986752735 3.0075114824616542 7.23711998655708 -0.6475462151269235 0.7189861162354649 -1.8437699586373149
Ni 0.7179231904304615 4.791311826927617 1.3391470541084234 0.7552672100546863 1.2074921173353592 -0.009135386642364912
Ni 4.059291714565872 0.3403336835759569 9.68660301224462 1.1512057840388046 0.9488139424990174 0.11008743827741041
Ni 2.560969859382983 6.2945585712374985 2.4073087330629823 -1.5060432171072384 -0.523166271486241 -1.4758137287987356
Ni 3.279609313949046 2.105027842719271 11.10643295665977 -0.8969864163047648 -0.28652579317622917 0.41758289172677115
Ni 6.02937576098242 3.4749357359726556 3.6780236732070164 0.27898063383911953 -0.25777417496483346 0.03586174689361566
Ni 5.112731918610472 1.4980375505964145 5.776472157528327 -0.8776702324746561 -0.6144990548639676 -0.11997872924919337
Ni 0.9958180841472233 2.4170842252798557 12.46134882709026 0.007736192301993129 -0.9539713183302408 -0.6092861432044604
Ni 0.2294741541938934 7.91192150811193 10.489960648022207 -2.0121738732674315 0.3757060489873271 1.2187358085699784
Ni 6.878951234293487 3.1454450624802046 6.12820462079877 -2.6111241817635222 -1.1534321022661618 0.8078676098592215
Ni 8.267164674469546 0.9153176990427799 11.71411199957115 -0.7446734936992401 0.2798334687577181 -0.017162370711899473
Ni 4.53202604406296 3.0328237617735696 9.32960907990126 0.11443774482630613 -0.2985765536931761 1.9970753270630963
Ni 7.2115600871214625 1.3655240999522633 4.624938617145935 0.14487060739486662 -0.32230552187899975 -1.7923345256751584
P 4.00354050226981 7.37012867744864 8.688090454306874 -0.2396576678697808 0.3231082202859532 -0.8655855333959803
Ni 4.713916781596731 3.5153711850618703 12.344328142185827 0.6536996363228289 1.6687804203698806 -0.8129720209653225
P 6.929566621801623 4.787010573667731 11.642823083068476 0.27552944206572544 -1.2644351103793061 0.6355908425372603
Ni 0.1469111851701567 0.1369962919947541 5.178940037019377 -2.451831999626687 0.44278895867875356 -0.8415084378421184
P 5.076423471582983 0.274806979063022 1.2038666778597777 0.33114291766497167 0.06041912451800562 -0.19160606377819261
P 8.697491765003484 7.919304256244571 7.3076843849200275 1.4883753675138303 0.44684693079821103 0.22326251434120906
P 5.750014405866392 1.8371670666819169 7.98149817731477 0.15248955739270512 0.7537294332539213 0.19881466571148984
Ni 1.6219760080678698 8.345742793724794 3.5323047330769133 -0.8739336482503594 0.8136837023203665 0.304666725751314
Ni 3.7104041313833127 3.6534148184687334 4.153420377589701 0.7415704292938841 -0.28441260348796826 2.038217605629361
Ni 4.077395496943307 5.968809712947679 12.449859253350418 -3.310082947034467 -2.5426323075397113 -1.159828235600493
Ni 2.6234068150190395 1.5353456492344109 3.1924653726367946 0.97838728528076 0.8378911528045053 2.2113667482539463
Ni 1.557805711565889 6.1723626257476605 10.396726168778418 1.3114348761676125 -0.9735309856297234 0.7658670970577197
Ni 7.846045384091101 8.544921084339347 2.8457926138940275 0.8933225942999324 -1.2200552987123503 0.906368114629981
Ni 3.2562046267012175 0.3529283767567731 7.3970000464283165 0.05785393489399069 0.021323958288756825 0.03376861181001281
Ni 7.948459233031737 2.0507623511654303 8.25720300860411 -1.4110828642792537 1.9304207631583399 -0.7300444309321557
Ni 2.5363362426323297 6.3203202352183565 7.093093117272286 0.6736459975377689 -0.34688886764531873 2.292985903888335
Ni 5.838974228085802 5.572562488327899 5.980593679501258 0.4271011156298515 -0.5023243950402252 -1.9253724021011551
Ni 0.33225759909694524 1.4318496086420343 3.201068796268138 -1.0191644671981221 -0.39245215809741446 -0.345475789347876
Ni 7.909647071420134 4.655836105914717 4.901314774103981 0.7078318993908584 1.329571180757007 -0.9081452611350618
Ni 8.709661835527726 1.4333078160371773 0.5791742982268281 1.4571338930010453 -0.37081246834045173 0.3552544660011946
Ni 1.6853392463888917 8.20335205147958 6.119935942890211 0.6049502348332678 0.8436105717867858 1.3793240838104182
Ni 5.088492659834606 1.0913077407398526 3.3732308142750678 -1.0980487403998507 1.1577243018836125 -1.2096803832359295
Ni 1.3100480211269834 4.158954228798691 4.261421270210343 -1.2446383873683533 -0.011542710532276896 -0.0006026665810054137
Ni 8.447358755600161 4.0495519897002 7.383254378228064 0.38058960233187356 2.2830380486470037 -1.193959372956247
Ni 6.488059941238256 4.161742247969278 8.957487392222758 1.7011824908496702 -0.5639503953821384 0.05107316452673139
Ni 7.118152273791081 0.38151107592471284 9.27233362817707 0.27661367626883976 -0.40043929006794904 2.211385517307024
Ni 0.6484382323845475 4.750188544161449 12.336341934640604 -0.26839205968999585 0.879955171854091 -1.345691226247321
Ni 4.2528297690294 2.9191752961093487 1.8496287786851886 -0.4590231611494288 0.20418929975984187 -0.2755260996316158
Ni 6.196198355433047 7.716714310592326 10.141771903855435 -0.9440108646834194 -1.3587287761575697 -1.3870404786180692
Ni 6.004494524108063 1.98827953995091 10.959747380935655 0.4715886565192653 0.27667589696534284 -0.8941620594820924
Ni 2.498908919490328 6.602588834008979 4.770496145639846 1.400080342521163 -1.8890386006671274 -1.071522154864232
Ni 7.69955515313124 5.731039367498149 1.2403402049697363 -2.1950291874361874 -0.9526407724442756 2.628888190615163
P 6.872696533391049 6.5904737901788915 3.8865335740389146 0.7725897604935339 -1.3865923353370573 -2.2088956610056343
Ni 7.224454675785431 6.379428075857955 7.931068046343627 0.36537689914717725 -0.17393101509593273 0.6374757182647989
P 0.5934922440463068 3.2373854972997504 8.791419580593642 0.9234541235779903 0.15427133188347625 0.33042198033854714
Ni 6.042307034109159 2.031869852838421 13.358384824111168 0.8277507219363938 -1.2720697441064286 1.2459157114188801
P 1.8373780023428496 6.584861067374945 13.39149897154288 -0.4909338938150964 -0.5608858975242017 0.3010975203428169
P 7.532439082978446 8.088584709700848 11.583253018197965 0.73136906328085 0.058824526337376115 1.9104309502999743
P 3.4332255018021525 0.21507917100259571 4.773032876240452 0.771698359027516 -1.1524931353916603 0.0052558490823006255
Ni 1.8362499551126448 8.79078035382986 9.267501367318573 2.39139770560003 -2.427938995059173 -1.0677829995367738
