# total energy = -340870.0033196061 ev
CRYSTAL
PRIMVEC
9.22216267746949 0.00000000000000 0.00000000000000

0.00000000000000 9.22216267746949 0.00000000000000

0.00000000000000 0.00000000000000 13.49756726896572

PRIMCOORD
 96 1
Ni 1.745746190600791 2.8911664733872295 6.61356521050987 -1.872522605289975 0.6124056626700486 -0.12780722415467669
Ni 1.233823935120044 8.84367598979574 9.193166447938466 0.8606904100872081 -0.46908645892270184 1.0947644132216243
Ni 8.865329627984694 5.346576533628705 12.385516768651748 -0.6989235411576351 1.536548327674631 -1.3946655992634949
Ni 5.948488653439863 6.763764731146942 6.995560103559235 -1.9654150198453377 -1.6348981658001394 1.5155421577366093
Ni 4.386291168492709 2.575067622209818 4.797993414479924 -0.7851732535854994 0.1090253155614832 1.1621933933985598
Ni 2.1244081940243085 0.11612178476150914 2.3254015427776986 2.142476353040136 -1.6408037326512965 -2.596883869794424
Ni 0.6286693028782062 2.586853546232596 1.416772277977214 -0.09467290349455308 -0.3164763167917324 0.4805998588789401
Ni 7.647810476645769 1.869230950119566 9.656159596615419 -0.2533709036908153 -0.2386474814377116 -1.8346170884934532
Ni 7.279292852271591 8.146637260990097 2.39155303855844 -0.638053702255456 -1.1072154945007835 -1.152202600734435
Ni 3.4122740029890144 7.0727348505015 7.951956482654227 2.2766475717396273 0.8081365472498921 -1.7687587952377475
Ni 1.4753247116337231 6.149651689988262 4.099319596214782 2.623558293761817 -0.06402432537076069 0.003127489885388162
Ni 8.948153871841162 1.2835037259734898 6.014880847668958 -0.24616153042656957 -1.0971779077591233 -1.5030121435903987
Ni 4.183099256134443 1.6846954730493129 12.161146159487293 1.3005945910189987 1.0272153625270566 1.0853279503990727
Ni 8.456797039342257 6.292585990793451 1.2208059301509102 -1.617650177352969 -0.7234104705554057 1.3088653156682233
Ni 8.49275425199078 5.767097933874906 4.014500598550701 -0.7786264536059172 -1.2986508370290668 -0.17618124458269013
Ni 5.059038720556571 1.268204157934532 9.987457494257571 -0.5156002862135249 -0.43946863605626896 -0.7019412449380362
Ni 4.844153105803249 3.660377848047536 9.044922025809086 0.42452487026224306 -0.328386437965757 1.3124517474679012
Ni 0.47225220010016716 3.2617037514085037 10.00108969526733 0.8677439744998798 0.727959780488985 -0.4456081732951035
Ni 7.929492216357604 3.0022750904658104 11.65049287360399 0.8526132895060283 1.0111634512705168 1.7746036840542985
Ni 6.633990456617577 6.963175556768636 4.705332811810704 -0.8229113915662215 1.0423406482042696 -0.7345693153857026
Ni 1.247288292767349 6.690651424689523 0.20285069233569644 -0.09850718963897874 0.9057312523769305 -1.6584430429996146
Ni 0.8013782784094841 4.841119014251219 2.061416211209298 1.376262414165959 -0.3019498410407832 0.2668784512589468
Ni 8.41938272497574 0.07082528787365498 8.01787926879822 -0.5100315338764958 -0.08073058238184806 -0.505595095371697
Ni 9.013317673989008 0.44366718437168357 2.2015608077759197 -0.7728548412294625 -1.0330257985612468 -1.4119341565359553
P 2.81354352933424 5.275270771074623 0.5444017905478995 0.17225311317287753 -0.46591963115894597 0.4947157294550318
P 6.952127405767628 1.7017195855266585 2.359267168909502 1.039810682693564 0.07999139022297835 -0.4649562388044121
P 5.873346471172576 7.469924178934219 13.369907022841529 0.36367765706788335 -1.2936672677715464 -0.1514081514030683
P 5.888424707305003 3.0040180792297426 11.125923344097549 -1.7250091609556228 -0.5196227771093567 0.39638671726513025
P 5.647883035719626 3.0276913710657913 6.925979807659818 1.4146759809471505 -1.628323340796099 -0.875996187206343
P 4.033202222436298 0.6769971246692583 1.087871220439537 1.032572513073912 1.0312265405689789 0.8290655840930754
P 2.873533698166923 1.0498233434905744 5.285175373891887 -0.31635650338441645 -0.1424270309503805 1.3050400283848622
P 7.13119414031401 8.282747161343913 6.3807046782973975 1.0408396381787106 2.5043452390340546 -0.3720442838650238
Ni 1.8800669913768144 6.201231246372765 9.112112859334246 -2.6365837594872072 0.21135470716002952 0.6856093405472321
Ni 8.073413288579411 6.973513601236189 8.63949638380458 0.7018851948891202 -1.0918477537954616 0.5900596908746806
Ni 1.2100399773307295 3.8645934204735073 13.047774110562315 1.0663388108910796 -0.4937240549657239 0.9271919933538677
Ni 3.528316477150683 1.822539140004289 7.264755034877611 3.017055091073662 -1.2488069169237461 0.45344489573070296
Ni 3.113190042126177 4.462438566502157 3.2240966938400484 0.27188721732744786 0.12411434868412172 0.3385710918082427
Ni 9.195713609296128 7.755875780009548 5.18761411392556 -1.079190470042767 -0.651118248748898 0.34663098599824177
Ni 5.324037567813628 3.2231643331837865 2.7720493301573335 0.03818550993078585 -1.0161632184779532 0.42688360030240674
Ni 6.811627755934279 0.9007129602768912 11.607665149690236 0.044147898161807836 -1.1284273526917081 0.14965080239232936
Ni 2.215145053539262 1.1297241617482792 0.12622189742954218 -1.2101303262891545 0.5286625187141217 -0.7782855253267306
Ni 3.653507336782302 8.077793815896172 0.009508972034339725 -0.7508330855427328 -0.3201450238925712 0.6658010475720534
Ni 6.124512074271444 4.7106346331884 5.1764386970782965 -0.21214197894801526 -0.9725436820157894 0.2700789604741155
Ni 2.2196270246465155 5.087332315941454 11.158101314442053 -0.23403312259415177 0.11797712543813231 0.14237046668083223
Ni 5.9829518757193005 2.791189006774605 0.3281891065716689 0.2547145622029033 0.7021551607210552 -0.19063675788638784
Ni 4.714720051296452 6.312764082938864 11.327590832949582 -0.4861637261199628 -1.850176376384291 -0.5907166077323891
Ni 0.24499044290665165 4.66696769246238 8.037828651306883 0.4428133841587858 -0.6192396548727463 0.5187329183052356
Ni 8.11329914256886 5.899389858841062 6.477941318134146 0.5767156654676068 0.06689624760191705 -0.49831861631494184
Ni 7.573876397701631 4.14756626297344 2.5888602888518113 0.4674016150211111 -1.947126505948795 -1.0615917831243977
Ni 0.2648097929202289 1.2317397263335432 11.054953268268372 0.4897696983036663 -1.2184139064541857 0.5051574936136461
Ni 1.0071708406694888 0.20890873106070637 4.17505384133204 -0.02740487437551409 -1.2336502637879656 2.293066379417283
Ni 4.166517807470159 4.432189872609582 6.9732885804645495 -1.8836657663909881 2.4780515954448483 -1.621291116539666
Ni 6.07944336480406 0.9250843698347901 7.7986112822955835 -0.03432397009285056 0.3330316500472522 -0.8128789470308839
Ni 4.043724710159294 4.121218543933474 12.595335727178062 0.13924889033271504 -0.26152232915335605 -0.42845197323079115
Ni 7.158325743189606 6.938220384307261 11.17698461493426 -0.038530294864714286 0.2799563674888275 0.20216558446159377
Ni 5.181684263263081 9.152332555616045 5.558999830921869 -0.37861370955242535 -0.08887660852775017 0.009571702848835129
P 8.84940295287723 2.3290479859377977 7.739721317481614 0.10595824660038525 1.6764201963033256 1.6496056472136431
P 2.331943745048245 2.8587505712432044 11.550016487985395 0.29267330083486365 -0.9714044262050239 -0.7494218070175028
P 5.5709148652234575 5.856949465763734 9.131577156081097 -0.1616892216141022 -0.0342334672615733 -0.5863783853683514
P 3.00322497323134 7.501012089639058 10.557472919688777 -0.21554791930577075 -0.9298962796589082 -0.3784378460961934
P 0.332643411190606 7.453766949757454 2.925503352036688 -0.4446540369119504 1.472110826025852 -2.1199334347426135
P 3.7243704355233223 8.339694016461793 3.6497013502062448 -0.3258395031741872 -0.6870090491082361 -0.21605828328328597
P 4.350333955844186 8.941145028134345 8.381719412214375 -1.0697756044867706 2.0023278337112873 -0.764474073364935
P 7.965596983610479 8.76947446813121 10.065095193770997 -0.41820021359579584 1.226124901945198 0.63325910908029
Ni 3.1309703719508373 2.8457288774089617 1.2736194119143247 1.0525947218321097 0.9846792889370589 0.3446442945855161
Ni 2.562691479769625 7.947659877018693 5.559782792541223 0.8951943574013486 -0.6124162041930098 -0.41752349924374543
Ni 2.6608982911300005 1.9094026911549493 9.508604070045116 -0.32828436517025394 0.7582784860771844 0.20147935702784656
Ni 2.59424049861307 6.999114325091613 2.039225843147007 0.05698001692946961 -0.7217050578285248 0.9475047367692908
Ni 7.32092169502497 3.90940390938327 8.323882618388984 -0.6835200621183712 -0.684767304261911 -2.4791353154273303
Ni 8.103957091680694 7.829745303814283 13.0982820516327 0.3124152593484813 1.4871294109218711 0.33700194754890994
Ni 8.512120793812246 3.515765113617819 5.581729695506329 0.24225911004836986 1.7334308093604147 0.4311251491875801
Ni 5.933447305958525 8.014926332278584 9.44679897957888 0.1147377925652282 0.4698073962491264 -0.5320044386031613
Ni 5.31077609774731 0.5552110875331091 3.231978876361385 -0.13304584684579668 -0.2353137890787883 -0.8604261006822279
Ni 2.1456837235396047 1.9605395837263913 3.4547291515267764 1.538153467378222 3.943637732978305 0.16938530470677923
Ni 4.831288188736132 4.765008504892859 1.3038487392650786 -0.031356917044726644 1.904776066007042 -0.1898183757501505
Ni 6.940369148233167 4.7581564379531684 10.340405341223569 0.3143847243700263 0.4351301565819151 0.7214752012059058
Ni 4.969620630318031 8.488060171139768 11.656552756761554 0.3943264923019919 1.9677074154239402 -0.6863816999368824
Ni 4.957899261434658 7.193628182281307 2.099681731199683 0.4911382965164187 0.5035639238742811 -0.3432762105933959
Ni 7.613135144622573 0.06626861724794723 4.304077431811754 -0.752397601816375 0.5213580146329085 1.2636483528119526
Ni 1.4874703000046137 5.259500872734287 6.205858005435541 0.7357689921207586 0.6708157271778252 0.31715688779852474
Ni 8.146508150711286 1.4902830596501122 0.10516585538822275 1.4979154457937816 0.11343578592435304 -0.11208004322740696
Ni 9.012063459852 2.0546056440020823 3.727096506838763 -1.169415879288928 2.6529971678482243 -0.05413329150929387
Ni 1.5242575073026268 0.27765811009435565 7.160905182116971 1.4810721489841978 1.33238088229166 -2.251276697075007
Ni 6.699246480393144 2.265036954136467 4.574676898520324 0.25454795471805197 0.1576353632597027 0.45833513394346864
Ni 2.668709462997992 0.2188548336104449 11.37855711550974 -0.6743101134843291 -0.7996537065898616 -1.086788079884367
Ni 6.439937707566489 5.11480513883962 12.775204789885619 -0.24466411994543671 0.38335353823025586 0.5378899508496607
Ni 6.195624171407313 0.43152989594728774 0.3284187384246948 -1.6773218821819886 -1.670164702311917 1.1748761310725506
Ni 0.3910768789473545 7.7705021301661406 11.002649772106256 0.32896365062546573 -1.9128321035422993 1.2008710124744155
P 8.153821325789583 3.806226352288718 0.2255999234619783 0.042163520741927384 -0.26013264789468105 1.3583621368467704
P 0.7156204645752017 7.5404645019782155 7.096399842391053 0.49618922867676485 -1.3662903905549113 2.4111039257797056
P 0.05450851528093141 5.4343254124054905 10.139750445843916 -0.9086525397887835 0.37396026994081405 0.686136930915928
P 2.686056351172362 4.261699749441278 8.558550694504794 -0.7126264925660244 -1.3027226931055953 -0.10094742364935518
P 1.1641504953766277 3.9367568441653975 4.228234365173785 -0.8850827228886434 -0.47749885135611314 0.2879650967259169
P 3.5220638507911812 5.82583388857058 5.279128401762203 0.1920269533656951 -0.18139338491124887 -0.1996065654851659
P 0.9165547914868503 9.101250996021236 12.617053920506422 -1.8315407635609746 -1.5299135959669328 1.4088334061234447
P 6.615500020259463 5.970474289488614 2.7343509731774343 -0.7871866844711024 0.333692937780335 -0.1083102917723296
