# total energy = -340873.5940904189 ev
CRYSTAL
PRIMVEC
9.16619395867026 0.00000000000000 0.00000000000000

0.00000000000000 9.16619395867026 0.00000000000000

0.00000000000000 0.00000000000000 13.41565139159875

PRIMCOORD
 96 1
Ni 3.2578669382954373 7.105440955711573 12.23310143804483 0.10239392628789462 -0.6311338352071711 -0.36433200282243067
Ni 4.2321600113333995 7.199751923879334 1.0970714893385454 0.6969656461003159 -1.2436906787431032 0.07297999190215174
Ni 7.0636247795252265 2.685511464067495 7.062884151064933 0.3072236878452128 -1.4442578083693254 -2.7607271616370523
Ni 6.254011544576678 6.476227581246035 12.860015014482055 -1.6764428220111451 0.3404338560485944 0.18464274508648199
Ni 1.4246740061629413 8.195842205810573 11.124459462252968 0.4092041807447727 2.4597175730223513 0.7553633693129185
Ni 9.034952252457424 0.08987361374167309 12.903294115201358 1.1164413839744256 -0.205325213136498 2.1822014395439
Ni 1.7205862411089816 7.101930303480234 0.888847647528561 -0.39398762090533435 -0.2655800441624975 0.7867650235526514
Ni 5.733637555476481 4.824103641745082 10.831380497815301 0.8259527494957065 1.1114346747884536 0.6554785826001227
Ni 2.695319291450088 8.099487176421954 9.046911385528519 1.0957347475546935 -0.01715954249842206 -0.6823543239450442
Ni 3.575044742893456 3.3807306001985045 3.9793637188567446 -1.1412039356310861 0.03266946520856309 1.2779614270005153
Ni 8.425647850959171 8.223780764560242 5.439308322202379 0.876455900451581 -1.5206689374402134 -0.7410191847761044
Ni 6.848576706419596 5.770833969979812 2.5618659258319645 0.7606441580958836 1.0715607214116514 -0.04038226047178852
Ni 0.16604193449039883 1.5026141521762046 11.03847873102474 -0.7721472736394767 -0.5783683705796814 -0.7396323317309068
Ni 2.8530694870149786 7.121848442641332 5.909983208434893 -1.0021082830467838 1.1336487489916476 0.5184470116337007
Ni 1.99064980949529 0.7403241426583608 5.3471697419688935 0.630207723848476 0.42484522971613925 -0.524098039271891
Ni 7.360215312813614 8.192221559253447 3.066415397929069 1.155154227163591 -0.3169859094382992 0.7104945338246861
Ni 3.768772249184215 1.1720995355766222 12.072503306061462 -1.6672966367355029 1.501455597736556 -0.8532223838449369
Ni 5.389969450751645 0.22716394809096838 3.224223340514997 -0.3870520701277657 1.0952562652563782 -1.0971025744364977
Ni 1.2698111616499357 8.53183820631183 7.101990800359416 -1.1433420650200115 -0.07163170540437341 0.396384146161969
Ni 7.8993983316232335 2.4336702889864164 13.201255911084546 0.7180746601647892 0.3291919645861879 -0.6327757416859683
Ni 1.7677096435145077 3.7596702187254154 2.4418502003473757 0.605314560151222 1.0272894102981018 -1.9182928695465546
Ni 8.393685333124495 1.8062901532839803 8.602691967886324 1.2676209643064553 -0.31809945421745217 1.2145407966520245
Ni 0.43419801794369994 7.440052860946687 9.170751247072939 -2.4392402790046055 -0.015470584831773356 -0.5524387951981131
Ni 7.794903722126444 8.803625019135454 7.682928581856818 -0.37568265194855943 1.0331810931921883 -0.7182674929018856
P 3.7734286756424926 6.260189559208331 7.626716898283217 0.6275124364044999 -0.7645488924669285 0.782995272097574
P 1.0869822598058159 0.4086234205790514 9.242270474318438 -0.6376713792153728 0.33831552415401095 -0.42959585702724723
P 1.9749206209078787 2.457795711108833 11.064330147442618 1.0209287581873967 -0.9888591313463615 0.3132490681036863
P 4.174467987458593 8.505732886325264 10.64938388636963 0.4265532135461815 -0.3288788042211433 0.040912421943645666
P 8.080082344114524 4.129975282678118 8.269595234488913 0.721453346829035 -0.5797205137322017 0.8354421770433805
P 4.443614936463351 5.207021388387924 12.801375206166725 1.182362412147267 0.06689804737412995 0.8252981466308432
P 1.7381761670409412 6.0525477707056305 10.421988950194509 0.45984951370546606 -0.3433841969261699 -0.17488206615529236
P 9.122599397721313 3.1218956192361933 1.5683430947884485 -1.7265461664254393 -2.4882434483761857 1.4358292179859982
Ni 5.464563936022247 2.0854649183229035 4.925113264353216 0.21375714595393508 -0.18889714948746175 0.5146893443634813
Ni 7.888655552471458 8.029530785221999 11.350231065503362 -0.3867803045236177 -1.8580876608115677 -1.3247195090916606
Ni 3.0047058313049253 4.261922642652354 11.420314866797353 -0.5886103600226636 1.9650077571045903 -0.36934359710440906
Ni 3.5069032580689705 2.8974888622449297 0.3202741448688973 0.9661781448090782 1.8904395947797121 0.31232115697277824
Ni 5.514730514774523 6.633565298089228 6.470194392476668 -1.0565179681459158 -1.0889336654724602 -0.2794747998667187
Ni 1.313579737118986 2.138784667747713 0.2549915958954687 -0.1398883236889268 -0.31092196263240646 -0.8431529154240769
Ni 3.2290850897147423 8.271848284928764 2.9295219597719853 -1.9175539344980008 0.11449739441964797 -2.033657497062504
Ni 2.20469876747503 1.5318818090291213 2.8545819089945375 -0.538454307993563 -0.8886501285249276 0.6787918034047664
Ni 8.361979468716655 5.28871050767173 10.128280268241717 0.4455040436170714 1.2972647553148173 0.2746848346772431
Ni 1.4920180321254777 5.15695563776762 4.2625413607349 0.8274046514508847 0.7945796345010638 0.7320131246227523
Ni 0.9462995171254012 3.757846146156129 9.217451171324187 -0.255097913684251 -0.5990061014346909 -0.024774635841518622
Ni 0.6708288110073248 4.210500295347354 6.442692144552619 -1.0304366976778316 0.8562318600952221 0.9673166292888953
Ni 0.616308290192684 2.8588900200878262 4.357953188779903 -0.00929813747247431 -0.9786413102730952 -0.09777339679674775
Ni 8.007944398786478 1.1751518781171864 1.8045394102652181 -0.09545708995874527 0.16230217260775273 0.6136176807002788
Ni 6.36017440134789 0.7097567195224052 9.935268641687951 -0.21439992174425657 -0.6532234680173589 -0.2042036979375451
Ni 4.936591172248995 6.932254889761367 3.854035267436687 0.5298912489149004 -0.4676558971237624 -0.0715507156547929
Ni 8.170479347523063 7.172363336758596 0.5761502784675625 0.7171632040941133 -0.02427069962190659 1.0451117831915033
Ni 5.013495538361105 8.683685373059532 12.733639783728268 2.2223325032368306 -0.6031563761576386 0.4742638893585832
Ni 2.466164446062392 5.009499077857544 0.18405625519601643 0.28746990225705327 -0.015984034133082147 0.7738843109352415
Ni 5.301918992959876 4.061842964047448 6.549064907162205 -1.7845132298585267 0.6150760104133601 -0.1693634503299083
Ni 1.773273523160521 5.786920640126029 8.219930046538346 -0.007406576876716277 0.041678867796025 -0.8563665859008736
Ni 0.6147344547145613 6.402806368783818 12.209423326180609 -0.712383780427599 -0.5065374046803083 0.5368265425821528
Ni 3.4222442919889398 1.187947884683635 9.65575381085847 -0.1266689967851754 0.8914485172056712 -0.33175458310704153
Ni 1.435279292407484 1.9106014389044597 7.596719612402585 0.039672635999273606 -0.31766210956971747 0.4981286117913228
P 0.3737020553807296 0.6627570607333886 3.9012714140261444 -1.271555009253539 -0.43668927353891895 0.25190614621983065
P 9.231823763226904 6.224716389142315 2.7096258867573333 -0.24635153495018863 0.9823046180572953 -1.2657162910845752
P 4.552738473836972 3.1370381714194124 10.554213129221974 0.9472327140548267 -2.731350765357464 -1.5826415224882677
P 7.38179253305532 7.510458395643604 9.220617174668064 -0.25393371817282073 -0.609245262664196 1.870747001446791
P 4.321484570065524 2.2308315860430428 2.4040845652081013 1.3572267376907465 0.32091661195127313 0.1637417332677567
P 6.970514582747297 6.654858366322652 4.917252336537036 0.2338014661993199 0.4206715579544239 -2.325519871960298
P 3.8841562969338277 8.752569319583076 4.761858769402113 1.032702610893873 0.8803575494988322 1.3937286892715224
P 3.041682257156684 5.9197204561251064 2.8201445188296743 0.507092762963146 0.12719530160229062 -0.34631654008161644
Ni 5.284145743151607 7.957786986228019 8.313209817901862 0.7020844553841199 0.19337112609841536 2.002057610769036
Ni 1.3523252383771376 7.557920947220303 4.17888150978076 -1.324682228095822 0.2884620909669935 0.09774074378659942
Ni 3.856923535107954 2.203782148093479 7.382566159813349 0.10118627913303863 0.3801388879477002 -0.8128180118859614
Ni 6.062456426220195 8.677003217768029 5.607634472191602 -0.3939799075958505 1.7716852248559232 -0.06237187736900225
Ni 5.749348411676261 1.593946107353925 0.6430304950230341 0.832803968089585 -1.7446619021895438 1.7441615655143576
Ni 0.5734105031361072 8.695518929275353 2.175374280220457 -0.030073936567244976 -0.1754677634554333 -1.0038926286407162
Ni 3.7843089477015006 9.09666823541724 6.890225141259119 -0.07821861459327174 0.3029919091520524 -0.11252947205999973
Ni 7.472272032208198 2.958856529839755 10.709834934582904 -0.6094980021049503 0.2721049897652088 -0.07675205735007426
Ni 3.5316428151770265 0.8141578338422767 1.08803087237831 0.42520724104124835 -2.7832834496710133 -0.6103634354290391
Ni 6.549621295126807 5.645422106196033 8.695957989959117 -1.499022305704715 0.22355716276349238 -0.7837200660787407
Ni 5.5334020515767115 2.982826126667308 12.461060095139601 -0.08130676660029224 0.9950117812113186 -1.656116708859283
Ni 3.719879771372296 5.273265471092598 5.295613568234188 -0.843853026814895 -1.359185404079014 0.2622085565871033
Ni 7.351479930107435 5.203877383909204 6.422219450665682 1.8590451396288308 -0.9171456648614593 0.13899717933322514
Ni 5.609408130694903 3.3357337547581762 8.518629721023682 0.5837476326137236 -0.9454295994078169 4.646606133629275
Ni 0.533682385900933 3.989035886570869 11.671348500203285 -0.22393048694251114 -0.1442679408138612 1.0037206218392263
Ni 4.047131222973557 6.272893903836625 9.772214886381407 -0.17980007228220005 0.1828601992647625 1.031309072980456
Ni 8.727252292264643 1.218590470608878 5.941510332063332 -0.16411042946108512 1.415774356217652 0.21246336684317602
Ni 3.4796154990802037 4.114704403781482 8.909105911086792 -0.9618280953704982 -0.08289519413333465 -0.6329415778398713
Ni 4.879219965157731 4.503900993187946 2.2248515611978057 -3.257003550710984 1.7850706450238933 -1.211650619588423
Ni 0.19983310799126858 4.923758500907284 0.7277792898024568 -0.9457556152886678 1.6154567692460757 -0.29059944902497054
Ni 6.675454803826099 4.281052489145319 0.676680509139145 0.6666351134375745 0.8479305393183784 -0.897586511782609
Ni 8.365526785723254 4.763450937267867 4.1872529945924635 -1.2013068144602537 0.133032477109358 -0.005180772869991078
Ni 6.413017508694293 3.0741305832635817 2.7208278922192655 2.2416386597646105 -2.263709780632037 0.7055122501187462
Ni 5.650765997190475 4.594233833239775 4.464125211744931 2.390824092484747 0.32945473132927133 -1.3462558405015395
P 2.2988355779602956 2.9535034726514984 5.8998142330159675 1.4131657149502115 0.2631783766995403 -0.7957381735855393
P 7.209770573719683 0.7309727917277797 12.013044956638405 -1.8914664933823293 1.4943387841861167 -0.13408817206738197
P 1.9077415864340215 9.089436108496804 0.10175575078471594 -0.10051830653173657 -0.5366725335027919 -0.6745350850109415
P 7.479889139268885 2.9496078402799077 4.920578748272684 -0.10866458978795479 -0.19976237433673985 -0.29752497250021015
P 0.5415488134334019 6.524212605870219 6.199171123597876 0.7139418689433382 -0.2615632096936205 -0.051486340804750036
P 6.254341527554037 8.06752465858728 1.2379641378573354 -0.30029585037712797 0.13938798701374058 -0.32822574401817667
P 5.733527561150694 0.8565835619173549 7.696746619033696 0.283892212208124 0.7075079403925364 -0.4229205018896007
P 7.8381773231294565 5.24061548872176 12.25802798550672 0.6456927068579524 -0.8522206820533 0.6272152168790553
