# total energy = -381166.88326954254 ev
CRYSTAL
PRIMVEC
9.26224048722955 0.00000000000000 0.00000000000000

0.00000000000000 9.26224048722955 0.00000000000000

0.00000000000000 0.00000000000000 13.55622519467476

PRIMCOORD
 96 1
Ni 4.75949492243452 0.43220948753068045 9.928619842418186 0.6281287298322601 0.40892701582398605 -2.6306838490630047
Ni 1.3605027257845312 4.022868932512718 12.681306787744669 0.9111467669655469 0.6416871852429852 -0.24983589395436326
Ni 9.125992978876559 2.316653078678 11.853387523968166 0.4319419886619207 -0.4398139352108296 -0.26988715617828357
Ni 5.040659496181109 5.613103010340886 8.172221169353037 1.3015371574379262 -0.5914167191232073 1.6072966020327868
Ni 6.711011954655871 7.6037993200345015 7.0178681312044855 -1.1212020385878625 2.394173982793586 1.3930375767417686
Ni 0.6855725200808748 3.7823470702432673 6.22936988937827 -2.3062679657092215 -0.8564457758782411 -1.5054176677080977
Ni 5.5452663606465915 7.828529062188063 11.80890931868458 0.701412626128076 0.5511419307635604 -1.3399211565327631
Ni 7.583802142714735 2.634199733254626 9.954688418410074 0.5526290568320482 -0.6917763885898925 -0.014037451929672599
Ni 9.173804664529474 7.1161608802331315 3.0174258617044387 1.966619324566084 -0.25870799963301255 0.7879155922173268
Ni 3.147744659838486 2.6231406180532355 8.879666470462459 -0.3299015890587028 -1.0210881665833962 -0.32554485475190387
Ni 0.8275561839474445 7.770047275436318 9.609127191104701 0.6941410321673271 0.7091074236691722 2.867837262453693
Ni 4.029482172256262 0.8008503658065977 4.301132572523062 0.10292125954627435 -0.14608288253541293 -0.3395116013446411
Ni 0.4198147572438283 0.2751218880201339 3.0612529314782595 -0.8545233620445477 -0.3523074675577288 -2.621938498770207
Ni 5.051700086901426 5.879762915406253 3.9528325006908425 -0.12688985454672985 1.9676616497876693 0.39858115381328774
Ni 4.7473799118118905 2.435330166680868 1.8173340273351932 -0.30756615878629606 -0.6510927948276013 1.9905519241222815
Ni 6.195901709421229 3.6908546582170185 0.8591950713983924 2.09140550250625 0.43927451776759185 -1.2472082049780584
Ni 5.175165753262014 5.589965933479014 1.6291873566313264 -0.0907807675289985 -0.4350106002849153 0.6783225770778317
Ni 2.568326678554213 1.8283755442795637 2.5215255033439044 -0.7167091472758301 -0.7112229273502784 0.18778077649483144
Ni 3.8300939202124225 1.2546075297229702 7.008880052987208 1.2060558991094648 -0.9832690388530936 0.27069268279871445
Ni 5.4068884870211456 3.0567246220796327 9.267198614538003 -0.2458509411646863 -0.9934094697212053 0.26826119053908637
Ni 1.5573160749590365 4.02400818809879 10.12833042043272 -1.9521172742951671 2.330778035035444 -0.5414879526135642
Ni 8.737617970912128 5.2362317051236325 4.365375472888933 0.05304160110701187 -0.7967321620676924 1.0797671684818435
Ni 7.190666343114194 4.274570319110542 8.145678366645644 0.3928283104899105 -0.2753638630221386 -0.17265497659698653
Ni 0.36459050048900915 3.040450865455811 8.46335469258979 0.35662563531710845 1.063899862432284 -0.3692739202087382
P 9.282617466360245 7.15424721332201 13.36418770072544 -1.2976581340984943 1.4401988078086037 0.38405827760676436
Ni 2.9841364429897657 2.1359930770003346 0.05020412238366837 -0.05307965343379891 -0.9453560658574042 -0.6817732546305936
P 2.3306297996486025 5.943135165161629 2.874624341998436 -0.4148855474002662 0.5912223437242141 -0.46345420033758894
Ni 2.877315022874486 2.7136512325825435 5.280474649497572 1.0245892377581194 -0.361755500344506 1.1794362396394076
P 5.193690234336371 1.5841580480357795 13.458729242336528 0.8448629561366481 -0.32317455474751433 -0.5298082022827908
P 1.436416049227246 3.153107497109512 1.1124404734937643 0.17422309241505476 1.4204573635156181 1.5524089488559716
P 3.4845660369729803 5.100845535191695 12.09655838703125 -1.303406606546497 0.21941614401192536 -0.599817798702709
Ni 7.994656608462896 8.120956520427862 1.574338220618263 -0.25909392221752153 0.6852421870158005 -1.8505499576736257
Ni 3.402243243078538 7.338426866403802 12.595577341780652 -0.46385323554822055 -0.7467352613242753 0.9212067223047102
Ni 4.098374717371796 0.1873343722087565 1.446299786104469 -0.5423760116454723 1.1162156411168647 -1.0336032683312715
Ni 1.8763076390594624 8.409521624363656 1.0584888485887536 -1.4750796788461886 0.6864616612451985 -0.6333655527511672
Ni 7.171567603126532 3.5557926667038826 12.193160777161859 -0.56885220355913 0.9638993760772303 -0.5169287752169613
Ni 0.9363198959033698 6.3203399110382215 11.603721977840413 1.345862718828179 -0.784948539169203 -0.5001417855666096
Ni 0.4461889871734439 1.3297243004794874 0.7482658476048746 1.0927417263646406 -2.6819979259559488 -0.28586759076693996
Ni 2.5328800840184313 8.097347069298593 3.4859831597751687 -0.08044904658568726 0.23642039187940575 0.3198364915132169
Ni 7.398436922844182 5.847122779753237 0.04606204841544217 2.4092141649561603 -0.08906712727200145 0.7901714781310392
Ni 3.62378677448731 4.251988976680901 3.093096514445079 0.4333293559277505 -1.2288644123635482 0.01577088968101155
Ni 3.7796888072090975 7.273174381819381 1.6404391264358906 -0.7235858197910053 -1.361882748405519 0.3514952560690785
Ni 8.652433144691699 3.2258716587695857 0.3302118422871639 -1.4866144189586654 2.4718405815381304 -0.7770938190114746
Ni 5.30080804614884 3.285557536791164 6.881235263696245 -0.512759217220304 0.17323167503606293 -0.6069922049639611
Ni 8.576806950705636 1.169015164918904 8.213879948617105 0.10530261529425736 -0.22247832787701685 -1.4356546400813468
Ni 6.354304547088055 0.9938939830824711 11.581069316158636 0.5063165469187539 0.7851819953362478 1.0005923606228897
Ni 0.5782092588941707 7.907489662767509 5.075518864666834 0.4799046325841283 -0.7729648844447656 0.4415085493044331
Ni 5.798310772122306 7.799547511547233 0.5708392940987378 0.4735421807012103 0.45260131678348503 0.3290112160339495
Ni 0.4023924827933956 5.0287482548502975 2.2423356392798417 0.2245727485122003 -0.9570047058399259 -0.9017727819498147
Ni 3.683278145457607 4.65175654050606 9.91631125096833 1.6402296053153815 0.5333103018987784 1.2015572399081629
Ni 4.306488000001659 5.853773068458931 6.164042380645496 -1.1108050116242547 0.34589719315601075 -0.9529485334926815
Ni 8.053231017620012 7.176309870281568 11.468729453131306 -1.1546834581747596 0.18144352142289397 -0.5612247689208593
Ni 8.709590431046626 6.080614601454969 9.122444614526765 -0.7746217033218982 -0.7654145829013335 -0.05621151419456125
Ni 7.320726724737254 1.0314986796634156 1.3559068020299834 -1.3312172010008623 0.8822840770975837 -1.0543420435405197
Ni 8.219238154767861 0.0575185137358782 6.019642198222776 0.11058468962880309 0.8000383436227899 -0.6486201649173926
Ni 5.360975560678351 5.732280259332761 12.932259785307089 -1.266180118094871 -0.6630075439873162 -1.694743934313178
P 8.696567720851354 4.4574532585171305 10.580864042374131 -0.48839981453933307 -0.40120804991317355 0.6228389421882304
Ni 8.732551525338291 2.698933532368967 2.4210737260460427 0.4600330904711819 -0.13703517051084788 0.6913621838706093
P 6.317616812320291 7.302406012954716 9.838267612202065 -0.6948928227316871 -0.8826404319957379 -0.44297382099605004
Ni 3.2730257253443615 7.793138041095505 10.235831689003428 -0.16645630398544234 -0.48964345713844704 -0.06956608112459632
P 7.816673394300475 6.002608011650851 7.098839564204554 3.199138302963084 -1.0779326863762662 0.4711880786467369
P 7.709972383312179 9.13635742603766 3.8024535420013743 0.04733863718496364 -0.15592995053282177 0.11658461596597985
P 2.521117038536215 6.060163574348878 8.875884697651129 -0.5563165329859645 0.9789359586953785 -1.01569656325418
Ni 6.118858392632978 1.0818760059451293 5.800614291343903 -1.351325541714963 -0.4188949256699753 0.4609311768054191
Ni 6.418584496416074 5.032971836535252 10.33603894315111 -0.0012626687625075029 0.8405949248889135 0.40325696202240224
Ni 4.4321951285722445 7.883324477206011 8.088036665110621 1.4784372824645118 0.4356330643602626 -0.06588246162542202
Ni 6.94113232080207 1.8993798802375739 3.479286559866788 -1.6995932919856793 -1.162225789298392 1.6504808507297448
Ni 5.137060895692063 8.110638384469445 5.427018114380595 -1.873128357194774 0.014567356291213621 -0.5028573847255597
Ni 3.60195567354118 4.3887830071744895 0.5895425364154623 -1.0359362873398223 -0.6914169483679448 -0.3310215615957589
Ni 7.684390074948492 9.004472383028777 9.52864387818094 -0.7639917344118777 -1.7926047486174093 1.8436447459133605
Ni 1.8136300573443758 9.037621941911338 11.948728396937613 -1.4899000316884727 0.018992996162735032 0.21539056779230004
Ni 5.725139071878597 8.865455414806267 2.8933868626545984 0.7008418412262704 -0.8540173689424067 0.8162239522437168
Ni 3.9719914452419967 0.45674979383393477 11.94571816876303 -0.1514019807554812 0.3320291769246669 1.6841877560638867
Ni 8.271718009651515 -0.032617906275727644 12.971775282110855 0.33425935180676625 -0.47863862138751123 -1.0574736471909658
Ni 2.365854100411492 4.953538861688409 5.037344540292853 0.3367715767056587 2.493050382846526 -0.3048364185599589
Ni 7.034393820770919 6.20358010682655 2.457635494342501 1.6239372959132614 0.23320754136906288 1.0523844055935165
Ni 6.399328298339279 4.118353370210491 3.4487304283346365 -0.20676091714176006 -0.3826071469825346 -0.4249799555217907
Ni 2.418991574373285 4.186810590020776 7.319304044590744 2.653670025545533 0.7811021688399193 2.1944542887693244
Ni 1.6251156756911826 5.996587555301685 0.4422228957754241 1.3464702705051907 0.3261696328200963 0.5925513469482827
Ni 4.774397867458839 3.2731739211929565 11.87410067248146 0.015056894333122458 -0.3581796100677896 0.034176902992025006
Ni 7.30370272662992 7.255418666709609 4.72134838478215 0.0062480377922408525 0.059078551329711154 -0.47504601894024634
Ni 7.748160601046966 2.570947892626235 6.37419150374543 0.6800534437260095 0.645759555540146 0.37066540123962616
Ni 2.010295210670286 0.5490767337325833 9.351559101350626 0.39133064289846153 1.2730539623965689 1.0675487720387808
Ni 1.4233748145508989 0.7965693582303139 4.835491606042069 1.614933035532122 1.1384615969992589 0.8141992085042041
Ni 2.393233283439392 2.4587914219615405 11.271838301136288 1.1279501559449736 -2.735400509946805 0.2636270342011847
Ni 2.211007963110943 8.136693067100527 7.772597170256204 1.9488126354019664 0.2948926770836857 -0.8952817749088323
Ni 6.697878097574152 5.138357609367268 5.646303511546402 -1.2776600937100124 -1.2395704859271426 0.09087384146343704
Ni 9.341062204149841 8.007781203304079 7.575055808975477 -3.5470679531680913 0.8256904969732554 -0.8894556551453584
P 4.994616898470794 2.7700119662512743 4.72595727567345 0.6385892630439518 0.1325611938998943 -0.23986515589489657
Ni 1.2141963742592607 6.249233690434302 6.794976943797556 0.1155687731069558 -1.6205807207362026 -0.410714446741712
P 8.739136978360225 2.9110110539487417 4.51571460394409 -1.597827486200087 0.4351900632855731 1.145284533458363
Ni 1.3366246696796853 3.346549390728484 3.815874528539746 -0.03309472567143978 0.3223086072027933 -1.4070423756612929
P 0.24322921517846732 0.6757471353190359 10.67094581516657 -0.3578559081797837 -1.2776043007714126 -1.256574476684307
P 2.766936902392931 7.7824586777561375 5.672507316250134 0.7279644084746754 -0.3225965707568574 0.2694145874172392
P 6.237266875660268 1.07314171311857 8.29119094415688 -0.2638841445173133 0.8860479150153902 -0.5771797495882188
Ni 1.580138235642644 1.2044524972141488 7.039287062446712 -1.2753507288505457 0.6277780313610607 0.8903974502333375
