# total energy = -340862.0024638931 ev
CRYSTAL
PRIMVEC
9.34790442343454 0.00000000000000 0.00000000000000

0.00000000000000 9.34790442343454 0.00000000000000

0.00000000000000 0.00000000000000 13.68160302435641

PRIMCOORD
 96 1
Ni 4.3813159931605865 2.80404410520363 1.1932478281529733 0.91519574022394 0.228996845721825 0.3183866464405678
Ni 2.771410571387132 5.082782729794795 8.979605257607727 0.5744613222157913 -0.2244079407995619 -0.6630471389760001
Ni 5.996830157497747 5.7123734304751075 11.483544244035976 -0.11837950308287355 0.7912017191677664 1.9352809194641187
Ni 3.49785490823838 6.537821421480045 10.809574367820337 -0.09889979709170708 0.22462417057542605 -0.9008932075583388
Ni 1.7563683859203736 6.177768192602915 4.297323203688229 1.6450306262484509 0.9957250052282592 -0.32302491654352755
Ni 7.295618629262411 7.785374029925251 8.079876014879488 1.3629849803307623 0.07465352294983271 2.4373209504947053
Ni 4.912473261847851 8.199224447892597 11.60640468468439 1.193729516333628 -0.10615416466127522 0.37951590965172055
Ni 5.951399342731726 4.723028633854397 4.9448600109915475 1.7946081522006836 -0.7220279883855824 1.6613573884329322
Ni 1.0628941074394465 6.665186617197544 8.17672778146957 0.6453864884714433 -0.20461944531872503 1.0920123043977836
Ni 7.800330676761801 3.367900343037303 1.4435734870946062 0.4133205169059914 -0.556825354301583 0.33821653668230134
Ni 3.5640567662986604 8.033972196157261 2.897831628773073 0.6679350631959207 -0.11631207903088354 -0.42494884517353904
Ni 7.20778572071477 5.054411840326714 9.597795254236877 0.27852863390336546 -2.5165690347937564 1.526490686328313
Ni 5.996316022762741 4.529882235768896 2.781784875549134 0.08432678437353863 0.25934923276143723 -1.902312434957898
Ni 9.517475256353322 7.032390992843398 6.195372165929535 -1.186543282997834 3.2875616260034994 -1.848910879408306
Ni 4.350972695890936 2.8400615803668976 4.049727132794267 -0.6457130185729266 1.260203588796462 0.4874433641633347
Ni 3.6995546387335327 7.92582629162473 7.721404451405324 -0.21825734781713382 -1.7413580346272912 0.6057462483720019
Ni 6.697941673769589 7.347789283009153 6.020138222011656 0.09772634560889622 -0.13264912562801026 -1.1678171673432403
Ni 1.4031297792581472 9.007920994440598 7.811935165126109 0.09318063521974275 0.12913442760653243 -0.5403813498129467
Ni 7.964947271006582 3.73195447494321 7.298533305814684 1.3921256064504604 0.08006672354560404 -0.4409899577968017
Ni 6.456232912986663 2.3095586649787316 5.610825276778348 -0.46618831143930034 -0.030104789805180412 -0.5108830832435137
Ni 6.348021573124222 2.5602507617678603 9.581089614510878 -0.9244409129712917 1.0024895776456024 0.08373517353612675
Ni 1.8623923161829694 2.4041594562199124 9.114259949077189 0.3044278702676305 1.0707449103785753 -2.6839308813126035
Ni 8.888716519153293 6.993204578131637 12.08074539120131 0.2776914827140508 0.26632746385148326 0.1915253311389282
Ni 1.4144781350453797 0.8865384150088274 10.557559542576602 1.5725054624955306 -2.9602432242909407 0.9149753966830179
P 4.311655410519354 5.745063051717242 7.691879095759547 -0.24570258851228008 0.5839039556859299 -0.43038929946282006
P 4.087165489407007 5.592944605485253 2.959713820268873 -1.1899919036680668 0.9391828471671567 0.044016000569633874
P 4.535612501088148 0.6684162862871417 1.6338435350353535 0.2329476028394569 -1.116362193997058 0.6469201515071504
P 7.647772879028988 6.664915527973631 4.187268457103183 0.10136651346464477 0.5460079519711049 -0.32720141651872037
P 2.7386368190065413 8.77153119118892 9.528072975427445 1.0471108158994031 -0.2542617909362008 0.8495323365878596
P 8.544601467061362 0.3911368801651904 1.9651566322256246 0.4920111860396752 0.18340373047305833 0.3161747263909135
P 0.8070232716831625 3.0112217076026706 7.140962227020345 1.107030632183487 0.5935468780923326 0.8602504943363121
P 2.421658733018676 3.0578023145942512 3.1228394237821355 -0.7828842004410065 -0.6600484613589923 -1.1899047432708991
Ni 6.191444176554086 2.1860821974387363 2.87453197737301 0.8166319863154129 -1.6210874851692922 -0.3798681507848167
Ni 5.028873365853305 3.531619538471892 11.37399521907209 1.0266193808142707 -0.2593646593804049 0.6478033254430521
Ni 1.3559509063931037 5.369109037672005 12.596241181069852 -0.2621635622817807 1.1321793635349728 2.206130439555672
Ni 5.809974898987871 9.280636753696548 7.360852979230453 -0.8616054657023097 0.5977899696394028 -2.035447241973075
Ni 8.129956477230824 9.23410288622633 4.302139243969599 0.30706042279447116 0.43388419998995603 -0.8551993050656497
Ni 2.0112857354408273 1.1702173963959674 5.830880552103658 0.16972520454470125 -0.44802706714924134 2.422946169830272
Ni 7.404446930806861 8.747067725706888 12.25243647939978 -1.3256011403656653 1.0143590753896787 0.8008590397518723
Ni 7.986251144844394 5.38753375699378 13.507394497609933 -1.0660924992082286 -0.34854902895656104 0.15303720236605903
Ni 8.214620446229972 7.897249748262646 0.8191914386751232 0.26907880134437534 -0.8519692281641262 -0.07290800101363573
Ni 5.6144915248341585 6.642415122388896 9.373772728338173 -2.00313721698646 -0.011484603600831835 -1.1273719148440002
Ni 9.46363132774174 0.16765466313345592 13.286888653298671 0.052798374747954235 -0.9125104800822931 -1.5811199436374188
Ni 8.454721367477967 -0.17452350319314164 6.613440358304788 0.4892467359206606 0.6192504535060238 0.31380288372462734
Ni 0.23121106428452182 4.962260200005019 5.943001185533004 -0.2298764201133009 -2.236183293076994 1.7277759250674822
Ni 4.028086734402633 8.33745190837514 5.492041457183321 -0.7774370612835062 0.6081062639637462 -0.4056056647602369
Ni 0.22799818958594537 7.734717736670709 3.050122076443683 -0.040962558455290746 -0.4768920710100496 0.1760938270752064
Ni 1.8650284251879115 3.3791365239732616 5.19449392501699 0.2528147740770291 0.6829970997353657 -1.402149823455682
Ni 6.012899204942767 4.602917411852625 7.38918741187187 -1.4072467783626152 0.2865813290045129 0.18664871977291725
Ni 9.625630508790124 4.588222506335715 3.797137411437751 0.23683973880501147 -1.9599583676061405 -1.5598543493904233
Ni 0.9889054451198867 1.6950741776033358 0.9864768595898019 0.44476613700978235 2.410878182922145 0.27966403305938936
Ni 7.2866820327775725 1.6237496680015366 7.743773051539812 1.1809135955158823 -0.8207712052947671 0.20694809345190165
Ni 1.0368882377523947 6.131907374240344 10.51072747696008 0.02355053362643041 2.351412423456344 -1.598627099283247
Ni 1.7100682160569773 6.094543800861786 1.639261580351894 0.4425624444902443 -0.40703982610360223 0.18706678114694236
Ni 8.329543581360314 5.606386891829602 2.335476664365619 -1.1650866557859547 1.3501271505314876 -0.9708236140008892
Ni 8.907225369613524 2.1372954850387638 5.726927182637498 -0.3163295068012229 -0.6332007450385289 -1.10151818700569
P 2.395550036384623 6.671206667549255 6.2824002199192845 0.28485200501823205 0.4535099446406834 0.49846954007050925
P 3.4179022829927455 4.7685061881417825 11.870855961772717 0.4060579218063072 -0.17666641174922476 1.8096655607544383
P 0.532616476544256 4.140065279687031 1.3429741456815418 -0.08969936153936164 0.12354639199579368 -0.4695744543027139
P 4.341783705990729 1.2685199577291943 5.430857554136703 0.23179343463035565 -1.2319227395738976 1.0780686977334981
P 9.374171883850623 0.8449206103956989 8.910622398026275 -1.9708315628752189 0.4896516846685632 -1.4290661882305518
P 7.843116034618607 3.3498775835992602 4.0774324514781215 -1.3448481615207355 -0.31107108661576105 -0.11979900913821948
P 5.306113510777309 0.9117674738508059 11.888108453898678 1.8786960810905389 0.6853987671983229 0.9686818850675382
P 5.915624913079553 7.1055289958741294 13.308245810190838 1.3933412240251164 -0.29178164225852976 0.8848780630770051
Ni 4.422110247407278 5.563236965706155 0.806289461197744 0.45353231323818666 -1.5964442326993151 0.521449031684818
Ni 3.9074239860487636 1.6286292740319612 10.5494053656794 -1.6893199350841295 -0.4311344051589607 -0.7177393883125575
Ni 0.1498478402841155 2.0776838994908378 3.156167506886106 -0.13819679491911682 0.06452389071499856 0.8390211526438905
Ni 1.8034724755512341 4.070245782673159 10.712271097453877 -0.10497222853803213 -3.235963185100917 1.26089572976748
Ni 9.091986697566284 3.258109207352751 12.99250164756699 1.1159850131632973 0.16511470235588338 -0.7580051778111397
Ni 3.0273935819946898 3.3484660500540606 7.186138778790145 0.7614183172577467 0.021690083378923936 0.029008214306891975
Ni 2.0064341731232216 8.230455796068169 11.617432407355064 -0.2919834738566907 -0.28197905434581116 0.9338061562362757
Ni 1.7342699402193704 8.999769621914679 1.5131303079984106 0.4824397403011563 -1.4470353711144626 -0.015246898856741483
Ni 5.97997588609381 7.894866032673071 1.6527375191516256 -1.0386272039084243 0.338571606028875 0.4584510906960427
Ni 3.6872060571891065 0.9345847733903906 7.946767466776755 -0.19869150987006426 1.2943840913329125 -0.3327688833041688
Ni 6.932564723113698 0.8284711032467754 0.5165053635300095 -0.22284162475370656 0.2892030828980761 0.9450562752287982
Ni 3.4871796015587915 0.7871056920490138 13.238072962395453 0.6642370455190432 -0.05092815430843487 0.5110622891338554
Ni 2.397232659153735 3.692749364422903 0.20383666141192566 0.28360347732311164 -0.3171818274991893 -0.333283103936426
Ni 5.338868567349355 6.862315222503277 4.18221965400542 0.38139358629040765 0.20912247539540113 -0.9934593491225342
Ni 2.5816013751270357 0.8630994798350986 3.6961538711590727 0.5795598197846211 -0.22791543973218814 -1.4939760015300594
Ni 5.058786659526405 8.978110527714499 9.512079646007036 0.21379982626641242 0.5704023216550693 -0.2450027342317781
Ni 3.7762074537708537 7.320558837862359 -0.36664817534162114 -2.698779773399978 0.7285763310270613 0.5730497865802453
Ni 9.125106322404969 2.305118410449131 10.513026126620773 -1.6492333514758886 2.641217401604477 0.24581366016884765
Ni 3.77041175312169 5.04473675940432 5.513590246113082 -0.5113731355060548 0.4494437449911098 0.18064570811194697
Ni 7.323316469622847 1.9787363327627852 12.04536544310945 -1.7671798807864019 0.11222839587981316 0.10515889062754147
Ni 5.85493831854025 9.298472555049134 4.236727283820374 -1.3419726397451532 0.31251064727576505 -0.2025005992035093
Ni 7.46039413787983 0.5524200117462759 9.972096558806676 -0.5308381862092019 -0.4756682259052776 0.01213252159747588
Ni 0.29845708325207926 4.461277966310494 8.872368904160943 -0.011873868619450518 -0.7293790294340148 -0.2851057729002509
Ni -0.1842658890262996 8.238158469188992 9.836347227746863 0.5811325635883798 -1.0674184171085037 0.198503048008342
P 0.8918751335581939 8.963340838963406 4.822765163703078 -0.31575923612004975 -0.11971827649895511 0.0958782366565639
P 1.6679839510206342 1.6301903740455261 12.446195165215153 -0.9426216976453765 1.2155856929767712 1.8280276082013938
P 7.049993096589164 7.702626381302037 10.502231166766492 0.44810677134724114 -0.34769233738322053 -0.9811792462036006
P 4.273422482043422 3.082985568705293 8.976704602911862 0.012455709264849514 0.009564503759983528 -0.05076103260295129
P 8.933165803970665 4.592774935716589 11.031968488794712 -0.49698087134012475 -0.47006759188904845 1.3088254635692234
P 1.2746054434108158 7.444474656903178 -0.015494151332238816 -0.3735488934350083 0.46668607701132525 -0.6768637331441182
P 6.410437529954001 3.670155479795439 -0.1669376788757288 -0.4970826870253117 -0.10901837358294773 -0.6762394692965579
P 8.212470428247217 5.889506868541227 8.0815586376486 1.381151366827144 0.6023462215515175 -3.0585262137342553
