# total energy = -340859.43553962995 ev
CRYSTAL
PRIMVEC
9.40853251064940 0.00000000000000 0.00000000000000
0.00000000000000 9.40853251064940 0.00000000000000
0.00000000000000 0.00000000000000 13.77033835837662
PRIMCOORD
 96 1
Ni 6.424004955039768 6.793854372913057 10.354551182676923 0.3653133928990934 -0.9479418243067094 1.6690616990557254
Ni 4.9724847657434745 6.992826021073431 2.846934475931592 1.0130804657875714 -1.1233417106386847 0.7671919865167304
Ni 4.4682626847802265 8.946959432252427 3.935287187231821 0.013681354141834502 -0.24385550800121228 0.6329595755620002
Ni 4.479073088777591 2.4551377739811473 0.7425458577218621 1.0522748765988459 0.8092732319574966 0.8402018032155529
Ni 1.675311546547224 0.3592779906048473 8.981951646827708 -1.1479168288748876 -0.16893124788849617 -0.27969102964258286
Ni 2.3895132588535413 3.7994853680346377 12.82875064377614 0.3717262384039727 -1.7044115393099293 -1.5133346085623292
Ni 3.250836195969948 5.569192722506631 3.362854185519665 -0.9769662365635174 -0.08812918883876435 -0.6088050898029838
Ni 2.2190306475112878 9.646568510442197 4.514357908717815 -0.31764359762695615 -1.9220425663969736 -0.4890209930630997
Ni 7.903214455880227 1.2894958487927102 6.071287534241155 1.138994329574277 0.11765856575644898 0.16497329168201263
Ni 4.97159095514317 4.009126292202855 3.0230161050448046 -0.3636807423916769 -0.5889415181098373 -1.4974557325485436
Ni 6.963584301644528 3.4291749320622444 1.851022479474626 -0.7693401432079846 -0.8743416823220554 -1.1690471830955997
Ni 1.815790347317157 5.042333712024097 0.7105540242038122 -0.6518103897199161 1.179879240714097 1.9323814864291367
Ni 0.9575816345028634 6.6116863640384045 10.697294618029405 0.13707990770585424 -1.3610803071088817 0.2825338984080166
Ni 8.898815970760246 2.1191590735930745 2.1807125166496104 0.5481658788543721 -1.6217755123752522 -2.5377081307652167
Ni 8.09722780734207 2.518457198613232 11.510681081371596 0.02608332735061314 0.47420578242713807 -0.781965545281479
Ni 2.3820805180720632 8.003020170069997 7.231754766480462 0.18027701191861856 0.6954247839757571 -1.1283412207358052
Ni 8.484050218088507 0.2834113468510175 9.231262707997221 -0.03315206127193645 0.6888998383730458 0.28639235292215837
Ni 2.7837778189140896 0.9677710753463324 1.854960891235546 0.11932592615654287 0.4494769122218904 -0.473403855351133
Ni 0.9127405679654914 7.257817342732072 1.5152328905925125 1.2708178739771985 0.8639960774216733 0.2800715529104531
Ni 6.984904036594945 -0.09938044851467749 4.248246030822371 -1.5333599026443203 -0.034208527560908836 -0.057354626660068964
Ni 1.0956330338530227 1.0591655613606068 6.277373914779951 -0.09691079168613632 -0.14578694856154892 1.7641122976046713
Ni 6.382118167749718 4.9835492001219786 12.636970877961792 2.7024315112199524 -0.44243028978775417 0.732412674054016
Ni 6.378392388826345 0.5561788207323058 7.562669794604495 -0.5668372300116303 1.291007461551196 0.9446693242030249
Ni 9.095689516143063 3.8171734093880283 13.904462050628274 -0.2859886897258365 -3.313190382315197 -0.5843230455012196
P 3.550253338539257 6.2911658827692785 0.9671924505892935 -0.2986724558410921 -0.6811127382284592 -0.15998098067374383
P 5.963193843653406 2.733291632795848 7.9370306038761615 0.6557161525322256 -0.883176507004866 0.35953123899967754
P 8.414737558168065 5.464748601727915 10.148863723921842 -1.1991591719896315 -0.6090696563182801 -0.5302162363544868
P 1.1836404481187754 9.150560078469113 2.738052350309048 0.2373105077938429 0.37607371673939105 -0.8811823593929726
P 7.615652064430743 2.0363451693417214 4.021600124770049 -2.093515863981033 0.13723725921932495 -0.6627393779275941
P 6.297102666861827 6.823924043213822 8.297235334945535 -0.08810964845473858 1.1922315916318629 -2.4213603134003914
P 5.096950243969008 4.03502798254641 5.021753487738775 -0.233763670982849 0.025182155692582437 1.922288363859193
P 7.260621085457237 -0.17599883402602637 11.198962282382308 0.8025816788699339 -0.2460427454605182 -0.4152313607754591
Ni 8.638190208244144 4.851462810462271 4.53038628491443 0.9125277064734735 0.08918642645868512 -0.33835434781174634
Ni 5.461399164109932 4.818166013467776 7.982830399889018 -0.6392582640865184 -0.12011165528263185 0.3531975834721659
Ni 9.271121015651213 8.964374626159408 4.849541588098249 -0.09229283329815073 0.5096247853563803 1.0407115972412784
Ni 1.1309714824292647 9.66322161320576 0.2083246704526111 0.45237223149181444 -0.9539947153690086 0.07181553928040536
Ni 8.212886899021449 2.6736697614892337 8.393324678744566 -0.9179578763501094 0.37985915192375225 0.04707355644903506
Ni -0.33202993924125446 6.428107075268533 6.075074468626655 1.1170957297289728 0.6805910613970343 0.7301321055499553
Ni 5.4296453664675415 5.2963170505000425 0.9185522185739964 0.23992660526045134 -0.2610273917948085 0.886399641927854
Ni 4.931698776771693 7.090204333843427 12.973958173048313 0.7452612478819101 -0.6163368794036547 -0.015279294756573688
Ni 7.1894173104772054 3.5468662667907354 5.673268969659329 -1.1413391756573699 -0.5063767107327279 1.1712341634445893
Ni 0.9863905614305666 7.316931153276409 3.7754691476310924 0.41102940687896955 -1.9846468714917562 1.3440786303445624
Ni -0.3005894457356028 4.336195112185789 2.345680787014618 1.6302812358534182 1.2186527619378689 0.6199793612522484
Ni 7.741867529726347 7.349051883691556 12.489077212622387 0.09218818939948639 0.8335148781136806 -0.259396798169921
Ni 6.658061021395246 4.146613179594927 10.136387068794857 1.0605245182021477 1.0196452634892827 -1.226862808552487
Ni 1.2938049567394403 1.7578620118848032 11.982218860814873 -0.004266231475521684 0.4696649571339912 0.2763437104369047
Ni 1.1746082567893845 2.4840972374310066 8.161927463711677 1.261601497585253 0.37111483007221896 -0.24483664096755903
Ni 1.1902452380283928 7.154963263968634 13.050315001352416 -0.24299470266281376 -0.003197681001691267 -0.821438920785753
Ni 8.532974587789374 8.499273223891585 2.6128116089944085 -0.6663844308793492 -0.10967709021286919 -0.26011310751065525
Ni 3.1039878186062673 2.160105007619647 3.7883164989438876 1.3367471296801559 2.005005123433134 0.38662218167919865
Ni 6.539212437152678 7.72465932353733 1.3022415879530496 0.7462824900575729 -0.6118006820961979 -1.0606193919087992
Ni 5.1978379394117775 8.193119571955771 6.689547616710808 -0.24804872014695345 -0.39808415957221116 -0.30703265488032927
Ni 3.802580775271481 1.4992873094830836 12.570364112027114 -0.6263266436265149 0.90298711397289 -1.0598454898572522
Ni 8.64227351140764 6.038518555927472 0.5826986516699664 -1.647954484763465 0.8390954575252516 0.11430790411666121
Ni 5.203360748068395 8.723506782176349 10.776845643163014 -0.8484799840639452 1.0490049475983223 0.8795957316321432
Ni 0.5711421510346634 4.1168822164690155 10.627506827210906 0.7509261594771713 -0.041011923635987435 1.7936648144508076
P 8.593612580620546 8.511607810175784 0.4347974595044536 -0.5137835447197604 -0.033279073768103976 -0.6493390453612882
P 1.5121299565295614 2.3464786305820478 0.7640829297761421 -0.1896096021734541 1.2338484958417009 -1.252927623960339
P 0.009611756939693501 3.58317379422836 6.677994879488559 -0.30964592413346026 0.5160476581635887 -0.6415961681910757
P 2.074205104664085 6.394894955067753 8.542084869939634 1.8111380315349068 2.805957237119445 0.5393397959223099
P 0.23804904760567852 5.237617215391636 12.5736825014874 1.531785359068349 1.1281964676278247 -1.0486061694980071
P 7.258908732517707 5.499616623672417 2.253639934808334 -0.7911207294181859 0.9760259841374352 0.31691366143946714
P 3.3618286554624737 1.0140986900400002 6.143058643739064 0.16611871814036552 0.6685061052080422 1.4835460644459868
P 2.9962977540685505 -0.023128054922821616 10.523554772688989 1.0650167496455463 -0.5108023506042494 1.7363574960889065
Ni 3.0198284941881406 5.158519681531023 9.934129020185154 1.2620797227732523 -0.9149928801845144 0.8409592502068678
Ni 4.269084048901887 7.531662093600043 8.882391495339707 -0.42479637875607484 -0.9655227706132662 0.28811447781958766
Ni 3.8053657009313766 3.0150677766749405 8.253803666596854 -0.391497507493629 1.1394283317879021 -1.9831018956021391
Ni 3.546706321735944 2.1250299979571787 10.186690729379983 -0.981714035661148 0.05995298351486449 2.543049340472472
Ni 6.969257646823302 0.8457188857416204 1.5124376155467187 0.5203971933815361 0.14965337349549065 2.0637610013161036
Ni 6.537961102312251 6.04122821332629 5.531311147559208 -1.9297736164926447 -1.2547505361016906 1.5190262596304678
Ni 6.392307608593188 1.626067286736774 9.916158722852717 -0.4208533349479268 -0.525885727299933 -0.0908743556840693
Ni 2.9341732130810834 7.26176892643868 11.480758184179933 1.8091649669689358 -0.22495609999354804 -1.4499862262126706
Ni 0.22115320470013664 2.047550731709747 4.218694770669784 2.88702540534637 0.42989127678047895 2.3704303593197436
Ni 2.4102026221174273 3.3951819036527766 5.741377337402517 0.15579033963116395 -1.5531699953917122 1.3610821068810945
Ni 5.421723381989055 9.67582904693637 0.15134659681637005 -1.1777843058582813 -0.749885891138115 -1.1499333450842841
Ni 0.968053331325376 4.8028865564688905 8.440983600806055 -2.2600858107262045 -1.1762894664803096 -1.2987919905926213
Ni 4.18535751698496 0.6547783610382965 8.635820198873443 0.06445472803995997 -1.2430558733725816 -1.4692743850183212
Ni 5.222667057034968 3.168831425525186 11.501000642143667 -1.2152406509325266 -0.703056589489402 1.5001307082775457
Ni 5.266134477807661 1.4601854478529288 5.2869837861263385 0.6755303590446753 1.0107700724868398 -0.17765834334884886
Ni 8.442746759821812 1.3266219185695605 13.481616250129782 -0.06377698524664499 -0.7125871546876567 0.022466299423316145
Ni 7.695699860087472 5.198750567077352 7.792882475378663 1.997125206464425 -0.16211062542223695 0.34555369377366296
Ni 0.5059250253701436 8.95649027581146 11.483787731688333 -0.3668910217988584 -0.09136415083629426 -0.4047548867241675
Ni 7.750062361651242 8.229304788469143 6.765780252384131 -1.2008450443324867 -0.29397093660036466 0.2172055095138517
Ni 3.4120796282648453 8.810695654102876 12.98439599915334 -1.55716883213846 0.13053182217469134 0.5956065888348387
Ni 1.8371288993328432 5.5137482396898605 5.153424961109288 -0.46444818881974204 2.0606396820783024 1.5989806259679236
Ni 8.845667169906362 7.299563002032601 9.263609243195603 -1.6931321097413679 0.9623163478608265 -1.6893109362230647
Ni 3.5155076275190065 8.232419012771256 1.5830110188402202 -0.3179765554863427 0.7079943931106517 -0.027408216809623766
Ni 3.5430934452041876 5.457475806001228 7.075076354219961 -1.253066206420732 0.36495318134619725 -0.5342143017702864
P 7.732280234971505 7.248747517272142 4.471311990207159 1.815444115109428 1.0158428590240571 -0.7094720060974427
P 4.833530147260375 5.3723568112543525 11.427590566260779 -1.8689053202523618 0.9789950940680882 -1.71412233883979
P 4.939460816195388 1.1520089614006377 2.6409026648820775 -0.16108732636404516 0.68979612493507 -0.929847942919476
P 3.787517714523194 7.027628183289491 5.501388250367546 -0.3162570016920747 -0.45127334200068087 -1.3770334880040285
P 0.2347457117976065 8.581804872163893 7.637030132283496 0.8210612257313602 0.573966899077876 -0.9065653182424515
P 0.30165355077659667 2.1110018757987183 10.06856848385682 0.039484174137551356 -2.0451855523067617 -0.3972392950734126
P 1.3960098467510795 3.9866587162709948 3.812676130788602 0.4110805718318791 -0.19322277344600916 -1.1349852084148842
P 6.653046273500907 2.663847253418521 13.183295201612426 -0.8227296145727186 0.13963018493153373 1.1855233263737517
