# total energy = -340870.20949536364 ev
CRYSTAL
PRIMVEC
9.27485083869773 0.00000000000000 0.00000000000000
0.00000000000000 9.27485083869773 0.00000000000000
0.00000000000000 0.00000000000000 13.57468171872190
PRIMCOORD
 96 1
Ni 0.17415851146132993 3.5021094746215677 1.869424093544259 0.12215799628869928 -0.5249341620199411 0.9138235424667616
Ni 3.679017979354009 1.6899983942965418 1.118659235799498 -0.5308942362581179 -1.073588036254325 -0.3995319477623313
Ni 8.448906813935592 8.944360070426221 5.08697650727437 0.02236165552465181 -3.240511466593232 -0.9149031486841857
Ni 5.448269973993358 2.695002680539481 10.957917200839677 -1.5500689878688851 1.191414495047206 -0.6153876281165079
Ni 3.505606093384498 7.358499701249521 12.744373116283693 1.692966016477149 -1.4754221497872717 -0.11285677349243144
Ni 5.024297992849951 8.58206584730267 0.6918741923993363 0.3962031404994144 0.49678032529354443 -0.0888508974961373
Ni 5.590212291096497 3.940151404474166 8.598067747439762 -1.9140425789106326 -0.869609824064025 0.4151477999227173
Ni 7.811891509225856 6.593101911350184 6.557263887742857 2.464814013708652 -0.30319296941926493 -1.293288801386205
Ni 5.33248273623097 5.803580234441878 0.41166703654717446 0.6291216898731489 0.4131359116990111 -0.4156633061065551
Ni 8.533985020599673 1.7712089881644903 5.512121757047778 0.5307021748519699 2.0688805819308564 0.7869663409301801
Ni 6.527881160313247 0.9787750080955477 4.627758238006594 -1.1712472760707118 -0.15105668160092048 0.6475948089766719
Ni 5.834688084125877 8.087224730966824 3.0936292768196 -0.10514269267762537 0.6752593647714757 0.3866702613083147
Ni 3.7026131998656653 5.962133809381642 8.483361957284158 1.7448891877090014 -0.4361292872703908 -0.6080422434950302
Ni 1.086938318475632 7.430194298165834 12.640431718001448 0.3363707417228143 0.471048467745079 -0.6134276761766597
Ni 2.400479792431131 7.117724573701332 10.134571997924333 0.3033832310532001 -0.4825883500638786 2.371657032637993
Ni 2.2292845958100034 2.0935749784646607 5.121469677511339 -0.607826013719166 -0.6883377952219887 0.6473569819342528
Ni 0.16299066357686248 5.772333261995428 4.305631538857839 0.1302608279014918 0.3043232263689662 -0.21404228129452169
Ni 1.125243452403753 0.10942005266755639 10.655297367956692 -0.806501068528998 -0.2148488363562171 -0.6502795548976865
Ni 3.9738469375397503 4.597042714512706 10.816835589893566 1.9547341430927234 2.493532207578951 -1.1634486059618996
Ni 1.8822567771527212 7.709803226139457 1.58540033657553 0.6589025206800072 0.41133022594884 -0.486062424655408
Ni 2.505693700247259 3.590285481462887 7.1051515859161105 1.5565504818281708 0.19962044944223684 0.8617975271084577
Ni 0.4998745778813154 3.3689226167019997 4.188087644348239 -0.13059404287119444 0.5082430745175054 0.27021317205913464
Ni 6.454869534579066 7.784975892117041 12.355607541406087 -0.8649173036843619 -1.0573108963608566 1.3020115259711835
Ni 5.836654352501849 2.2696301969207364 0.61263635930294 -0.0034213669767231398 0.19566300745638562 -0.7466177619098044
P 0.8214151064576107 0.19372473677241084 -0.10064975372265776 2.112916379994832 -1.2011872581632541 0.6607917672829201
P 6.602627183152649 5.1818035096459205 2.2219583911393443 -1.7212396666108614 0.3175849764748789 0.5725270813075559
P 4.144198122735343 1.7921887007420716 12.590571974909247 0.19545526232095373 0.48480618365080375 -0.2824235980823975
P 4.606892606094223 1.7867907375589802 5.6381901669552805 -1.249092566484965 1.3775970738169825 -1.0068995337878401
P 0.1330124907239635 6.620592569210462 2.2021797717442553 -0.16138300322759302 -0.5337080515578292 0.9021628182993818
P 7.233112992878026 0.09745642258187036 0.2946861254829584 -0.7069986048562856 0.1366119669305002 -0.022485068476393533
P 9.24901109564099 2.18712112393658 11.022600938013554 0.8043976490327501 0.40488112788938657 0.3836810967730037
P 4.667308984401191 6.866867683300874 10.60475870578373 -0.7239262338495598 0.4101662875477259 -0.01678647542971948
Ni 4.125119754577923 4.022048337303539 13.007015559633901 0.10651231933164237 -1.3842382332825838 1.106432593588172
Ni 1.2073722565038767 9.232668808478435 4.092970339145708 -1.0422414036222438 -1.1197575928318522 1.7534771864883287
Ni 6.957204730385595 3.25642795098428 3.006791630953058 0.3210459384402858 -0.7430313301101268 1.0604142178765283
Ni 1.794377565537964 5.419582860376003 5.818271598156683 1.738750421801115 -0.34263446324433894 -0.4388034916684443
Ni 0.8256852477797674 5.346051842995338 0.4144170298182853 -0.39023149629701176 0.86876007446922 1.3161965592223137
Ni 2.454301751797932 2.899225620966429 11.32777320984497 -0.9071240189593991 -0.6053379571899897 0.8427878187751743
Ni 0.31115269564663545 4.4364301226886695 7.3571520654239135 -1.759822669090382 -0.01538419576555415 0.4347190371864255
Ni 6.98064227843314 0.3026226153382352 7.299161060609004 0.882632718686254 0.412174062006374 0.4990516378262244
Ni 4.315699389433862 6.228062332380937 2.7231490703534447 0.3356140660624478 0.1442057201173581 0.12551200036259672
Ni 3.328716138353718 7.6494795963407896 6.754368380157739 -3.039523190269191 -0.05079034317898994 1.9014757979892156
Ni 1.6989949996016938 2.841981241643339 0.16912968734127493 1.6653829646525578 0.6810898554103237 -1.0443509937660789
Ni 4.698055114902819 7.0769616043032455 5.263922111410131 2.1006889846907044 -0.44140750495019465 -2.7127724881346444
Ni 7.571274054141778 3.818224215462282 0.6324270360041083 -1.0450027684174648 1.437306573862473 -1.0428705525658104
Ni 3.167445032120747 0.9098906909807403 10.132291312105224 1.365367878740642 0.6874839318621256 -1.6252169339566331
Ni 7.677183575770159 3.666404182225136 10.057712236580763 0.3964985602526462 0.16513707095338656 1.3614238064912294
Ni 6.594660086289633 5.926555481597558 9.98510128440244 -0.14050538844763544 0.2627310047494765 0.6956451275166793
Ni 8.980708210829201 1.923158869313257 0.14055943684437808 -1.6584651544868019 -1.0574011420818177 0.056837063593702115
Ni 3.332222031967478 0.09600490842696698 4.57029682717408 1.7838748249435792 -0.7384311123339541 0.5905209467818152
Ni 0.1996068471688308 9.209500231104961 7.096245874149092 1.3034716554564776 0.0454650743113346 1.422820464431156
Ni 7.618214074192679 6.454748961518276 0.9348947613334816 0.5193299284592863 1.6875062789141582 0.6764279311582803
Ni 1.995400682428544 5.084185704659607 2.713211995174125 0.24251004971691137 0.09301428484520755 -0.1238353839911222
Ni 2.7997899452174253 0.10472141323705127 12.295458278803023 -0.5309590280577823 1.1518814699495903 1.1172762211708953
Ni 6.58026551780139 0.9316216664755557 2.2991436997470496 1.9673975974930054 -0.8178715151494689 -0.933850893431282
Ni 5.657371485956914 4.9865400751208036 4.638984517451291 0.6287352530680075 -0.19549100065489558 -0.5550152976760376
P 3.42282804972627 3.244417019159361 9.282788247393878 0.14447594305960926 -1.5967455659898178 -1.1042967781920918
P 3.164671851722561 5.8487302082825785 0.8453024847704136 -0.3480828879534199 -0.364294721826592 -0.6748217630134249
P 7.782647904558698 4.313853694118682 4.919165703721129 0.566694790896495 0.44371249893428744 -0.10809689020994287
P 4.0758239224161885 5.2215184209002095 6.2796889345562645 -0.43125036191153476 -0.1563097024697437 0.1274485552636773
P 3.8517713509145857 8.716783055609199 2.5354381468592404 -1.0984963694602308 0.1516367224741066 0.06294549048428513
P 6.708852049709252 4.574124558111643 11.981081645007862 0.22967767383893348 -0.3612824173628294 0.19253191802657163
P 6.070464067076668 1.5250173477315496 9.265711392045583 0.568660399263298 0.057288806419140054 -0.9337912438379403
P 0.7840495149185741 2.2072939244919465 6.936702672625761 0.127965861219728 0.18327903196973597 0.6050322530241128
Ni 9.116779547356916 3.978706959374698 12.283336048768144 0.34424371671298776 -0.6431180041522409 -0.7469936571919845
Ni 3.7094673146290744 3.670939584281032 4.371318814891528 -0.06723717588110356 0.6324535824598592 0.0173199793356863
Ni 2.2888569626914372 5.36712430408122 12.245408401268806 -0.44203305434933543 -0.43987127081132626 -0.7032602208597759
Ni 7.38970029944182 6.667987056952036 3.8938161046973843 -0.2739068188606379 -0.22906343729370227 -0.14489066199952466
Ni 2.8004948338805096 1.1814954226880274 7.537749178331467 0.17956944432863267 -0.8002484027510669 -0.21321849984164573
Ni 7.140883876223975 2.1005218417363705 12.24392813507633 1.631788159416248 -0.6212625988400462 0.0351444091116169
Ni 7.682813410224002 2.7171324746199885 8.000592059303628 1.165602933300741 -0.8657061181342445 -0.4867604791636972
Ni 2.526970208051401 7.068391642136276 4.071902515485242 -0.389965901340451 0.4769769174143721 -0.0923923349904925
Ni 8.114594815766313 0.8487369620327824 9.82392941907335 -0.4068153687976219 -0.23914858944384615 -0.9045400602823066
Ni 1.653659528744392 0.9452742468973944 2.2751162711867132 -0.6284110369593693 0.3192903892017598 -2.28385180279755
Ni 1.4617257656672644 6.736936298022654 7.732057303221088 -1.716757719580108 -0.037537077713509545 2.058482526525984
Ni 4.777837381742939 9.19006014376517 6.51066147226217 1.5066569394318374 0.8509978653897924 -0.24896223310015833
Ni 5.107289358077271 8.868380492426423 8.819144946795083 -0.5364064243255987 0.08309625440054721 1.5747312665022555
Ni 8.564925922968731 8.899441967856273 12.00702340277952 -1.2657072922235106 0.727383853380857 0.4958228464762816
Ni 4.6847920782158425 3.9295780745279045 1.9979484839515596 -0.7377554264231682 -0.3026607510648787 0.33655843225358817
Ni 8.544632549352574 7.453288676732668 8.997299063994001 -0.2797108271369247 0.1862000622712729 -0.619894771958242
Ni 2.0018096043521107 4.818730199052645 9.468204572792725 -2.5761834040222795 0.0311532856743528 -0.10732581637187322
Ni 5.8073087244755595 6.982589997107451 7.627735636054812 -0.5079556251840736 -0.18753343637071573 -0.1310432145934711
Ni 1.2993602270363476 2.31361153955685 9.165638534044554 -0.976397508544241 0.014496650954278259 -0.18643660376211119
Ni 8.343099315666342 6.228980542613113 12.392272881707456 -0.12413157507530236 -0.4642985506157552 -1.9121610456172033
Ni 8.578893848318792 8.70511529326499 2.529872308876125 -0.25746615680611146 -0.40788366216113625 -0.7901120856480134
Ni 5.222835449718077 0.3018620775701708 11.331899590979262 0.17598815473527754 -0.32119274843079526 -0.22716107806466684
Ni 4.64457632501673 1.611189986793577 3.2256298813180044 -0.6185153751122122 0.7109583608349821 0.7193756383643998
Ni 6.438657095328132 3.0297598715486025 6.112393812709174 -0.9056844582993951 0.1487614578088406 -0.7893556670979631
P 8.73981251022022 1.5201944252999218 3.2516245057393953 -0.18950213006131236 0.10154417669308964 -0.09232342942577003
P 1.22178537469378 7.572674556617116 5.795167017253937 -0.9150556151016498 0.6677406877969275 -1.1858110328174998
P 0.4205319389705396 6.229611232469557 10.369156162543463 -0.07893415260305761 -0.3198292924243653 1.3223738916776193
P 2.3492362415950856 8.609333908743029 8.740683418713163 0.005507045861158258 1.691524656044932 -1.4152197692657627
P 7.03451061205409 8.205173008972617 10.355364459359173 -0.18698527717672958 0.09259802324339537 -0.47419524090417686
P 6.609620420678509 8.144728806113157 5.634199198643109 -1.4806877690615854 -0.611844647960256 -0.21470048370381087
P 2.3486983002469426 2.945507126608396 2.2893021555312796 0.8450192792088544 1.3075815638597932 1.0787433552030197
P 7.151169685794504 5.1327766481582575 7.956433567016659 1.6953561139758804 -0.3422757943533396 0.20940041164713613
