# total energy = -381170.8220078313 ev
CRYSTAL
PRIMVEC
9.17937140345372 0.00000000000000 0.00000000000000

0.00000000000000 9.17937140345372 0.00000000000000

0.00000000000000 0.00000000000000 13.43493791403054

PRIMCOORD
 96 1
Ni 7.141165404982298 0.6445772946237945 9.69045950846236 0.31154596936965057 -0.25196579581317247 0.6140493689210585
Ni 8.107973516878255 1.7791549414737993 5.6885941386920695 0.9280191172408533 0.9263340162289465 -1.5123676166633695
Ni 6.1165915089520375 3.090161942243734 2.900119580557847 -0.8799963095046716 1.076000759460876 -0.5822144837986489
Ni 0.3358970653921616 9.159084975586454 6.709878148017461 -0.09975700288567982 -1.7362759921186934 0.22890480022865095
Ni 0.009320733705700083 3.0344890547855194 13.059135511750766 0.2129901858809235 0.32937399869000694 -1.1107517897888162
Ni 6.485042297028752 6.232095539106483 8.127666940250531 -0.44065777126836364 -0.057282121550920696 0.3693500248623123
Ni 8.050134297772862 1.9254374038866775 3.293521735936938 1.2376696693600038 -0.09983362175988612 -0.2839045535032982
Ni 6.789659736484786 3.6469642517969696 9.813066536195565 -0.3044502388651337 -1.3459480794531336 -3.8549624418280835
Ni 3.201728022073435 3.2330572166150486 9.916247260263836 0.5251365078387343 -1.4027841146055713 -0.6005850158860366
Ni 7.4456635126103095 8.436640909366528 7.617811607715645 -0.7132589839437007 -0.7392898607898235 -0.42799997329503703
Ni 1.1221781519813228 0.9144251111426112 11.649918416518268 -0.17271436908001223 -0.20280784603128296 0.37952722250563026
Ni 2.9487629054083944 8.104035566553511 9.098905934714681 -1.7249081166013842 -2.3810847537097963 0.6261975742478183
Ni 8.259882933950967 5.998810994693777 13.426568307540734 -0.8266690588364408 0.07859013900007755 -0.5952237515741233
Ni 4.82840442544857 4.497690033141142 8.756597078409152 0.28987516926443624 0.021358153960801925 -1.0788251162835487
Ni 5.125861955223251 3.1124678147125646 13.133417738820528 0.9312566503415446 -0.9828427499489524 -0.035996215588950914
Ni 5.652739514056985 0.6744699175434443 12.88076013109693 -0.8590073659578303 0.5231768130092022 -0.3743767886529423
Ni 7.273274917974651 6.730177409901236 5.2732532856995995 -1.7028465088156544 0.32147634110948503 0.02415885663439065
Ni 7.816455040390543 1.5237848295055343 7.751958941155769 0.10991003215928169 0.3137910566500854 2.275427069068965
Ni 9.067052598066907 7.125955186595116 3.9158408908231106 0.6088811944565579 -0.03404603384111556 -0.9259866601918569
Ni 3.117176832233763 5.745102348946441 10.150135807313763 -0.6572292467426423 -0.0569573912216503 -0.4868643517314132
Ni 0.4738648532032837 0.4341484670259619 9.157387709817119 -0.12675667140297525 -0.16599633362988833 0.6879426166660991
Ni 7.0635262817965465 6.145047560249723 11.21592967055443 -0.44580743379010324 0.3992031036680028 -0.43895518675496015
Ni 7.828103662679822 9.027590480476986 4.539369886858004 -0.7745517693159112 -0.7203598566545399 0.01976561266270144
Ni 3.21590097149396 1.1453101678749256 3.229261546546793 -0.8101821169250112 -0.030531850040269995 0.2486758122079911
P 0.47518484680864087 0.34292020243985816 2.721971848314392 -1.5872869916800794 0.1063128017263266 0.8371853849867325
Ni 1.3121268840790692 2.58096385270011 2.822868744781738 -1.3959976878113571 -0.19635514842740376 -1.2457449901689708
P 3.8984514896688083 3.0785224993258415 2.6277125552965153 -0.07606454436474643 1.0836325649745209 -0.13975359788327543
Ni 2.2194618487628635 2.841823228757413 4.827872021908161 0.2947623221534085 -0.1289621636947263 2.1023748570335594
P 5.176091475449359 2.3145325982112936 8.794510636046196 0.06036076047624443 0.08165026598264004 -1.1087486433158582
P 6.089374672791509 0.07930609702951195 6.13642170495797 2.0954321071671393 0.43397238882838807 -2.866369933879547
P 3.1985703183165306 2.0923550931760713 12.07237970789513 -0.17154220314878202 1.8017424492526195 1.3538858462429717
Ni 0.5739043963831449 6.326395221358459 11.195307294797855 -0.5575378069875753 -0.7015972313350561 -1.4251146597819715
Ni 3.7322314326047774 8.555036441507673 1.8818317180529591 0.44677442568906284 -1.9258992211389026 1.0706397522592788
Ni 9.102209590476628 4.323327873657417 1.5229981573777238 -0.11830776930467367 0.05415308900363577 1.4854345397179514
Ni 8.866933122473084 7.756073135411131 1.5332487614048615 -0.45901750472247405 1.3198171866940367 1.5394703864174324
Ni 6.936860136036299 2.0866271654309885 0.8335979922743811 1.5298040669722621 1.3688391251186942 -0.1567766148038332
Ni 1.662934920351218 4.119839568764805 11.224165402562262 -1.393386218330439 -0.07320522053908038 1.4494100419942262
Ni 4.975347802601265 7.683914096943031 11.839955270581324 -0.46734119409682096 1.6326155404135494 0.913530179596059
Ni 3.378871531087223 3.0000388739725468 7.289501292774303 -0.15730343384158071 0.4935990993520854 -0.4304926578099038
Ni 0.00398476511881466 4.058613161617848 6.330972973868833 3.2260191865143275 -1.0225619229154455 -1.7830371595336325
Ni 7.189871149558272 8.343507007280618 13.32788822926319 2.033762140961169 -1.1934412956692477 -1.2383286431002416
Ni 5.608265459690117 5.597222675912338 3.867058957464629 0.6766063657176734 -0.9102972744810581 1.0736186323819445
Ni 2.6028199359710107 4.722070587309089 1.7503711866176206 -2.065047067117379 -0.3252329799384399 -0.9841388430525566
Ni 3.291373763032532 0.9419136566961758 5.668576683509855 1.9444741559276126 -0.10460867455102629 1.4888787895128102
Ni 7.100546686597698 6.337098368394944 2.378911201492323 0.5339718467421772 0.06910173989366808 -0.8667643841954299
Ni 6.871989518448962 3.685737916532913 5.138098057281256 0.37300227690291893 0.31017531427436906 -1.6846847503049631
Ni 3.5478729376813183 0.014351947162558675 13.15981761092767 -1.1636005581587316 0.21115493244439765 -1.7204739920894305
Ni 2.5742261941025295 7.70107034206412 11.4507719542914 0.06361654840938076 0.157987861503115 0.14210821415838107
Ni 8.887696860549008 2.643356040013133 10.483362593569634 0.5032476781854429 -0.41158065139674915 -0.5173609776583735
Ni 3.9442932703722415 6.407118613330025 7.843504811991839 0.6724728031652741 -0.8313662072017941 0.1784186185536411
Ni 1.6880955773212045 0.28204536521699897 1.0717788133845665 0.5579232153514521 -0.02746375263790754 -0.007889944271038025
Ni 5.122236103525642 1.7751986324062823 10.822178699062658 2.3930506678224206 1.0428651532491717 0.7220791533384919
Ni 4.639006455634004 6.858633533081822 5.539708406554022 0.7055423320257332 0.11711709143068218 0.7845690443425972
Ni 3.5166906130818862 4.564488318719612 12.919613656363934 -1.975215293765211 0.8388982539127812 -0.5785552897795068
Ni 1.8205355476834664 4.9294509456695135 7.815412263801053 0.5991392845784456 0.03297954024981417 0.5077581644612869
Ni 4.888997455969869 5.139052711905436 1.7338997226019537 0.4381193211172261 -0.8320205529563413 -0.2718028851437577
P 1.1690663810228 6.57568858946896 5.474132813244212 -0.2907956241961766 0.361447482185784 0.6784860992388897
Ni 1.8343321428771509 7.0615343582057095 2.35885243913887 -0.3880020927458608 -0.6510544853904981 -0.4904880645269294
P 1.1560224942827961 1.8413635413590952 6.643549846253972 0.9430916953032596 1.5692180499935104 -0.5603176837255576
Ni 2.7285681445926233 7.841872719759347 6.610661076513817 -2.9586059457978338 0.2766825818335622 -1.4378207944947303
P 5.486381766422159 7.851217319830652 0.8954476787384706 -1.2677626320906423 -0.5662595031312893 0.9303752761778556
P 5.690007761885567 5.0032439122443835 6.381783548303698 -0.6132690391116083 0.7483339732699628 0.500716427123157
P 1.0975131810661996 5.16215718968488 13.263736356455404 1.700568511414755 -0.19615820192524927 -0.5943639746769893
Ni 7.337741643220989 3.9335717645929846 11.748275380923012 0.7428307840635465 -0.3097307705377827 4.103751639685487
Ni 2.9477256364417364 7.949675257320644 4.092778781917844 0.6645584334142038 -0.14675316912956016 1.084616011933713
Ni 2.8225465488460775 5.312368423051116 5.829607641929182 0.3305075980738179 -0.6187182351516377 0.5689432206110395
Ni 1.1205166857603934 4.695165849775695 4.174531181421818 -1.1598758010089765 1.2479792788161281 -0.8465807101587032
Ni 1.424408954876906 0.4173722478802681 4.637969186667347 -2.32014832323574 0.06989389677766028 -0.5558509062034556
Ni 8.875883009574775 0.8168309525000735 0.1604939651932257 0.02477309317962185 -1.021449920798189 1.071332150340613
Ni 4.98207628182746 4.408852076864044 11.108987240092032 0.21039157191581184 0.7497038570342959 0.34977338828196536
Ni 5.605511648274212 5.964314917023873 13.13478821896851 0.4747439143187953 -0.5995295780383288 0.36727874415558037
Ni 0.9053090774188267 7.430031043139355 13.143372767089025 1.175864463127749 1.2522722497645271 -0.1761676177359353
Ni 7.397187252318994 3.727054267142876 7.30599937696699 -2.8389974554038657 1.0554815564616018 3.3200475144463466
Ni 4.4861607426798855 3.6608893581900626 4.946905520360659 -0.35223547666921273 -0.4010779520932125 -0.1072067742955057
Ni 2.7015348958598215 0.7958257969566882 8.075082911263824 -0.5720128606752987 1.7846389568031138 -0.7606055915484643
Ni 3.1617518596858796 6.658642568687409 0.4423327945540318 0.42219107992274385 0.716018806077025 -0.6822687062097733
Ni 8.585915846851355 6.141908215235592 6.984178877595797 1.7917043482903272 0.899044070164742 1.242722401292563
Ni 2.457051518355768 2.66579960305276 0.7299711507567339 0.4472819614531006 -1.3623360338928538 -1.3033058193025748
Ni 5.525100354929784 2.127383574386384 6.576616623916121 0.3076188664011025 -0.3451204628909863 0.5476529437736956
Ni 5.163827835277196 8.609231450172686 9.552388911691711 0.7002728560966779 0.6449789686203795 0.5039824994689384
Ni 1.2360023571720662 2.8722987417600963 8.554146042483199 -0.7320036115410555 -1.1392414125880765 0.36016887258367647
Ni 6.859891106961752 0.1696476343396942 2.2344315676197235 0.05833113164072535 -0.7998611946149773 -0.58019745336862
Ni 3.2433931887960794 0.7272375339578788 10.555951226618618 -1.6509608756899568 -1.8988576436400784 -1.1657679981236955
Ni 4.764323233800458 1.3617322070509064 1.4463109350047378 -0.03481042281096586 1.1255556875708679 0.747364410267842
Ni 4.651903472431826 8.659057078057794 7.356246337998733 -0.2360118435870774 0.08937051744503319 0.528917057927089
Ni 7.487282782476021 1.3521305845807836 11.881039383095212 0.584152067140994 0.7129028861558625 -0.566134804627967
Ni 3.3131564113323413 5.461863665449217 3.6275003127093526 0.7207403799224104 1.0887089510561636 0.5191306679642865
Ni 5.307558432444668 1.1807333620548512 4.194199820491351 1.361397324128668 0.09074142965063083 0.7136701033391902
P 6.945653973824423 4.379826904540404 0.5222135202323293 -0.5158278288432987 -0.9356192981856145 0.8748276208195386
Ni 8.857606881144552 4.651297633920327 9.073070593947797 -0.10362419915056993 0.9534717529860032 0.41999021561668315
P 5.138070519167097 6.585051548283038 10.119006723068372 0.33501936990124237 -1.9877717902739829 -1.7783790919363307
Ni 5.512230876246121 8.051465306623882 3.683322823921164 -0.07064748711423317 -0.685879049268851 -0.04019559838227916
P 8.273394968631674 4.1329752492186715 3.5626232695620446 -0.10678459915642254 0.07767791159845332 -0.1512274028508299
P 8.621283964802963 8.62033848955017 11.36802634680342 0.3006385784285274 0.1810426864400495 0.06170776142244211
P 0.9870486258028601 6.514710025349436 8.846839478508363 -0.27263797945054336 1.222928249384771 1.42239648951986
Ni 8.152704593643941 7.371925622263757 9.615654057223576 1.011412076946213 0.4940053336515686 -0.9092804031807695
