# total energy = -340896.2466382182 ev
CRYSTAL
PRIMVEC
9.01246845560825 0.00000000000000 0.00000000000000
0.00000000000000 9.01246845560825 0.00000000000000
0.00000000000000 0.00000000000000 13.19065857906132
PRIMCOORD
 96 1
Ni 6.281609338648594 2.0472092266643958 11.387284422401796 0.18999398209606633 -0.33117659911638453 0.3540501612804483
Ni 4.35311234529665 0.5020089079165563 5.933593773955533 0.9051514686140605 -0.25677015918035134 0.46482922630824464
Ni 2.5788817729596802 1.5288841460186517 4.604489915445266 -0.4277294932424698 0.9587772243593164 0.8293928855255072
Ni 3.413472393493108 4.134253563505002 4.7817056859065525 -0.9201898510044216 0.7197682458171282 -0.11777889338439716
Ni 5.167298737450228 4.209138163155258 3.0393251767738203 0.7688536904898694 0.5457122751075569 -0.5292083639152627
Ni 7.284606943062714 6.27821163807474 2.677782798310742 0.17294576836452796 -1.1890092280398232 -0.5074743146722809
Ni 5.094496017992439 4.613734905494759 11.553723984438264 0.0978243046393412 0.5351825792208267 -0.41741422735939077
Ni 5.704694201157705 7.756463736815124 12.302953912093194 -0.7674159296020784 0.6038464602461278 0.0630269944544979
Ni 1.597703354458819 6.723986348376934 0.3864681622219795 0.9942849303476232 -1.1904737284004916 -0.30372158822922535
Ni 2.78277084479597 1.6731196897426484 0.27484423527911767 -0.8295312108755843 -0.1439784345979004 0.4853222040552738
Ni 0.47951829311005584 0.028105382598305632 4.796770026779751 0.1478379175533067 0.0729203423088099 -0.37896672201646986
Ni 8.44674671387763 2.3219002499812977 1.2967382821155138 0.23171964396962674 0.7875414967073597 0.4355752145391337
Ni 6.750834491638232 0.6702022962969826 4.896029748371766 0.02364874976719153 0.7600510045965749 -0.8564074664411379
Ni 0.8893584895446972 7.419884093231246 2.77239929620077 -0.17536414799803346 0.19609058191210746 -0.14312765656183093
Ni 7.669177980693723 3.9856289476869295 3.6666867046946456 -0.21067387904292106 -0.7942459053107289 -0.3070768778547034
Ni 7.335527389328684 3.9064904629680837 12.474366554173836 1.3274248238379656 -0.181705516835029 0.7971060004673434
Ni 8.055010763895922 8.716165443200621 6.926256780894752 -0.8698273393914696 0.8077128294489121 0.12201452873229954
Ni 6.781909482563021 0.5960450028438358 0.39804557908450416 -0.7038091513847105 0.09813695078375356 -0.09760113288494157
Ni 1.7214265201825774 6.399807861264203 9.20690786441327 1.029725273433104 0.4655619907092111 -0.5999856917391408
Ni 9.021120335289403 4.813288980047167 1.1681591984363389 -0.05620251533349675 0.07339419662143488 0.4090771682486051
Ni 6.542988946189418 1.8812446217107972 7.045407921416612 -0.941290894649095 -0.052798631858270356 -0.14942763063792974
Ni 3.455894082090262 4.463037421952585 0.3391842469415528 -0.22773674806247876 -0.0005563867241022675 0.04852442996294869
Ni 6.1389329519518565 5.480725349802728 4.9314199091500335 -0.37888701781847006 1.1416772757230789 -0.14981226767085812
Ni 5.137909078109815 3.0025128484874517 9.300601485542652 1.1554151941344617 -1.1623844263634435 -0.2623042016247031
P 0.20611425027577038 5.703225168814102 12.213098701240746 0.038051298345766725 -0.6932840834836704 0.31544376176215994
P 3.9732548286208806 6.326320194210625 12.536283113092745 -0.1861069883368343 -0.720279638235908 -0.38798898011973826
P 2.3195209583327636 8.42044833118664 1.4430971633864593 -0.15127573959026205 1.3839829227386682 0.4460581163483286
P 6.529235919463423 7.741214640340429 5.635629853577991 -1.346052466241482 -0.7010164191309217 0.5870599848164082
P 4.6874749216625755 0.9554928836587349 12.570367367204828 0.9704153228188772 0.3107137032763423 0.5118307918687637
P 4.142499972059579 6.2332213959933735 8.042146366550782 -1.275742050751693 -0.26831646925705405 -0.6726556086000416
P 4.588049370652633 1.2307967548245011 3.721876357225428 -0.2123702929087375 -1.3960509096467957 0.29716964604332047
P 0.3768843033619383 5.431913821134323 3.4166709185160804 0.012554439626242893 0.07206339362515331 0.35065039157028
Ni 1.3252564357649665 1.0847226675539103 2.4796454837854163 -0.1299741498990084 0.6794829159345201 0.37657508185584176
Ni 2.040873461403338 6.329023934720323 4.866416579815886 -0.36558078762786717 0.0886889179969763 -0.9307030918309197
Ni 5.895217782407722 5.5176674576335625 9.084432925558152 0.9767106689092856 0.526403804586932 0.15416463110228287
Ni 8.60035522470191 2.336707735506074 10.214516247643258 0.537956285311222 -0.3550256378198402 0.5148970894989132
Ni 2.508205996036187 5.102264765723636 6.915360706640671 -0.8288730084662951 0.031169226513952774 0.5470315081396128
Ni 0.6919610986721916 8.909978575404104 8.984381909243634 -0.007204231057923075 -0.5133526278299289 0.9743714792531476
Ni 1.6400078809672194 1.1755773611481122 11.27297387863913 -0.7187287488090203 -0.9335770709446052 0.7176270311044093
Ni 3.929039658818961 6.768147443368661 1.5383337191000446 1.0365104146757373 1.0592428232762467 -0.16182446164038583
Ni 5.521984429980713 8.023944785439499 7.950234510417289 0.7348930172737086 -0.10145135986896721 0.037790588485212336
Ni 5.111565633076995 2.7247035111160325 5.1405974974232915 1.5236488460041437 0.11433875735459664 0.08381539195475887
Ni 0.7354895183846484 7.281452579134733 6.8087801569952315 1.2042293874236873 -0.9468390781608338 0.2029222601219602
Ni 4.977586278353119 4.516409259614014 6.9276023424217446 0.1430952606619987 0.25953358085810146 0.31367664255940814
Ni 8.264307316751607 7.063278744938875 9.285788592536855 -0.328868262698182 0.029511122085239497 -0.17123701320353735
Ni 4.6610323394777335 0.3170883782494682 10.442424448920864 -0.1309398562463874 -0.6082211922750558 -0.10666555708005501
Ni 8.300600526860114 6.9269020736297335 4.68683864139596 0.39770877851066344 0.6066646464212132 0.3400844431289756
Ni 7.362745043792972 6.324589800284419 7.082275225760011 -0.6024464945748076 -1.294524987786151 -0.12386572300842538
Ni 2.495237054058005 5.250528882807083 2.551257656172101 -1.4541151607793796 -1.2778130743481089 0.12457457614999191
Ni 2.3723610603606184 5.226465592270774 11.2820359155808 -0.35283942880179875 -0.1611292353455741 0.8429945354693417
Ni 1.0327027001473301 3.352331808100482 3.8727901400083775 0.29786898610319024 -0.2855235771639599 -0.8285289948633151
Ni 3.6045186979083343 2.685967922080433 2.429363120279735 -1.519702459761886 -0.06005968429605785 0.3699755742614531
Ni 1.1735315308291079 3.2199656852140572 8.36699267756941 -0.36541495147396424 0.31291559602366753 -1.4075195724080276
Ni 3.6295733599648643 2.553106113433897 7.118088071304627 -0.46613868914828754 0.517539926438399 -0.019605175825437204
Ni 4.179766528751577 7.09521893282677 5.787401623349352 1.193321482261932 -1.0818944992374915 0.2851381688000831
Ni 0.8326186924550217 7.579639107480906 11.23625167503642 0.48995224662811754 -0.3432700399458088 0.5373181375065907
P 0.1818247467834845 5.4562474857216 7.993341146610232 0.5819450321873462 -0.330697859707753 -0.09315003909212345
P 8.5494978657145 1.4508001200985876 8.041830028911148 0.24760957572700582 1.4705740776663514 -0.09307804820360745
P 2.065071938965131 3.052216611524058 10.308381105671591 -1.1466207357712832 1.646962038943209 1.1747594029890285
P 4.193555605351034 6.029206149599966 3.699399261121476 -0.6035258436819154 0.2659428268185549 1.0011312638454954
P 6.905118937589937 3.984682638508536 10.314620437521135 -0.5327544293953083 0.10426054718298818 0.8193151895745309
P 6.346625285438453 7.711266207961347 10.079101206708732 -0.15614540897773752 0.5043943901953766 0.06476377463994652
P 2.4250389379578916 8.379901236009541 5.75642937456393 -1.255725241310134 0.30623535579001454 -0.7992618704680815
P 6.783495676995377 3.9814381498968987 1.549955297057561 0.7644915568664318 -0.3382651305320497 0.38865823827262097
Ni 5.14022528247979 2.8399639690444376 0.6314576947930172 0.6321501922868275 -0.2652704833418786 -1.194099240968221
Ni 1.5495136861076437 0.9662447584189653 7.046898583684292 -0.37207539421327535 1.154057908775619 -1.2562160649036236
Ni 6.831405958827217 1.01476788809967 9.269748201339656 -0.8243118714581739 -1.5834105394438085 0.0212113439702925
Ni 2.75916719014631 1.408396456438165 9.142300182440373 0.3406557422514133 -0.3546656833772602 -0.15053551899012785
Ni 6.250741634496214 1.8781172951879135 2.584287451485402 1.020017816337353 0.3717234101904953 0.2615711801134205
Ni 4.189734318763995 6.748788661319227 10.279849433319589 -0.3734689321266923 0.8365593213669592 0.23442393027466724
Ni 8.241172310456962 7.2506479622609135 0.44951939090812537 -1.0907720042327798 -0.6135773143806466 -0.41309477404843054
Ni 7.630126955265324 3.6763030084408035 8.359619577199464 0.41703961762879144 0.40253859579913903 -1.613519700124363
Ni 3.0570653195047823 8.428965113792186 12.544671918647499 0.605310446386164 -0.633323129549006 -0.7842042048040107
Ni 0.1435307686978021 4.704877998076662 10.16212316404634 -0.15151845172868744 0.30986138257837603 0.43794680009510384
Ni 8.651906543753476 2.234506344239508 5.769580368403099 0.23244109551668357 0.6272262726226489 0.2637393914093329
Ni 3.8392213990868096 2.6878515279688555 11.485514920106453 -0.6239082639930094 -0.18760619859018013 -0.32656558270693437
Ni 0.956069681634137 3.2953459706244237 12.395894992114048 -0.07691403684923527 0.5180991413759787 -0.22201424375640474
Ni 2.9831901163114805 8.21545973820974 7.879175703588255 0.8650409737464199 -0.6440939949122649 0.5216665470122629
Ni 5.488052486584009 7.870624673602918 3.620453643225655 0.3342012448753212 -0.021839207362278516 -0.15355193721894847
Ni 3.134392298082131 8.466655256497368 3.585484364720064 -0.32302285966099853 -0.8811291375575341 -0.08682152577093434
Ni 3.440302511817673 4.3959215700335275 9.217091052419626 -0.7629928608337182 0.9514554938869226 -0.4310307897015609
Ni 7.224493779063772 6.113301491919924 11.345641411071435 0.42290044728494264 -0.4160715972885673 -0.0988152077977008
Ni 0.42265502520377096 0.1959283585289033 0.376366086430913 0.72147160166148 0.2674052702966943 -0.6917452782416409
Ni 4.412531549231436 0.32796282257947157 1.5963469779697874 0.5622380406767221 -0.4432679551977011 -0.26645113391354114
Ni 6.096168789556807 5.678603105239123 0.45888604928055415 -0.6915650439100347 0.3893665771935552 -0.09146262408737152
Ni 7.91670542435653 8.817699911808127 11.295081463540091 -0.6213993815282266 0.43303650727768 0.04362904954386035
Ni -0.02576033832956132 4.8733120193624515 5.710500033278862 0.2131912461481361 -0.694970470047158 0.8861834121519899
Ni 7.82910423184233 8.789274586582842 2.572903802692739 0.3637203373803607 0.2719548373405897 0.3085429208772686
P 8.279943949366025 1.7345306491862444 3.588228661337407 0.8183068029146745 -0.3894714782025357 -0.07911927203067019
P 1.7871093896314953 3.306647605954959 1.3055155250568284 -0.760345138798226 0.014028453068608098 0.8835647435822203
P 4.694369459962304 1.0364879368609066 8.296133046291256 1.1208284572985279 0.29599053813355475 -1.1705211965379647
P 8.300384227619338 1.736152893492063 12.346245303887637 0.4732950976874107 -0.5046849248526019 0.051773018807233416
P 6.228805286494201 7.664572609358871 1.4380321561649594 -0.23690530193562429 0.8405064789401653 -0.2740839678684506
P 1.754511291552909 3.1336172258026846 6.0154152705068356 0.023024743029947444 0.034955690139578506 -0.04183056288254086
P 6.910183944811437 3.8795341700863992 6.154708376579105 0.555201959765547 -0.3788391952996701 -0.5707867015776815
P 2.5553682429936773 8.406857528891226 10.168071393167676 -0.3618210634751188 -0.04984700542911415 0.22989236095290086
