# total energy = -381181.2829267983 ev
CRYSTAL
PRIMVEC
9.12901684961056 0.00000000000000 0.00000000000000
0.00000000000000 9.12901684961056 0.00000000000000
0.00000000000000 0.00000000000000 13.36123893458099
PRIMCOORD
 96 1
Ni -0.2511593415049844 4.986469923726041 11.57016544238052 1.1519382913294547 1.2104216322773282 0.26839565923442166
Ni 8.120160202234903 7.867505527745332 6.773279640495057 -0.7387573853251213 1.1085496399311747 -0.5140437403596825
Ni 7.159787613844139 1.5158824018524206 6.444018819850723 -0.6703287602390778 -0.4440729675974997 -0.7493022507205032
Ni 2.534050796869628 0.7400172889485827 7.6323137498748945 -0.17289280363940546 -0.020807166553338356 -0.49793500772327787
Ni 3.134603180208852 8.742631355390916 5.352538940914021 -0.18956357942686708 -1.3364555665816662 0.37176686183392105
Ni 2.762203189731434 2.847039144711618 3.2597282259147486 0.1842874186295923 -0.5558251951718427 0.2997903714956192
Ni 1.1148355560292778 6.647028986993071 8.800179765656662 1.0398371650561251 0.5751218386179257 0.4312447054845798
Ni 2.0773625924320207 1.6738417830019012 1.3009935577897873 -0.5640403839927834 0.4395090023759011 -0.5267164507313445
Ni 2.7250389615247914 7.924105433144788 12.349191933871428 -0.4548913983692424 0.0939545372712898 0.5946390827152469
Ni 7.079269683904913 3.6671352578817302 11.072178477937012 -0.13924477656765696 0.2325549953867285 -0.6999036456827172
Ni 2.14085490566641 1.8785873762759322 5.473324964839859 -1.0502809860972686 0.1808699083076111 -0.28838778608563237
Ni 4.3120729218745275 9.084430880884629 8.873559717203657 1.7418264896232774 1.234558634534848 0.09484825273015278
Ni 2.0429553273593513 6.668546080061863 2.5658124728157228 1.5362374813024318 1.577641241060199 -0.47886127892127855
Ni 4.670852418988077 4.261361232440016 10.592749892152622 -0.4149269421611628 -0.11159230495771105 0.5003958105589446
Ni 7.087558831340833 3.0198423075029557 4.409783529529688 2.647927723745117 -0.5367460670532046 0.8298047762519452
Ni 8.592532057878358 5.0088360153758265 9.155869090515742 -0.49877575845701844 -0.7452468497042067 -0.1887868491618426
Ni 5.103823437259913 2.9026713743090826 3.6182238105996007 -1.214511743186302 -0.716844901522746 -0.004984083478152707
Ni 8.406793077998145 7.560149783392289 9.90654359391002 -0.31840952925870325 -1.0192092043931285 -0.42085719160266877
Ni 3.6114665122162655 8.542669367024839 1.9128084094018032 -1.0803608362017845 0.14950939171845865 -0.682533786945702
Ni 7.672454950525209 4.497181999581747 2.507610424932782 0.045890848994843546 -1.6560922833792509 3.5225475994292235
Ni 6.302691594773382 6.01179546807118 10.112039592381445 0.2059654178236582 0.037240115298381025 -0.4288479231176292
Ni 1.7610421533850626 0.3193485339858286 3.492814852465007 -0.07533563661852187 -1.2319682480998524 -0.6748677857600119
Ni 5.976712655740517 6.666985018154879 0.9900464581489781 0.6915740427710992 -0.6522806444881153 0.8443572201448232
Ni 1.1281547918321497 4.194025603048663 5.921687505773547 0.641758919021185 -1.0590659313787503 -0.5040604038947254
P 9.116263763163323 2.3425148911944706 5.545235144649867 -0.4203581404790631 -0.3235522498019073 -0.5755051900992734
Ni 0.4830172023670545 2.226996310077581 3.2868112806483887 -0.9695645447828074 1.3297516721989293 0.6880071513554474
P 5.683059565904342 5.046465823449465 12.471474203683552 0.3052308257849001 -0.13511249956683827 0.3482469243351099
Ni 3.5717005141646485 2.294121972077936 9.609898012301274 -1.3555220962948138 -0.25702624105521543 0.24210175853489915
P 5.552843267417594 1.8818829514129005 7.8536695895802655 -0.9360309318017362 0.026401887032296466 0.23982221847210314
P 4.456840873459135 0.24896107421140556 13.430316768825131 0.6510187470565562 -0.3178395156878462 -0.4584261509953782
P 3.4258005644720515 4.9647885083512495 2.9169318117646457 0.8927471814124367 0.12380633052539969 0.5818239332284496
Ni 4.526823917780462 2.0641802918841474 1.4284501544374615 -0.7368084891288665 -1.2581245947802462 0.910939021830115
Ni 5.844679682870788 5.200673178611981 3.8834710511388497 -0.0877851752357843 0.07578275145826949 0.88519585142774
Ni 2.753950558363513 5.366346579126388 11.943371525059032 -0.7930148611171052 0.39667776614298783 -0.7537610578228051
Ni 8.00803761544198 5.148546491542483 5.040206969394325 -0.7545629848988101 0.1891306056545065 0.2115650233986227
Ni 0.07396877314348858 8.4634751445506 11.951615027409952 0.36065712507400466 -1.0656253297638227 0.15623359781616963
Ni 1.9626382357941239 4.11316077046344 1.4350906014031977 -0.2883685028119227 1.2031137857620053 0.47617190501457346
Ni 7.290825523860878 6.910108998896541 12.132673560274311 0.7413418582228458 -1.0093364253641068 0.35858661569822115
Ni 4.3772723612879005 6.975335825360912 3.62144361489547 -0.6092105527715186 0.6111864455509668 -1.1127297394507931
Ni 6.331146740762109 8.530473000312956 10.574098397520101 -0.8803498361893484 -0.17737577911142355 0.13605763708892699
Ni 1.0800174851916127 3.3377146794398986 12.872391417465296 -1.3893344168585686 0.404428099512368 -0.22814143970006517
Ni 5.2501615797685055 4.339131328262267 1.6811112192389315 0.6004400056677401 0.13083495523740693 -0.4437904033600744
Ni 0.26104332821078935 0.8575552086258522 7.197485889545277 -0.4253021147478998 -0.5049744310685625 0.08942451061142018
Ni 7.980477113119245 5.235226507956648 0.6267435331119722 0.69095569246081 2.3820049515312203 -4.240048903589046
Ni 1.1172456165172546 6.421359686755241 0.15175712699974042 -0.2512240325511415 -0.6874708192360031 -0.16954008511708865
Ni 7.137394135143354 0.2311129330748772 8.51856511053827 0.034374877935444026 -0.17075313158858332 0.03641504829392438
Ni 3.6903594771295074 5.935604692189912 0.7608889605154819 -0.6680366217707915 0.970045083963652 0.6225676908047149
Ni 5.875453599177491 -0.26173439479768273 1.9282410126401546 0.8266528608865247 0.7727347707118305 -0.5094250106407485
Ni 4.447848791714222 1.5137827279424407 5.726801250859421 1.1324346740788884 0.8692714668879996 1.066825520719511
Ni 8.378666576621416 0.3512553613022217 2.4824919346575243 -0.2714771263732228 0.12961085302231873 -0.8186811555349578
Ni 8.598493305979302 1.1532322015309084 13.433924556343495 2.09038271766869 0.4187290895160724 0.08377836806923636
Ni 5.4051996754780145 2.1143898853836642 12.632263580103006 0.26819074231246715 -0.48194171761881505 -0.779156100857142
Ni 4.604128433735719 5.333829020572701 8.036384126128409 -0.5979997716573637 -0.051707969897252876 0.8109439347917
Ni 2.188362310133953 4.634327221971428 9.489031653025837 0.7964002326495704 -0.100085332759376 0.060287741146463916
Ni 0.12859954957606315 5.97118047143857 6.938451857976167 0.01957329414623726 -0.9586972630510003 -0.4216771164008028
Ni 0.15408228762961806 0.6777601317142815 9.886715368986211 0.2266990508265838 -0.19809964192233626 -0.3456225993383854
P 6.7507437491290725 7.192889429485821 5.03022621510832 -0.2159875779463506 -0.544754796290294 0.25014776876782724
Ni 5.778777309148421 1.8518576145001893 10.27782619270665 0.5296809326763072 -0.4426622032929022 -1.2438068926059933
P 1.416942115607372 6.875975604333869 10.937577512585205 -0.40688144614886695 -0.2178300304717281 0.21368824038921264
Ni 1.3090736507364096 8.658461818651725 1.1196438092831316 0.27401017720772164 -0.3251450482103239 -0.2308092163402154
P 1.1369825512710647 7.972169707649326 6.539645272924803 0.6315740080683834 0.6144532892276966 -0.29401901622948073
P 7.757007905978395 1.4476703868290766 11.156608191660698 -0.2731583707303876 -0.0702566794337177 1.037125165441601
P 2.6371539148666368 5.024921343329671 7.321999291112179 -0.8637567077173576 0.1509641218871142 -0.44576346792604515
Ni 2.1957568139038814 6.31531702528426 5.459869706683689 0.4311562595358316 0.40085837988323864 -0.24530278197070016
Ni 8.597388694922312 0.30863015512623165 4.684570592833845 0.1885060846966302 0.025228435549485582 1.4519788311626671
Ni 3.3159693609461076 2.878744220752313 7.345701870850751 1.7264222392530653 1.3935651671104647 -0.002430978038995813
Ni 8.08301423206226 2.3955544799639603 8.84719785481301 -0.16441124853095557 -0.4968060363251573 1.0159994392065792
Ni 6.831946355343292 9.166537259781839 12.86373345774258 -2.2373706285168757 -0.4035472395693115 -0.39502480392059713
Ni 5.661049505917553 3.8916725600115707 6.178316954264878 0.9882965739746721 -0.157066121019794 0.7923533162737064
Ni 0.13096761658584039 6.933515798484316 4.182107671355277 0.18363307287504504 2.2135069345254004 1.6245049954912734
Ni 1.5822320974077824 1.0669173457967387 12.12223818094171 1.0186289064096261 0.3630546787719038 -0.3076885432967733
Ni 4.993252783356977 7.215246392118605 12.420687656309642 -0.9346947294888159 0.6745150304062836 -1.7473193944170486
Ni 4.646541846717311 6.435947855921101 5.815225822422271 0.773369833192668 -0.31673934064513193 0.7706740315280598
Ni 7.3300802969605 7.249918398684272 2.9005379230362034 -0.991359529170712 -0.12133164373266199 0.7340646078351423
Ni 3.025474910991902 7.515636696500716 7.611496852409995 0.6103780907170585 -0.7952506924261594 -0.7874281110579471
Ni 6.770416780763884 5.882501200301424 7.356898610201143 0.6069988898321805 0.42217488197282776 -0.24890464038934548
Ni 7.412506191452708 3.1482419316067207 13.309958895796589 -1.1597696144484155 0.6061026032701561 -0.7306393842036772
Ni 2.1935841078579026 8.683657905571483 9.653147643240057 -0.42260117087696897 -0.16174450033206983 1.5740514668264118
Ni 5.842150945161812 8.576081569244517 6.602376226141399 -1.1534447006716524 -0.3516438658318008 -0.5042527224111897
Ni 6.296657314536441 3.788341216589565 8.67547921924126 -0.6882493492732404 0.5407153361135979 0.017386828017879732
Ni 1.0433462239029654 4.911812822700759 3.6242891294943425 0.2092114355647816 -2.650091307055339 0.582120895643578
Ni 1.1085182762653385 2.9401459890937227 8.034500809921326 0.10880985711656746 0.19053134265677507 -0.19006777275679526
Ni 0.7398447505272843 2.948617716869641 10.332807523392022 -0.17241946354741272 0.11209778383921984 1.5270637852229636
Ni 8.332975846536856 7.8940983542660765 0.836679885452153 -1.0896623161083685 -1.282891517312281 -0.5269789603641117
Ni 8.084630068071244 3.6208420126751752 6.968033524662683 -0.18102546004886888 1.7830315031066775 -0.46616337173863587
Ni 3.819197294049268 3.741701068737013 -0.1487573320135693 0.18980757711687313 -0.25304385936869966 -0.16832935263843915
Ni 3.6807101061606 4.002763567883503 5.1497159186201715 -1.6648864846321134 1.1995615496343728 -0.36549157034817054
Ni 5.993555692105355 0.6331511901442105 4.261340235700915 1.1382852193223945 -0.938907482018583 -0.8804220841881805
P 2.6851999313371744 3.010859354775042 11.547931721477235 0.6387304166075064 -0.3705268187792329 -1.8671569701026878
Ni 6.814774674366458 2.164079124914186 2.100654366405596 0.44576758169110325 -0.39846673972261054 0.180605856012947
P 0.03686114484224548 6.172904360085631 2.1782957430881495 -0.6433884842048081 0.5267267351439897 -0.9023862471640975
Ni 4.081875629204741 0.4773143054472093 11.244097038981058 -0.39500037844056485 -0.25864809292935453 0.5782922659261073
P 3.877020487726712 0.791039364961092 3.5776188558856914 0.7005237957652194 0.6425312784108353 0.22884257953214782
P 5.624697760223903 7.4640486214342125 8.559757973946974 0.516923890120955 -1.032476610925996 0.17546467813163974
P 8.914147326785265 2.8747639693403513 1.3713572821200106 0.9888452473892906 0.3092476602537771 0.9098936112847362
Ni 3.7251866769841717 6.683691119264719 9.883481871164841 0.25143537723099924 0.3314527355959066 0.6399344642179365
