# total energy = -340896.3050369773 ev
CRYSTAL
PRIMVEC
9.02658156698367 0.00000000000000 0.00000000000000

0.00000000000000 9.02658156698367 0.00000000000000

0.00000000000000 0.00000000000000 13.21131454413161

PRIMCOORD
 96 1
Ni 6.347302567921432 1.895943182839956 11.37672513631746 0.2106427686946695 0.31987634361221684 -0.028700967479118312
Ni 4.7156035325508 0.36597823451082934 5.894466052717032 -0.5558521917550362 -0.5624874376833667 0.27811134386028874
Ni 2.972669933086963 1.8672747599267028 4.836583194054945 -1.211186792578127 -1.1978623075550792 1.2864414394470685
Ni 3.4412217267208254 4.425588494836721 4.899416325370079 0.1941198313389818 -0.5724365784762786 0.6983105901639844
Ni 4.926852619905605 4.681546240469029 2.4565381255935135 0.6873602618000678 -0.21280712333583998 0.3538850964574938
Ni 7.208772428617951 5.938244973097786 2.55508131606706 -0.4403834345610545 1.033326617631117 0.1256528968158352
Ni 5.1638455177606 4.465901207913103 11.61932444395565 0.2050745305782726 -0.13680479966759665 -0.18393183506238647
Ni 5.580873584067999 7.883202493601145 12.310448268805269 -0.40656828578382237 0.10460301812407145 -0.15081551212439187
Ni 1.8709034456984686 6.362530410948716 0.5954276181880513 0.2374316067527395 0.49727577687272423 -1.7405247400927186
Ni 2.5890853513178524 1.5671770306527684 0.30639557520169786 0.3050467347985521 -0.686866867103417 0.8185289462278097
Ni 0.45904860860770585 0.2516619954860801 4.915877199433243 0.5332786773298945 -0.8809411899164441 0.1452696426054982
Ni 8.628400957715291 2.2355592860163536 1.3576339672055835 0.20871521265465345 0.9601998157384561 0.6036639119216765
Ni 6.938724189230106 0.6402111970921833 4.838763113492461 -0.9534619827939903 -0.16761998527624034 -0.16577290476517256
Ni 0.8702789016036487 7.298532755270781 2.505433312380828 -0.15969713088473786 -0.1056869952168696 0.10115902543952901
Ni 7.5201082518865325 3.8191827482018508 3.8268418026231026 0.3337122210540447 -0.5448671534984423 -0.9790778835898817
Ni 7.459946086043701 3.641268826407071 12.660786145513269 0.8814505254526949 0.9916680615500663 -0.05952618039009103
Ni 7.922666708014478 8.628085027362028 6.971835495568391 0.5734657910717414 0.8932482894185713 0.4469742004046947
Ni 6.841020470838086 0.6767309406131025 0.3598275218618713 0.05990850343017425 -0.29654641063702475 -0.5807008753676
Ni 1.803980370295805 6.398356913008762 9.25627010989271 0.4753897754329103 0.10239495472915912 -0.40740800807629834
Ni 0.09682452935179524 5.024601471205234 1.381493930142171 0.014166264198053021 -1.922218944073838 -0.16828127300932308
Ni 6.362756075486762 1.9305872027206443 6.965533136349867 0.7344376749038448 0.101578886585767 0.6080031627269787
Ni 3.3736126311225045 4.097950665339759 0.5479920296328129 -0.5202115597332911 0.5768154242702647 -0.313996230682356
Ni 5.980877517625273 5.622350726160693 4.761080352915806 -0.44938846627314216 0.6968090659177935 0.05137938291324054
Ni 5.301934161881176 2.835131910439218 9.195788403064007 -0.12315275610180079 -0.24976107485236984 0.2542911015122395
P 0.10150751984530774 5.407454899871078 12.40011291369397 0.1335382131011829 -0.010463875645801334 0.8833765388308141
P 3.870056561658745 6.0090314253917825 12.558609755977193 1.2369546455708504 1.2288613270397546 0.6322833754305821
P 2.2756734142992556 8.515821432975338 1.3273804765771013 1.2593659233865149 -0.6118323066650818 -0.3825955770183088
P 6.339972983725725 7.675879969208324 5.862692485760277 -1.536116125233219 1.0734746506049127 -1.1201717975511354
P 4.5626751884083765 1.1398586614105122 12.51497255292633 0.6256944093591547 -0.9329409800225029 0.030856837479856535
P 4.006664846409744 6.057955497239967 8.197052219823549 -0.44563054189260676 0.8522438219817515 -0.20239209865010305
P 4.705773585273554 1.0963866448014985 3.7669549475166866 0.6729893377903764 -0.6567085983524819 -1.2255602876909795
P 0.059045577708584096 5.4595382752518935 3.5298916423258215 0.7645139254639348 0.9098262483819105 1.040172179798041
Ni 1.376093326417675 0.9596249081646285 2.6023120012217538 0.17008798720075868 0.8596205740617969 0.2363052064577801
Ni 1.7262163704854534 6.64316683046164 4.617552290770191 0.09831538534314681 -0.9335477603685663 0.9633170212111989
Ni 5.946080045858714 5.682828822356788 9.264540263882989 0.44703230733613974 0.3755749227261016 -0.1916996519332634
Ni 8.644675884199106 2.368872868511894 10.073045754842164 -0.013550484990925048 0.17761566303637155 0.13680377122633217
Ni 2.3521827192780758 5.2422684580220436 6.935834780484975 0.15506760253252647 0.504231639365267 0.8447405716261709
Ni 0.5465089622887804 9.079116226262066 9.09931952102417 -0.49576628220673324 -0.07340936613008649 -0.3770872456055699
Ni 1.3406730205261115 1.1150987482962007 11.35102916669934 0.3729400562064158 -0.04748853249926661 -0.28050529801376206
Ni 3.9771298716703973 6.783638492103972 1.6195880709428259 0.7089102200567017 0.8737701260893016 -0.5235449949818984
Ni 5.6267827776879 8.13694872676061 8.038080579352277 -0.29606330035301914 -0.646565596381209 0.07416089958413034
Ni 5.360643048098996 2.822431510238038 4.925059038157223 -0.39177158709062204 0.4803512332032437 -0.20941121028041357
Ni 0.9721267235723287 7.3535858759722705 6.948279728429089 -0.8165155153422067 0.04772713087263393 0.20528613236844645
Ni 5.250961056027542 4.488964123701315 7.23681440677359 -0.18040762395921187 -0.07632782532846209 -0.7358011309102748
Ni 8.274667281038791 7.015414025839362 9.076027330065305 -0.10421838109114309 0.47487401213875635 0.6195551292306363
Ni 4.811998396622157 0.28979659444125033 10.300689822215025 -0.487152058175161 0.2417225208186095 -0.034343767587192466
Ni 8.020099628960843 7.412764144429225 4.513513717466169 0.6769262109509374 -1.485883454329912 0.6553993926227552
Ni 7.277554979814106 6.187315437028957 6.942136237045348 0.3202249852008872 -1.5853249828577018 0.5345724564406535
Ni 2.449895464251617 5.10058723445579 2.6688965798173494 -1.239195619086227 0.09207068998501564 -0.10100707324269702
Ni 2.21784010648905 5.095920491809016 11.674811743228338 -0.09190382538984816 0.22458997490338095 -1.5635994182551523
Ni 1.0823142042090041 3.4165972123293407 3.9122928392574234 -0.08912600553439488 -0.06473163585043046 -0.7727275716229789
Ni 3.513930840878966 2.8992657721516433 2.9075855723402912 0.15815266921575344 -0.8493868121489307 -1.540771107506727
Ni 1.1535971184866995 3.3225673126166964 8.086579499210785 -1.556720431747132 0.4585374797622619 1.3118390535845665
Ni 3.448253433726311 2.947675328853084 7.394676680375833 0.6803537485752477 -0.4264670815902784 -0.4247940647632297
Ni 4.080303698464631 6.948310418806263 6.018717850022832 0.07429742516199463 -0.4253188269184482 -0.21180696420609976
Ni 0.7674544035143097 7.179237453878605 11.391099064732783 0.04550389796907002 0.5659499423106704 -0.18353151430017423
P 0.1855115954616831 5.457796145018185 7.936327536489578 0.9040332958492172 0.09771606119625106 0.30848635660772034
P 8.624925723829397 1.5845622266637653 7.796168194567899 -1.0788724245817163 0.3899201357041801 0.2894136562469854
P 1.7401082794475118 3.2505803249803003 10.273646183975698 0.4085272092824061 -0.1030215325695645 0.5737146738577539
P 4.0065926337575695 6.154016377795017 3.8442279012922516 -0.016834040838203265 1.226318763123559 -0.6557459773288965
P 6.858685490876259 3.9207949763928114 10.28153361090945 0.6215374497679877 -0.03373030237290965 0.9636602634832306
P 6.552530925401193 7.782086727393883 10.185289490749508 -1.2612448855767826 -0.20703088297369507 -0.007134039941619971
P 2.360306642647701 8.499257655882825 5.6924385210449024 0.7153138095902004 0.5818118490435915 0.05089190175386075
P 6.854722821588187 3.9648356676376992 1.6835179319128586 0.3991347123239126 -0.4264074319969366 -0.5949417015573302
Ni 5.381061175501319 2.8795156117819336 0.5453093296045325 -0.5312001975343109 -0.6027869086333618 -0.31666503576377075
Ni 1.574479535103909 1.1739249800738047 6.90419300161844 -0.07459258780491024 0.13162839767297976 0.11324783828326303
Ni 7.0687159897256215 0.7702020949295472 9.215869838975568 -0.4251229088575582 -0.15493724760224928 -0.580727100619845
Ni 2.7103033145741744 1.5038916676033924 9.305297084770244 0.19858866574361284 -0.020110397596629883 -0.34178368520826946
Ni 6.51396034255852 1.6785469934688007 2.4847841044915464 -0.6172020556174274 0.6549656475194463 1.0127763042835911
Ni 4.103285375019146 6.9366119691540025 10.309092666953674 -0.4385895758854253 0.09822436829123728 0.4551901605565838
Ni 8.21845875790251 7.13781447127504 0.34674258928786256 -0.5604755494596605 -0.8107521304958681 -0.13713107265876384
Ni 7.566387535348827 3.9033646474742056 8.182189953347898 0.5490148571182286 -0.3896270299437935 -0.48451204944915266
Ni 2.9546167700433528 8.349948970930646 12.310434728932986 0.395796391979299 -0.33077576413354004 0.108213104072833
Ni 0.08214730779734006 4.773292415056657 10.292988342860621 -0.1849394503912944 -0.15610684243031825 -0.8437172725679791
Ni 8.530489627948272 2.446230672153764 5.545343153881869 0.22985713683959125 -0.027980801483642136 1.5808972861036514
Ni 3.503757883503891 2.777632586145319 11.548314132439911 -0.21597266554801514 -0.20841927868078947 -0.41959040907510314
Ni 1.0900499845731912 3.2641924099151822 12.589867905129054 -1.164291413578169 0.209158213729343 0.5528951660092414
Ni 3.032949444489578 8.377759868599327 7.870456057834204 0.7070405138378146 -0.34274064980490004 0.6003065654136694
Ni 5.677674644307837 7.8287451272800945 3.389996779242733 -0.559710389158862 0.4684398264776383 0.514772648105907
Ni 3.0400804438918034 8.259168640565852 3.573053144530485 1.2168095380815431 0.9149016060222889 -0.319258764632876
Ni 3.6044223206350625 4.478764086581676 9.660680820548931 -0.6267277357196755 -0.17657745157984425 -0.4954407805465145
Ni 7.238379616009472 5.99601509483734 11.40058509925405 -0.09715941736183267 0.20443972520775114 -0.14107668757007316
Ni 0.453343809085925 8.958945346462276 0.12252230428622236 1.0947230184607275 0.5244770198778644 0.8013048690400394
Ni 4.59784275001733 0.3308467792279636 1.475822609703187 -0.48277732614623303 -0.21430864758203091 0.18000627475573516
Ni 6.067487567326993 5.678685621438279 0.3522758837607291 -0.725936322301053 0.027794396504448905 0.13372976028669872
Ni 8.08154356937977 8.894576793630282 11.306414384869663 -0.21913820776019033 -0.018615558218658262 -0.060390842383231474
Ni 0.23535908659954777 5.046445798488002 5.728624281049514 -0.919734765744874 -0.7548995423026225 -0.07826926532554908
Ni 8.026463368933713 8.57568572162795 2.508537553766176 -0.8425397073201102 0.8734978462645215 -1.0170217098235064
P 8.453655366034665 1.468850478135745 3.5024779142440994 -0.1474764204488299 0.9529225653507524 -0.042526817618617076
P 1.657172048425166 3.096938880897654 1.6781669743867325 0.7126563173626952 0.43086495354765797 -0.2124271142886019
P 4.557539063522469 1.09519513604062 8.108629632552251 0.4845483020037268 -0.08599902986963899 -0.36167785302903516
P 8.495710209344756 1.6979541437406815 12.492354647607144 -0.3858665344600968 -0.3853510282762589 -1.4946938535326901
P 6.305554628383082 7.73921949174683 1.2445543698493213 -0.43717881158082766 -0.427216043941161 0.6220948649333544
P 1.7230841466973872 3.3090274403339883 6.044968954404546 0.7252668070378542 -0.39352713632914804 -1.6050425158912873
P 6.934608068056162 4.049532082056797 5.903132473636116 0.2530076068141256 -0.32636040867466376 1.1212380340321204
P 2.31724984878869 8.467195238317373 10.083614979146045 0.7066983000070475 -0.545332523170635 1.1466814138058896
