# total energy = -340868.1788024405 ev
CRYSTAL
PRIMVEC
9.26590761530022 0.00000000000000 0.00000000000000

0.00000000000000 9.26590761530022 0.00000000000000

0.00000000000000 0.00000000000000 13.56159240728664

PRIMCOORD
 96 1
Ni 0.9485880384866757 6.561976869475515 5.763229678156829 1.2329655790161154 -0.7552831508942863 -0.5644545887120666
Ni 5.792081861662795 5.139845350272056 2.1221449040586045 2.8582627313913807 1.8600506980752096 -0.3297403808904902
Ni 4.765650932292433 8.7214985921565 6.837117807174731 0.09931554447288701 0.3063155742086467 1.8857756136451393
Ni 2.96611899103296 2.600773514940484 2.1186192261653485 0.17553898301300092 0.19376759020588566 -0.4998965023250229
Ni 4.81439887288749 8.192053890073058 13.38394955045701 -0.5849149134489475 0.6054793678638606 0.3935114525998642
Ni 7.85429302130837 0.9078263837686151 4.909459673524786 -0.09584095566072526 -0.42165371936203505 -1.883655481978343
Ni 4.5565842560623855 8.828427167421081 4.684011799009621 -0.3532523479695013 0.046880980822254746 -1.681935212584284
Ni 0.9256122936663935 4.215830499099217 6.51169356796873 -0.4836926388716508 -0.04682055989796453 0.3118020512445146
Ni 0.7129726834136406 2.0453472075674517 2.2758653867953353 -1.7071726469948338 -0.5051212410590721 -1.3386356049521204
Ni 2.5055941106841773 8.864045316755314 0.8539479100605596 -1.595218844932646 0.196067699093972 -1.0429942226278683
Ni 7.057369360631977 0.719669154933893 9.223388337816907 -0.3084300494484882 0.02516364374982118 0.1940424411338271
Ni 3.6354603681029385 1.1842200721936342 12.843234724795206 0.9264034360143013 -0.9952208118983313 -0.14344518780224974
Ni 7.968402675067757 4.0236277749472915 7.6579058132232145 -0.22240505143692021 0.4614423121138827 -0.08103911476120236
Ni 3.9130484320350294 3.894053321177803 9.219807991068013 -1.838757078803756 1.802433561782373 -2.120124981928129
Ni 6.528100710795505 5.81735925796451 9.213963056468629 -0.0858247090753038 -1.0964281740772923 -0.4520169050349248
Ni 3.9232223987283144 3.0581943161979637 6.857609362131198 0.525698036769159 1.5832647578945636 0.44691917879704324
Ni 5.408501079147382 2.918779468413658 1.993499820834959 -0.8689598491848518 -2.2093779999586918 0.6200348970805323
Ni 3.7790634061835693 6.9490601651148465 8.121128925904497 1.391994480189235 0.14892138042547257 -1.128911234306662
Ni 2.2456112714490284 0.5570988037192417 8.1274492015707 -0.3755787793808435 -0.40114608632698656 -0.8442458913779396
Ni 6.017039569658766 2.9569828060060206 8.909803148924214 1.1439352185193201 0.4507251828066947 -0.0946281662995467
Ni 8.67487254443281 2.8298360200631625 9.795389500946722 -0.2977789974925452 -0.15066073171408245 -0.6244157997570472
Ni 1.458907907004597 4.248622546574204 2.7957902952715985 -0.8941510037384988 2.2737733355156258 -0.3143304740933232
Ni 1.4747896728627852 1.5637701848442214 10.221453543837404 -0.3565433600159473 -0.34586531147681077 -0.3882386342366991
Ni 4.093817026041677 8.264781999886898 2.2260129499982386 2.1439454813864947 -1.062188279057816 0.7065021248358413
P 7.959701987704373 1.87039760361853 7.509854212838899 -0.42609324319062747 0.15182646988740947 0.2947222129440924
P 0.9351339404551183 6.545112917397393 3.343448065599412 0.1334032301852154 -1.7352303244629987 0.6772797376356142
P 1.2964024171440922 1.7981420550991882 4.246134650347294 -0.6451291210449986 0.3056702273151639 2.1675831754100923
P 5.932302843420067 7.176825443154593 1.3733956242884582 -1.7145411715447634 -0.2877969465791689 -0.3004987104165534
P 0.5558516125380794 9.004766657530288 9.127494532074214 -0.13481039494538719 0.4555542287642219 0.7905774553202062
P 5.373170172952942 6.584733938873246 12.14097528390504 0.4930992768975314 -1.7262564030991625 0.7255200606992408
P 1.0296184016312824 1.905737775720706 0.08993119411507101 0.9608757587595581 1.235732086017659 -1.340028371534589
P 1.7677035481889498 4.995612230465429 12.687466476448988 -1.19140626751709 1.6299395362432831 0.9012217945423511
Ni 8.719802931040952 8.727910600309281 10.978922969377177 0.3761084266320684 0.31817761575355524 1.4322731252036236
Ni 7.534155909056093 7.300228802372417 2.5644020473073765 2.437846741091189 0.7793378778506449 -0.3542213967509899
Ni 2.8589587680749977 1.228121943043165 5.94346270269638 1.3377521739059026 -1.3065330679906209 -1.665418960096816
Ni -0.08281683015595961 0.153360965516604 0.5799902287791331 0.5850110727071796 -0.1808699083076111 -1.1629670383397905
Ni 3.0567488345912674 5.345103738422922 6.261753119537026 0.9279615245300405 1.1877445023947866 0.005565924123551704
Ni 4.242127145251805 2.894586183316966 11.084092875353612 0.5724802872300205 -0.8949313335479491 2.265664333255246
Ni 0.9896452756614902 6.4646385087169 10.779133319971644 -1.0127433941631268 0.893351647765655 0.7573582882557602
Ni 2.8553265322427865 3.3531374253181445 13.228018222134653 0.42775237606060523 -0.3777899280995494 0.41921322824134255
Ni 7.344760754947943 8.095391940579116 13.601870728118845 0.8652389486898389 -1.122670138492957 -1.318625994599413
Ni 8.369097589170144 7.436122605217335 4.8162641001145925 -0.6283431598359114 -0.9454306278490815 -1.0126089254677915
Ni 3.386559554519127 5.1988413848222805 11.31893916008462 1.3608139408213726 1.059919537628297 -0.10240009693548173
Ni 1.4663947604546648 0.2874645949870746 12.232448325067253 -0.24761034705795423 -0.07335588718433174 -0.09114946372232689
Ni 4.77469445824202 7.4646893987650556 10.406651241741493 -0.9480644659275026 0.11361807713848819 -1.5636271861692943
Ni 8.4349133318135 9.057350683927732 6.750065530592997 1.2905624035939773 -0.7784331066481884 2.7010130336058706
Ni 8.006170514996564 1.4841853033063108 11.76983490911495 -0.24936615340679633 0.5423366737671047 0.9235531110496998
Ni 7.530588534578028 6.469651364801661 11.445075962084339 0.025237177300233955 0.5722005512060726 0.18862666943489448
Ni 8.200763843344179 6.519242503000624 7.217764076710396 0.08927152997332367 -0.8980179428930728 -1.0797969932785145
Ni 6.190126726152907 3.9102501278989887 5.550420501792521 -0.7358720933575262 0.5334928502232296 0.37727982123235027
Ni 8.047792972543228 7.724922417509056 9.110610194999072 -0.3677135177001538 -0.2592543590547858 -0.5618410623486195
Ni 7.119821578767443 3.187889226768011 0.5056498510193641 0.8280266013055998 0.39380404413961856 -0.6704501163082905
Ni 2.5919060412378667 0.5419740625230219 3.1431024617297654 0.39265373258525926 -1.0501848268390364 0.7700860202350737
Ni 2.6097985090746003 8.550755710319374 10.165159447982772 -0.29398250656459046 0.12145762778756503 -0.34027727586607204
Ni 5.560925261391954 6.517732160039781 6.088423196260223 -0.7021754724360294 -0.4549235371587585 3.5642066697309067
Ni 5.230567852907716 4.504611779575467 12.942003741708142 0.021887286991394566 0.4606434703616712 0.5718010017748087
P 5.941717005679062 7.848928060729671 8.470719579074757 0.05951203932270397 0.13670298398240974 0.7284925130640034
P 8.694460673385093 5.021584569847286 10.331560325455168 -1.823961151441504 -1.1690728941272124 -0.06944292528317073
P 4.900062189899714 1.0582871201640913 10.251764181220894 1.1596068636183063 -1.1871320656217683 1.9039990786317016
P 8.018633160900452 0.5684699256919188 2.2371885613177023 -0.2977319463046937 -0.05140123729011148 1.077494827507899
P 4.5509135205284235 2.4441796742150577 4.775945355786276 -0.30873215406993926 -0.3567896716987984 0.07379168917016969
P 5.262785414103118 4.881669363045277 7.510030265085868 -0.41251370473397986 -1.1013173838487937 0.5194111753191828
P 2.5472628977695173 6.074293613554768 9.450504075724414 1.16979563122585 -0.09797214307111514 0.5626949257084826
P 2.8287611747658756 7.86985974630356 5.653325819918464 -0.027734746911107076 -0.6358608083691952 0.9149219177372631
Ni 1.5553938042515714 3.8070371816362356 10.84561250160884 -0.06858109150350769 -0.5169573144620516 0.6351470701316223
Ni 0.7157941523190189 1.72702621323128 6.487730077383872 -1.1793647629715236 0.42264487963071085 0.4513764432374484
Ni 2.81118374779214 6.257165568617313 1.367374637442104 0.9031706907386059 0.3414131892427281 0.2779143973581343
Ni 5.9584790327720984 1.6664735061815366 6.315918836384873 0.27705770578479383 -0.9201109181373702 0.4586943170551004
Ni 5.966104874838194 6.581611327966473 4.092861710954174 1.0285502792883965 0.2715712287489258 -2.933944952716044
Ni 9.005748843750222 3.7658502217531282 12.696580423297364 1.7060632159807394 -0.23865802296067284 0.5048764720381176
Ni 8.241255860147144 5.0510872200762655 3.3947645158186757 -0.1494309730720394 0.9290359885411419 0.7138379963756223
Ni 0.592047954514991 8.421264649719502 2.6412831369681466 -0.35164052339769114 0.9409677069817214 -0.7151942532932005
Ni 3.6551596879480424 6.62155665621306 3.863480458605404 -2.0099560396805063 1.09747898393931 0.5098947511883153
Ni 6.081270842079396 0.21692045962643025 3.0983360816885375 0.4027080314974677 0.339637328289228 -0.418514402402105
Ni 0.9423057530421881 4.802686765510156 8.877120439160501 -0.24404808362799263 -0.30245300592944685 -1.99456335927452
Ni 6.242043607193413 8.956463480506523 11.504828094705758 -0.040108437985111565 0.6959004380605951 -0.12541584110436466
Ni 0.6437128028650995 6.029567076916801 0.8417678743425967 -0.4006498634168584 0.7495729878833866 -0.496057588194907
Ni 2.4386386613893882 3.5751578405620466 4.792259839535699 -0.3657895612045636 -1.2091664197139886 0.4389826975587859
Ni 0.9667770153709367 8.88342959573742 5.012852378397603 0.8322036155014247 0.9335007091807148 0.33849627270624927
Ni 8.58790273442992 3.038411603183243 4.890676751954696 1.4101264139032552 0.9339683928457527 0.6595437538084318
Ni 1.3229399768977976 7.436057743863188 7.916362557454371 0.1254826897865581 -0.7851855948806736 -0.06956788089680922
Ni 7.125112412084261 3.760772504314221 11.35825440660521 -1.3603927941235539 0.597116854831778 -0.06578578814655767
Ni 4.420004776045061 1.2615718699673537 8.343065021388009 -0.18431055855804385 0.022599482567070756 -1.515257793726971
Ni 2.7739996600506527 7.46644992123475 12.27181731385271 -0.03474280279782404 -0.5380509019075572 0.701984696581462
Ni 7.6621273607873865 5.674099058470082 0.20581248943343372 -1.6920383624565571 -0.2042183532255644 0.1596004574058735
Ni 7.569718462943914 2.566832494906328 2.9422963422456774 -0.3614585379293775 0.13391462260399517 -1.0237299750816176
Ni 4.3177276864635665 4.542546405843509 3.98925125724958 1.1291120374635586 -1.068515249717108 0.09273532015220803
Ni 6.390288865049396 0.7972275824501084 0.6678931156909618 -0.4152033357510011 0.7857265549858081 -0.02861869217795716
P 4.26882222543701 1.0338529214662837 1.4348434180254248 -0.010866510400858705 -0.7190879319206519 0.16606498208429465
P 6.73021795622413 8.44929402061858 5.65975450670517 -2.309361259922565 0.22239399569332666 -0.7324059891857968
P 8.004947415175513 4.993064105838241 5.601927829711131 1.4200966377420898 1.3275538932166622 0.7749101810965944
P 3.919942267390042 4.4704576436634005 1.8318727390277543 -2.4238833369325614 0.08025364274542954 -0.9972532689473276
P 8.722758755608492 4.267182159767874 1.4836515870207614 0.7398609028019452 -1.4142872301491642 0.16912176663274744
P 5.628130890195594 2.3041903401511674 12.803675784901179 0.043631363536705506 0.1841958873570505 -1.4198338709990064
P 0.3639268656182119 7.596126299989327 12.634522006240644 -0.10461664497082628 0.17819801790240278 0.9411988491559209
P 2.096476486450464 2.72285184935217 8.227344026273466 -0.08753089313313313 0.5642406729290477 -0.16511341680430275
