# total energy = -340867.9686566781 ev
CRYSTAL
PRIMVEC
9.21944786448801 0.00000000000000 0.00000000000000

0.00000000000000 9.21944786448801 0.00000000000000

0.00000000000000 0.00000000000000 13.49359386574832

PRIMCOORD
 96 1
Ni 0.5745273918929632 7.619283366894901 12.570024372825417 -0.8302845441018409 -0.9590541321697871 0.01684612502306131
Ni 7.851032620307915 7.057597743513654 4.744712167331186 -0.5936034423618809 -0.20337785960214003 0.6176340009485234
Ni 4.5879105689991455 6.613579929390085 0.9007907339517517 -0.6607568002799266 0.7639014886909167 1.1619347404205345
Ni 7.296215485361752 0.516826557369723 12.431985272230607 0.8389080241047938 -0.9579071630495373 0.3084184794842624
Ni 3.3150459799884886 0.3826697661440612 5.335676912285774 -0.5458009781666213 -0.3581302448870929 0.03598824516915092
Ni 5.323290584483714 1.9520244132507425 8.320244418789272 -0.973224253022582 0.8350176879114523 -0.5243091268414326
Ni 5.398982248983091 3.7544540703301217 4.627587383535018 -0.7525608668671169 -0.9265751857054751 -1.3508665998006735
Ni 2.4117429465755826 5.438358509528382 9.342464496604764 0.45302272059161985 -1.0687674749372302 -0.5833252003643244
Ni 3.0597133797070946 0.8146368403568944 7.887842186651425 0.3680048236883275 -2.3657756341565515 0.958678493997923
Ni 8.80618582682003 5.136126579489578 8.961553801055889 -1.5189789513323 -2.4940351153572986 1.3682467429503338
Ni 0.5087171312925426 6.618595308864831 10.462837579019487 1.4156501719349621 -1.1144914593369064 -0.1970891983799509
Ni 3.7408185073831572 3.9838339257192206 13.370181148838496 0.3402759903144914 0.693836613553031 0.33194870139571864
Ni 2.0698305142218802 1.3865219385780523 3.500589206100896 0.6254817791277164 -0.49700761081300204 -0.8279044739054386
Ni 5.178397746569925 6.144844776347781 12.365299164111619 1.2902988655199457 -1.8085710421386787 -2.1699575891795404
Ni 5.940385087723824 6.00428507878901 5.720905997073565 0.6624336737617172 0.5212878235166054 -0.2760140950116279
Ni 0.2537007580625891 2.394355068470123 1.7988036483525092 -1.0789585565376192 -2.9574116683794163 1.2640242480941328
Ni 2.138874957027707 5.7659347009202655 3.9005528119852655 0.4455094429337101 0.7752927612469939 -3.252203815329496
Ni 1.2938480516660256 1.7718856273002763 6.445809032346552 0.41782200432077077 -0.5084875864281436 -0.44387087888902266
Ni 2.05175117754913 0.46911960400571867 9.939704919516076 -0.7646612496750766 -0.9342972369400814 1.0970889475897427
Ni 5.954721328685642 5.809441273974171 8.21363164910543 0.5760674903606465 0.07930207746543762 -0.8606472155540984
Ni 3.9191871594013605 1.149858719613496 -0.015191805695745852 -0.9671914165649408 -0.25844934665498714 0.6641069476990821
Ni 3.1521291220873326 2.766737775022417 9.311456728613198 -0.8846353509385797 1.0169664311055386 -0.07278921604758432
Ni 6.915581373239792 4.612591030127626 10.537457021767187 -0.5582083506920387 -0.5147816469669715 -0.31532934767148274
Ni 2.6250625243084187 6.283108831463146 12.894275109481011 0.343920271935298 0.25782405436616246 -0.6461475350071839
P 7.363167113570579 1.5636551846226967 1.505993071779225 0.36213448095047956 -0.6113723363095277 0.8502285913239358
P 6.422857217636295 5.2400666313246544 3.526213738659918 -0.030175495142115774 2.505478324197233 0.6684631677852488
P 7.80361700148693 5.909020527111537 7.073571358362817 0.9516025609877483 -0.7752824768343487 -1.9704073308536065
P 0.49580068525556 3.483227142448615 3.9935097359375025 1.6987553694654163 -0.8636921730280094 -1.0783371209035366
P 2.726531764196378 5.665304430760619 1.5910295683293412 1.0723870739676886 -0.7001347878569169 0.41213009614231605
P 0.3444238098701007 8.479411727366202 8.426168495740095 0.9598884551456244 1.0359026058884095 -0.05633955513199329
P 3.5509071070149885 2.224809427770544 6.561772165749672 -0.8505165548779997 2.476801782198147 -1.0986660622688758
P 3.419751245971366 2.7248814830824446 11.636631828398304 -0.7651962962429403 -1.5441379670964308 -0.13643970301869404
Ni 1.83882803606154 0.2726172205741387 12.578538532650649 0.44995668007178635 0.8769415818387478 -0.474349507093854
Ni 3.796033778843178 5.290155889939163 5.333612677976223 0.730756883618148 0.8629576088548299 0.1270772879671876
Ni 7.22504135016867 3.7689931391383458 2.346671163725028 1.8469946362221996 -1.700008782256543 0.4601238504127753
Ni 4.481969897042709 6.584676961277351 3.4637510594699386 -0.1874478186354449 -0.00413947608967029 1.606424998061111
Ni 4.5302152661444435 8.37169170202994 11.89985166607059 -0.5197446473992016 0.2835032042998214 -0.2973439668376556
Ni 5.446222698300364 8.974265575356954 4.645722958837908 1.313503585771183 -1.6674820132734316 0.9297006187083343
Ni 6.297371316844455 3.8006988193104965 6.701093691500613 -0.07747479444871173 1.3137928348768275 2.2656440215402722
Ni 7.819953862570108 7.288766171730144 8.725807917123937 -1.0053902962321652 -0.35847605826228585 0.3904487545141404
Ni 8.045922522360575 4.172491481218703 4.981659345280709 -2.610849845056213 -0.1927268076461971 0.29140137610097555
Ni 2.132568854894019 3.485412151521252 2.0798078003755007 1.5467229542147878 1.6788989968611214 0.14297750413721183
Ni 0.44454793235849094 8.202874397687905 3.888570295986503 1.2796321298347186 -0.46594148553581693 -0.9686919123698673
Ni 9.276239360863968 1.7595039092219982 9.299096215264315 -1.3779056061963366 -2.6135129937106734 -0.5450214196881193
Ni 6.349599487293782 1.737801329656647 3.552229175795648 0.22279020269048083 1.5731592940294457 0.49800725572211
Ni 9.22424167660374 4.42299309097663 0.9241057948960238 -0.2053594088085431 2.2454521199734296 -0.3843200159085833
Ni 9.053396093797653 5.513183545956756 3.2673390266244846 -0.5610861864604659 0.0931181574129235 -1.3124247508847073
Ni 5.477384431066246 1.7920762174651528 5.910396068688065 -0.007197546189703734 -1.4334905425504922 -0.4713839967076269
Ni 8.92180691871853 -0.0793748338011433 0.6810793132228841 0.6932342040823416 0.8850379856936371 1.3194184085937213
Ni 2.713255759704404 8.085455513514452 3.1736261079720096 0.13931496768396007 1.4926935352732098 0.38783394259911275
Ni 2.5540266808287964 4.441468863894626 7.037137945479913 -0.7724192963539407 -1.503991219674216 0.3114760353636636
Ni 0.7943300851527132 5.316892287874388 5.521619340477697 -0.6770120857965244 0.5367303833239209 0.28202430576144977
Ni 2.355836216548272 7.563948242616551 8.56364152225448 0.2377900185334227 2.229274995992935 1.1272181628749554
Ni 3.928849140448297 6.675267253039943 7.064516938910338 0.27832551675362394 1.2224574803959398 0.5402129425558826
Ni 7.526738552248769 6.715694530607516 11.338571698382154 -0.3463149974197197 0.3975236590830509 0.43841962596646433
Ni 7.632734540890589 -0.08537300638619746 3.2200165242238934 0.6083893424218039 -0.3636038664071544 -1.4731654925426112
P 5.356545131846595 8.48338530926623 7.158135819197662 -0.37415464533980725 0.07810908559860097 -1.1628539098006943
P 2.531402156507058 7.474399748428677 10.874581795000973 -0.010569805096046313 0.6040462349617597 0.040314383348330575
P 5.626702603810693 6.45571532875393 10.120856000809058 0.7269164268261351 -0.5294420771926236 3.5322673978201484
P 8.320256404071106 7.27377534999129 2.0118945837857614 -1.1004257252724596 0.8819979133157327 1.4836332248431547
P 2.751940561682405 7.411744382784613 5.1920111828427356 -0.24199042976801555 0.00845250164272738 0.9431935109884465
P 4.211701791707845 4.692440665478309 8.314333830956075 -0.24900234230947438 -1.2267195981064034 0.5881323919449807
P 6.535611061342433 -0.06043993239446601 10.505072790254335 -1.4363483237142618 0.045890848994843546 -0.3047767689666171
P 7.229503562789584 2.7549368821406626 8.644090421696815 1.1166630130669286 0.4180382340966349 0.6254444981318777
Ni 1.3380829610774765 3.0515910464033245 12.925647967596106 0.4278732179091857 -1.5561781860904167 0.42567775291976373
Ni 8.671969109185202 8.639830114977551 10.4270126496758 0.0715226906303349 2.6167752094017125 0.6208831040134405
Ni 7.716788244330396 2.0473719399562915 6.5836591342663 1.205282254168234 -1.689962967984767 -0.4260469633337243
Ni 5.403739483926048 2.696273537291755 1.1828376054942171 0.6320157235914922 -1.1320094136160117 -0.4688396330192184
Ni 9.347966662910881 3.6974594454902747 6.957121438128325 -0.3051398087329906 0.18650936598157555 1.6982318928617783
Ni 8.148627168222092 2.7408495662630687 13.330388169263315 -1.5826862596832743 -0.5866866606373895 -1.0245640409471386
Ni 4.770686116952879 0.47788822058371594 2.5371864379086304 -2.109343317931593 0.35528351946691716 -1.479945491578922
Ni 4.578018101763112 4.265515707138157 10.595723008426093 -0.049163863319160485 0.7577786636226305 -0.12593597527389278
Ni 4.416096944198854 1.0090316580753735 10.20435469350552 0.22262513786752625 -0.0737153274062795 1.2560381445648625
Ni 2.72891960111542 8.112044400288655 0.9070986799749519 0.8376307000542671 0.11288608406847009 -1.0352685718488364
Ni 5.574059558220992 1.967015234989596 12.105358683937801 -0.055194642894272686 1.681129943074169 -0.31030052699832367
Ni -0.4442510661469343 3.3935587954424102 11.006535138258869 1.2164117884224923 0.3937101988742316 0.1841994869014763
Ni 7.256765469235949 7.418539115639185 13.661993259240612 -0.07323967332144161 0.7131106312912945 -1.0871423778999922
Ni 6.599852171967482 5.384194255090643 0.9437164818091328 0.3188291332946251 0.3120056826148884 0.21223762398561513
Ni 0.44990443139309977 8.497380430668187 6.23324360542444 0.4235182833745996 0.28113624672954163 0.32394588569590016
Ni 0.8478609635428146 6.248655755916962 7.635295703423833 -0.2954094688191042 0.8132977797358574 -1.5925564676091346
Ni 4.554831191139978 4.593875551572969 2.381444154101678 -0.6910773056403389 -0.6786979581393795 -0.25875376526928345
Ni 5.982241379663796 7.760571400811218 2.4451745073316897 1.8770467184125739 -0.8295877751451326 -1.2946185759412219
Ni 2.0913026075981347 4.605316885999733 11.4111269068203 -0.06117862839184947 -0.3655062256361899 -0.3423583267648168
Ni 4.658181198330967 8.07396808184987 9.189811649676464 -0.29392542807440997 0.777470485624603 -0.1532056096231232
Ni 9.163642247766418 1.3558303976379273 4.3970763019298325 -0.5135151215497221 0.8832528687687563 0.5959032941396512
Ni 6.949195479057665 0.2868428281651909 8.32148535643137 0.4381020947260455 0.12256834435324054 0.35835830173749894
Ni 2.682370610365438 3.56420155040209 4.622662354646399 -0.8012092240024395 -2.2831797164311904 0.02356621735571425
Ni 0.9005611697074114 6.595694201116177 1.2401705840596586 0.10760992327119531 0.5615512990223425 -0.15166757571204204
P 5.502037233852036 8.708395146510055 0.4015945261584182 -0.996709737739032 0.3789291839103151 0.25946981749970155
P 6.1476659273023255 3.981805647255169 12.962297115552005 -0.07950622305644373 -0.054761669121912146 -1.5173820391588255
P 3.988471307843848 2.5328864875648414 2.8998546125628746 0.3683966598101075 -0.21987971391190522 0.7951121099657662
P 0.20122642836330726 5.280816589556963 12.388292466335912 -0.208800316169292 -0.07036492287680786 -0.33476148825416535
P 1.8374174605842681 0.7069509269766174 1.357644784918497 -0.35133893299687236 1.260865904970809 0.0756102304361472
P 1.0548246541251185 3.4660144338468686 9.041301100538613 0.8768279390790189 2.4310865395492196 -0.45165309393760283
P 0.17889508247410008 1.2989832839591016 11.673968747142467 -0.8153024688707119 0.2896841362995527 -0.17904699616625938
P 7.68447408061903 0.025572903652664063 5.369316832556825 -0.2186584399102944 0.40308444100027996 0.572657436237833
