# total energy = -340872.8856367337 ev
CRYSTAL
PRIMVEC
9.24590448658324 0.00000000000000 0.00000000000000
0.00000000000000 9.24590448658324 0.00000000000000
0.00000000000000 0.00000000000000 13.53231580646128
PRIMCOORD
 96 1
Ni 9.173333204669179 0.9672140496158778 10.084944234960137 -0.24164924437851285 -0.06737627256212912 1.3226618552316833
Ni 6.050112959090407 6.459040814806026 10.16050916168512 0.6627648318488909 -0.03805695477272155 -0.8194018357510663
Ni 1.4075317504557303 8.472872740231274 6.385358354198065 0.41715968814642346 -1.3629998927290976 0.820730838975135
Ni 8.715328088888928 4.473464372944742 4.3337781752562625 -0.5222712704757974 0.20354343864572688 -0.32108836164244703
Ni 4.846536611755569 0.7001840118991087 11.361353344297067 -0.6898318632690119 -0.3944655889830174 -1.2304201868864422
Ni 9.151965919814364 7.791024281164526 9.914545916933172 -0.9749767169373145 -1.102454325666714 -0.47693706531537217
Ni 7.139363699662024 1.2864473876436708 6.555134422865129 0.26064841118883497 0.9770479976440463 0.1277606871874574
Ni 5.173684443870649 3.40389816264396 10.13279456352315 0.562783628767547 -2.0834263409555147 -0.10183831089474074
Ni 8.229890375028088 8.353350935247194 5.604137689404745 0.6248312900279109 1.0260449963680394 -0.09430806395596661
Ni 3.014377460069949 9.204695312080489 12.67256681121902 -1.1516711537109972 0.6114165592839018 0.510901852296591
Ni 0.6232654847834945 3.366831332274874 0.41986853428277904 0.729927188628001 -0.3110417760397224 1.842094884927737
Ni 2.779614703796201 4.758811471685256 9.534490246598828 -0.17068833978891895 -0.21278655451054965 0.27200214563875735
Ni 2.194321223413504 -0.09174156090152553 10.334331238077182 0.05513370774935021 -0.3904107021873534 -0.23862022774420197
Ni 6.189485720622857 8.644153117529182 2.5587846007235444 1.5987528262278339 -0.7690637496181465 -1.121308996479372
Ni 0.8285809604280328 6.221189926493547 3.3356079134281784 -0.05572840391055564 -0.14228356339398077 -0.4675507390044657
Ni 6.6996469826021645 4.447122791572448 11.789596818701652 -0.6442863134287291 -0.5673833323230874 -0.15448704743870814
Ni 6.854682306031655 9.06825350221354 9.919633938073632 -1.4302699787306659 -1.0023044582179899 -0.6227445827022113
Ni 3.462785327178933 3.657235940671635 5.848829622314403 -0.8933004828127454 -0.638335752272249 -0.4562196302623626
Ni 6.163745123030556 1.0150708503119086 13.289370333481948 2.206221713717897 -0.7519759408979243 0.7858466255034401
Ni 6.64737063964711 3.8164134292309213 2.8277128225946595 -0.8324229306010825 0.39697395722716794 -0.3814372950441495
Ni 2.6987315329134964 1.4144014573562615 6.985435110978151 -1.0534272450357343 0.4387790661884121 -0.5116677839283381
Ni 0.4766430096834702 4.776129050453352 8.464693813280789 -0.9488975033517594 1.1449867997122862 -0.6733809168018403
Ni 8.711675956687433 2.7135619634228543 2.6866924409145976 1.0753554125673932 -0.5342945201889185 -0.24210715785153789
Ni 5.039295224759984 5.884934878635501 5.8471514906825774 -0.19417356739505268 -1.2484086530440628 1.6222586226592577
P 7.036318096154052 1.4894874462381136 2.2004623530545984 -0.8878348317124839 -0.2142636532767084 -1.1717028755508918
P 8.294417541190684 7.241567925878006 2.1430184741820386 0.1634154602765895 -1.3482702998284068 0.4610695021554963
P 1.584193244060649 3.816062084867233 4.043441986551379 0.48395463428378593 0.39679757955030376 0.24146643894374542
P 1.0302618710892615 0.08309201742178504 8.31110177551371 -0.006090429168454027 0.14806237485928694 0.8790380593564603
P 5.373654862234976 2.814425533514237 12.625880542008328 -1.5087801564224272 0.9900289832847465 -0.9566311245505912
P 1.6461038193042006 6.472992884406163 10.86377021053779 -0.31600811890606223 -0.1165481063010896 0.31719751122847306
P 7.971319415162323 2.4387089660714425 4.810630142377084 -0.5923667417413024 -0.17002216695982977 0.44193329554667765
P 7.957875870299103 6.017206785659731 9.191053904865086 0.46343491706387924 -0.4732051090767657 0.6222997818553089
Ni 4.866590978198709 3.0799494134193015 7.821935188445624 0.4204154760795598 0.2993440279868199 -0.9705343648952447
Ni 4.057842482510433 2.0257406501734097 0.8694191951641801 -0.3205772263339834 -1.6054793463183898 -2.527329358634054
Ni 3.1425164478686916 2.5538667042223433 11.506527910782525 0.5194553982935569 -1.1690196722917738 0.3253239969903494
Ni 0.576954599287691 8.07602928144566 12.071921431324018 0.10343676573011219 1.5480527287698047 0.9565275090931914
Ni 4.934502145337879 0.5272393718258367 7.294933436360493 0.4595517799593892 -0.15843009124685617 0.2947515235201311
Ni 8.109924766637246 8.873516265687304 7.983904015515369 0.7304136413461163 -0.05590298181520694 -0.6276078243317836
Ni 8.716317400649837 -0.05150893289752467 2.929286478136865 -1.3117022708963864 0.4883519920205331 0.2729439407267364
Ni -0.10022560269416037 5.010919544440023 10.921742030546314 0.6151107203060374 1.0370089515787106 -0.524596061954232
Ni 6.321951791637546 6.324623857982438 0.23939218056055275 -1.1887613736950753 -1.89851748669184 2.0700949139539317
Ni 4.168821071914309 4.62935031957053 11.719472182071248 0.6395868510705308 2.0966071013118475 0.5320620313139741
Ni 6.925108359142487 1.9375717066963327 10.99125828667328 -0.4813665618416355 -0.4627494609610805 0.3719018447498886
Ni 3.959734191902709 4.290802287444204 0.47127668682335105 0.26348305242415265 0.9412659549484305 0.5519631411132753
Ni 4.928945356849024 7.3221089983013306 7.793409724475881 -0.7278361104269271 -0.11105982949300873 0.7516967190946087
Ni 7.563658248336841 6.7012650158559905 11.88326799983217 1.3204872161778678 1.1594988772855321 -0.6076231536797406
Ni 8.964773341203111 0.9453012564069148 0.5657809239319813 -0.27859959635061693 0.6715644324183918 -0.7223709735472978
Ni 2.434788702645028 5.460926952994218 7.059064869931559 0.1183172823863704 0.979526541091526 0.791554731631811
Ni 2.3253634251648267 1.4996302032635282 4.324644146390805 0.8620122142224251 0.9712779279294886 1.2312722504740923
Ni 7.719581178579859 3.6688210587690318 9.597686927131564 -0.08343872534163049 -0.38947687751917437 0.40745197394035637
Ni 4.17301871246995 0.5718638043759379 2.7309840209096254 0.22650467542759056 -2.501598786637169 1.8544822028484966
Ni 1.891906185321198 4.347858762926276 12.21157526834742 -0.563241542240572 0.9273012652382223 -0.17196000741249093
Ni 0.388268807130765 6.433004348275883 13.647340312196775 -0.6199297389612356 -1.8892077792551398 0.27164193408586124
Ni 6.292503586417906 0.8634629836092375 4.317066203220314 -0.2553431969258377 0.5337802995566614 0.5491277285470091
Ni 0.00531084743427359 6.115037699138228 6.023734394100883 0.3808752518930924 0.08214983132687788 0.14140630299535
Ni 7.133233665106099 6.61792243442747 7.336978261608779 0.41675731050168224 0.1211688929025526 -0.5880382895692776
P 6.101621891987931 8.198065972401398 5.878979591670989 -1.3560597139658388 0.07167412860653462 0.3854045072220137
P 4.428381343540984 1.7299826631825606 5.321556040642628 -0.18371149152146424 0.6900930873501986 0.15177119116944182
P 1.3478217004373825 1.6864159620852468 12.235540652312668 0.7590361901788154 -1.2529551347641648 -0.003833000592845012
P 1.8784811322665929 3.423665906053565 7.584402359241326 0.7085698059981475 -1.0661539485737832 0.5840255688654586
P 1.9384778053184755 5.1256519709927755 1.0839158537861446 0.42389880664247 0.6275900837199707 -0.5085588059857112
P 4.265690411344818 8.82860890846539 9.234384835402556 -0.39384492467988297 0.5169202905765292 1.2073982720699723
P 6.375679741568891 1.6783350417204221 8.774475063334943 0.7981125873549868 0.9968827729817863 -0.42426570306358546
P 4.837799232184906 5.094363830815926 9.021602367439217 -0.5857932022888427 1.3974215647420773 -1.5170084578694907
Ni 3.3383169633903 1.6992585231684745 9.2547369199644 0.37014192463598833 0.10339125720415743 0.09776619770789614
Ni 2.6516883717965327 7.900051984759502 3.4776296265447515 -1.427512984810819 0.090709805081747 0.0062362107176989375
Ni 3.684132276302383 8.96039078256132 5.330108502127139 0.5477760996151211 -0.6953360809166927 0.20709824587652076
Ni 8.955065141680153 2.1286198274038455 8.03873685101147 0.4413486266878012 -0.1268929398705234 -0.2878853925279171
Ni 8.8453347493578 2.7479474815427416 11.9948013434945 -0.8675434284532993 0.26747417586141675 -1.059220968899376
Ni 7.124255892023439 3.107317290169737 0.4360571881349197 0.42385792610220546 0.14355240280407536 0.4868669228345744
Ni 1.1615167286396582 3.051148421501192 9.853880764999852 0.27300744697482016 -1.027727783387101 0.7348984165903473
Ni 7.149737604295128 6.911868224174033 4.104324417235928 1.1751694939432535 -0.5272923778394725 -1.317110586396151
Ni 4.847988218731859 7.135887239642374 3.984184061253672 -0.6562296018335343 1.6487119317547798 -0.48158921937540283
Ni 1.3765024955994938 1.2818059436812659 2.33045422007658 0.450595856317682 -0.7246397149768166 -1.1363075267707332
Ni 1.1037853021431328 8.119318605413746 1.4640343962697784 -0.20670872374758595 0.127152107069181 0.1818685247754545
Ni 0.7315849521085098 2.8531936102759174 5.77130271469535 -0.24980709759895683 -0.1983546953559358 0.5358047861858578
Ni 4.163449201511605 4.835164149457246 3.8486853336260958 -1.05401062834303 -0.04574635299717928 -1.0975057234121872
Ni 7.509449511381503 3.956377928639058 7.376180895872916 -0.45912960482030607 0.48222633873876947 -2.0682771440189027
Ni 8.270840485206357 4.961546415437549 1.6697252556292044 0.4869247726557034 1.4497221739180064 -0.08318007236360514
Ni 7.767068143103587 8.056723833251434 0.2800852545990711 0.3310889244985846 1.8234862686876145 -0.0409414754093682
Ni 3.816025101250003 6.824559149797562 10.522593567816822 -1.1100251960354366 1.2172594811347681 -0.5483173168305718
Ni 3.7047506429082855 6.505991516879915 1.669333229286563 -1.0777856192754407 0.4788970172552204 -0.2917603021022911
Ni 5.821507975085506 3.471716870740055 4.996401625496261 0.8998683658382501 -0.5599047645578551 1.2710279331054755
Ni 1.8746440819789474 7.120520546683177 8.771375836211043 0.7291525152455055 0.21009383816973498 -0.7050916176415598
Ni 2.598487438410721 6.74232607688595 12.83806757373426 1.2458138957336933 -0.27437733073915327 -0.007928253708141183
Ni 4.610303756696917 2.582861860130912 2.9054690286405407 1.4803686951592698 2.5728299141690143 2.362704194320079
Ni 4.978642092502263 8.55447709164997 0.5462905576516041 -1.084242173534062 -1.6841322202356028 -0.6741969849452324
Ni 2.5421891270818704 3.357252575412222 2.2311402635471467 -0.47341208288124914 0.2542653904806266 -0.12988981771531824
P 5.107816621583454 6.983061687342395 12.234769543893416 -0.6054798820844928 0.20721265996719795 -0.10545816703551515
P 0.924040299451636 -0.14357410044981547 4.474405606003253 0.34349269747957617 0.07503893131370946 -0.7857928894473692
P 8.416565182998115 4.734762874581242 12.952753770765476 -0.19392956970504666 0.29222104378879354 1.1869569734964849
P 2.9608621659376793 -0.2063205054427721 1.366845148550227 -0.2501909633009369 -0.4896025765981825 -1.7912369217356057
P 2.8606273173392114 6.443535433282216 5.268766549998504 0.18584036493900896 0.793924003194936 -1.4174167769170813
P 7.741660398066359 -0.08026277070366575 11.802763911026076 0.793416210320582 -0.058100246576841874 1.0416305095111222
P 5.562197342875136 5.81725485910402 2.4011872372104235 1.3831959080609983 -0.5493956374964152 0.0035100700357875033
P 7.099439884861895 5.34235747615382 5.521739114806029 0.5494200629764473 -1.2678996718891389 1.1782509610820546
