# total energy = -340887.03810373746 ev
CRYSTAL
PRIMVEC
9.14836882659249 0.00000000000000 0.00000000000000
0.00000000000000 9.14836882659249 0.00000000000000
0.00000000000000 0.00000000000000 13.38956250901377
PRIMCOORD
 96 1
Ni 6.41683984292097 2.3551652664119693 11.514609292357674 0.26169819260958804 -0.26147913462024647 0.0015123228794683631
Ni 4.482655073261575 0.5442575136787101 5.989258797927375 0.8286043281859407 -0.4811253923651069 -0.21671597147194288
Ni 2.9543925849636006 1.7722403414369101 4.617765505502691 0.037103332610200615 0.21229881624085373 0.3841662639395384
Ni 3.4454038464909535 4.540893590381919 4.7431722627344515 0.6259620611982446 -1.9487468151610372 0.8382513643574016
Ni 3.7438419403489296 2.8978099226341425 2.554768955665855 -0.1633874352521315 0.31622126335813283 -0.48468122803716523
Ni 5.445264757276165 4.80906887955342 2.451708919415851 -0.4564438304580268 -0.8161231649997944 -1.4681693248796006
Ni 5.3473223186505905 4.727721582312751 11.670610940070988 -0.1615894628114443 -0.2099254309126707 -0.784688600639597
Ni 5.7900759336479695 7.946575218629621 12.455761476858319 -0.18717399614876795 0.9597498726852309 -0.8337228803594288
Ni 1.830314187915067 6.511086340466334 0.526552675132841 1.1456714844841365 0.9884773225269105 -0.23487824420326647
Ni 2.7057948054744014 1.5082915987482235 0.1269811915384551 -0.6196798277339586 -0.6060961755122529 1.339704412536267
Ni 7.877660554874114 -0.0030189617734391566 6.687390048687576 1.5491220505745835 -0.5314501087615879 0.39702615062134206
Ni 8.618705889825304 2.0446879189362783 1.1424254510989342 0.9027140628171615 2.109095977807477 1.1011289219870712
Ni 6.918243651644161 0.662445292924348 4.540963117986398 -0.21754129558671564 1.3890881051757173 -0.563359812985991
Ni 0.7129763091534121 7.780678694994634 2.505107034492781 1.1419798945651622 -1.190968408648723 0.19112552459734827
Ni 8.069364627487502 3.7106973994241716 3.6518020294088793 -0.6967751273560645 1.396435546679724 -0.43771745769311715
Ni 7.951753195489521 4.1555093974488955 12.463018877994287 -0.435629721926153 0.367357934132948 -0.14526115796506597
Ni 8.35398868413974 7.426810633302513 8.625422622352755 0.33848213163886226 0.9819714030875927 1.5689722525312915
Ni 6.704492009715659 1.0167588801872767 0.4310665735865647 0.42172339625770594 -0.8320506348633283 -1.1088795124667676
Ni 2.559869171389165 6.554522796527816 9.344897018014269 -1.4097212080450368 -0.14934946910182667 -0.7789036185267038
Ni 0.1053343207859953 5.027852124437655 1.3573133204585313 0.01142881066223193 -1.357052159786095 -0.3569408525646821
Ni 6.441183652857702 1.9253108517192858 6.8200404845017895 0.44530298334985885 0.5070480257681397 1.0826946265412838
Ni 3.622900502031155 4.676966431042931 0.5271656158565393 -0.7965848378565507 -1.3966546046690658 0.28529089232786353
Ni 6.1482528771439995 5.544359890397053 4.371142858882841 0.6768786455424537 1.3070580872561555 2.196542795867236
Ni 5.289403994445611 3.147661028677769 9.240712647212884 2.5698813730636516 -1.42802694833276 -0.30519945832633244
P 0.5417993469256098 5.888988099388648 12.372772962217182 -1.4922749596785527 -0.6406991102981031 -1.2149475451721399
P 4.134340071558779 6.349663369277443 12.78000254551019 0.8741200532295526 0.7093362518505267 -1.5258211710651142
P 2.43696998210316 8.497746154769507 1.326568396725207 0.10639584835843612 1.0652453207165848 0.043147481921751496
P 6.440442634967858 8.071477900728908 5.718240195667435 -1.5668577772914498 -1.4752833102165626 -1.7060323627428038
P 4.840283114616979 1.0928184201399227 12.764471359441197 -0.7310268494500829 0.7175354998318675 -1.3805049914923966
P 4.305936029087259 6.169449648141146 8.085073291915297 -0.7568972894589416 -0.0403182400030725 1.2120038891627836
P 4.952835498552197 1.3854198545692498 3.5998777165795275 -0.8134299344383474 -1.3339903928706254 0.8571325175326207
P 0.3231844320311669 5.558512417256176 3.569028501439485 -0.6408842297257156 1.2563410205172623 0.66718198707998
Ni 0.8023330034627059 0.237556612930521 4.637367715781322 -0.28518136333319277 -1.0585866777494868 1.3351090798561005
Ni 2.1459420671436256 6.5728195345486595 4.779886497247077 -1.2881249977970783 1.180159233848361 0.8298094042376355
Ni 6.434267485885822 6.129635946207791 8.974046838928102 -0.25085250814433574 -1.3747205236001356 -0.5072439438290297
Ni 8.661520256794077 2.705264200071797 10.058815609175754 0.7475693271897964 -0.181489544169481 1.5702866004673408
Ni 2.3150862617773122 5.278343616312012 6.950575817400794 1.1467994274409927 0.7178892836268604 0.11039468510518409
Ni 0.9437731922221325 9.08399193769535 8.888821548063914 -0.22965221991763676 0.40506264777257334 -0.4714459602938139
Ni 1.2500605866910506 0.9425839042507776 11.203087201140992 1.3777878496715497 1.4100611078829588 0.17023402586031972
Ni 4.17209539046479 6.749620914044068 1.529476476865657 0.14449496922300278 1.706490790436461 1.3483970552142586
Ni 5.8096259982232406 8.155103141853173 7.858910057750355 0.18706395293346492 0.926394951373869 0.3915353027100999
Ni 5.481693562675665 3.1234178508001516 5.138405589744096 -0.9658274463378785 -0.4039365045879301 -2.1517222971184364
Ni 0.5817365518406057 7.693979601882869 6.6772280403908 1.6267220577472503 -0.3634902236474256 -0.2342979462197642
Ni 5.645431071224192 4.794623604885965 7.062244468889605 -0.11135936301129855 -0.31010666581996266 -0.12824868256746944
Ni 0.9007959842849735 7.687822749538855 10.98798434510965 0.7072204910591046 -1.6649643890579005 0.6198497776529195
Ni 4.864389066959441 0.37752757362687384 10.5173410123471 -7.559043294180529e-05 0.8337125959467835 0.160271258220653
Ni 8.302025948160546 7.485341898231192 4.461429027483595 -0.02291649958685731 -0.20899134913417558 0.31684038499937045
Ni 7.610171393378395 6.450853478901718 6.6525777600922185 -0.521588899696792 -1.5773283378054708 -0.6564705141997468
Ni 2.28032245953771 5.249050538740641 2.7772362487505866 1.0813658804275312 1.420259388572199 -1.8978482285389577
Ni 2.6151344685811226 5.444130359518873 11.555728466548816 -0.9164370688302088 -0.06023606197292207 0.15016965101027685
Ni 1.2746971444361161 3.3198790752989575 3.468646192798831 -0.25022618741424646 -0.5061080304523735 1.1636962031963314
Ni 1.6392870946084517 1.1064769350724821 2.649807701967522 0.5410922598370423 -0.17527750182149812 -2.242227442388545
Ni 1.5509412950748094 3.3407922468567812 8.268095562337793 -0.7748268773541689 1.6589014706932719 1.4002582628599238
Ni 3.9724779786573885 3.042335856260784 7.0874839041524575 -0.22551968580650195 -0.22425650282336215 0.2515325649304958
Ni 4.404775007875855 7.171086274354196 6.2310602540787325 -0.7780831795079375 -0.4529489299308909 -2.245053084762798
Ni 0.38697966848844156 9.339295471669187 13.530019685949899 1.1482819255237902 -1.4138298308967714 0.2541448057423623
P 0.381914216567371 5.693816794920312 7.791815004591021 0.17200680149002634 0.3983551538454107 0.5170123360697032
P 8.687538218259716 1.503287440899523 7.818727676545879 0.8460086397053173 1.5580769457750263 1.4511262533543847
P 1.9678782127247778 3.26157651959554 10.482487556091195 -0.6800179625023837 -0.23136971682937568 -0.2241127781566463
P 4.1161348172280405 6.292046941249807 3.845857232857944 0.34805152049485216 1.168811927156342 -1.0378293905974774
P 6.999627542360873 4.4428871131732715 10.088365755916318 0.7980513950997482 -1.4928303179613904 1.2411198326921336
P 6.516621103717639 8.044334689874987 9.958447023088615 1.855007222114031 1.306705331902427 1.3022817489134346
P 2.4847061715995404 8.723061335127182 5.9471753856425345 -0.05928912467862047 -0.5404993634480497 -0.4343547118684713
P 7.27706098097092 3.9521228576092002 1.1807708398061167 -0.4816591533813898 1.289023855462264 0.2645747428264347
Ni 5.3565713197201275 3.1146720100261884 0.5232034572381257 -0.38809670934219614 -0.1469881679585017 -1.4336059850824343
Ni 1.7145507264571909 1.4743602980885695 7.022477423638203 -0.4297107853385567 -2.95751039874081 -0.5733894293078512
Ni 6.89978224298113 1.2868644752199772 9.225408340695349 -0.3718725341738499 -1.1030474791660227 -0.5169886819206193
Ni 3.0067487008102436 1.6850563847675915 9.206315694570598 0.3194878499245466 -0.11608813594553555 0.8770526534953152
Ni 6.444028795619943 2.4009162598330884 2.447572026949338 0.5228919347789317 -0.977225146651859 1.1551431714199978
Ni 4.65980409077938 7.095493301221081 10.303884862737634 -1.1271073483287042 -0.8100347927138694 0.9296646232640764
Ni 8.394223211047574 7.193152140407333 0.2839415883240621 0.3813637614937368 0.2242845278478202 -0.43159437551451474
Ni 8.295988024613667 3.71022168423563 8.025757096925524 -1.3594520274768396 1.0555787441610982 -1.2632459751672114
Ni 3.3221387224445316 8.402429298049924 12.318706101365589 -0.6094751192868149 0.097711947431193 0.45358167841888336
Ni 0.20921405089933356 5.306721856982339 10.005297650464788 0.1848633457377203 -0.46198378643964955 0.336284352656595
Ni 8.524633211291137 2.2279114534770037 5.540092176253691 0.6496748314341521 0.08917897025951739 0.8318308055430383
Ni 3.6226077542228214 2.8817453866518417 11.939218947096684 0.6738545140041491 0.6014203673031384 -1.0438028345720927
Ni 1.0121389538370138 3.2788303435491954 12.41268729620965 1.1412389026340797 0.44797358820348654 0.7818544736249116
Ni 3.364148032940388 8.607325318776338 8.179657364277146 0.37610585552890713 -0.08795049716905498 -1.6677447800165148
Ni 5.589333272452286 8.109416187015128 3.529582563940348 0.32002109672019724 -0.7912104609185148 -0.1863468722617823
Ni 3.1927441911611267 8.494297219652578 3.604764775304895 0.020754716048848126 0.15353933881345816 -0.06453108980385015
Ni 3.6239617128363637 4.302569429291424 9.673691229922627 -1.387821836868784 1.9940164856321143 -0.38018362514270654
Ni 7.444119347470232 6.423371778394411 11.42508609773239 0.42595003274454385 -0.0051586613828040195 -0.8867724518862405
Ni 7.949539290188998 -0.16012664730011392 2.3710367718081504 -0.5580180890581035 0.6785938284613474 -0.21365173072432236
Ni 4.574340027484022 0.3628115072367096 1.4550435169230642 -0.4276847560474634 -0.648285150175477 0.6791018784460175
Ni 6.193326891258347 5.877763050612861 0.2355046337614834 0.47738366593448756 -0.6261253262489862 0.8588703261593338
Ni 8.31819111620196 -0.03630072823335326 10.761338991897858 -1.7801485251319276 0.40435816550638104 0.27449945813931437
Ni 0.2606708820722524 4.614153729417375 5.7230476635824115 -0.03703956925180072 0.4477157065564096 -0.1191300080956529
Ni 7.561932043586442 6.392249027020956 2.412009572095126 -0.6982283148628233 -0.2796100398930023 0.4264683671418591
P 8.807409297403272 1.620981208218598 3.398927387407308 -0.5495707296216986 0.015322746399999417 0.03682333947593658
P 1.9066481789380254 3.5033313190649435 1.3862084439779483 0.19095917422281306 -1.0713241799208129 -0.9924468486976199
P 4.855249846318029 1.200778322831909 8.098730892010956 0.37598912744538476 0.3307744785819593 0.6099528302541818
P 8.644110910567244 1.7197012582100584 12.321892478291918 -1.843592038298554 -0.07247142769684939 -0.8698016283598569
P 6.48301914434236 8.032990712302066 1.0812686042642654 -0.31242425820954584 -0.6829233090746368 1.491934031399366
P 2.0750970975269203 3.2401510393731323 6.0728492752494 -0.17583286010433588 1.5974245943347134 -1.9650100710974352
P 7.22801657470605 4.140844561925189 5.7301303308702805 0.7712646139242072 0.042106185141430705 0.5214665151863148
P 2.739835886562181 8.736921114177973 10.171943425521727 -0.45278540776983306 -0.6649181307464678 1.1064721885768556
