# total energy = -340869.24518174364 ev
CRYSTAL
PRIMVEC
9.30416863389546 0.00000000000000 0.00000000000000

0.00000000000000 9.30416863389546 0.00000000000000

0.00000000000000 0.00000000000000 13.61759127548709

PRIMCOORD
 96 1
Ni 7.380280715748036 0.5528053304934758 3.5081229029563232 -1.005845638602029 1.5788763990188808 -0.28026387142691733
Ni 6.065452792671361 9.097774457662723 5.175324821067573 -1.2315689557789047 0.6611859173975451 1.4856535977072929
Ni 6.803636243865707 2.809375171368818 10.58449131746339 -1.7779980544478282 -0.6253334264753101 -0.45937643072378953
Ni 9.200864648353724 1.3534867445858005 9.093337299545345 0.4342665230300392 -1.4939335783278982 -0.43205768830417846
Ni 1.585290806939195 5.310168279158416 1.7465106532601757 0.35193414337871004 0.8836588459579233 0.2782429843421466
Ni 3.2944387094089507 0.013368229782024448 11.042164312870378 0.520187134253259 -0.9419987193493969 -1.2539308684138726
Ni 4.736752353861808 6.867220933683605 13.223825360038832 0.2599632121963523 -0.4287221961730423 0.5759222230320339
Ni 8.637720525450876 5.503369345015695 13.11480283129868 0.8838773897266327 1.2869037237954677 -0.643616283944898
Ni 7.2426348420041124 2.919173667789803 13.444702606512486 0.46758956266220114 1.27495195075023 -0.8572788133024977
Ni 0.20145107236320903 5.531319068195819 9.270529612505246 -0.05586852903284572 1.1278547680176898 -0.5320376058339418
Ni 9.156213942114904 1.092393158740053 13.56820056112602 -0.30591782454959576 -1.3980067478215858 0.5478246934648695
Ni 5.171238430115273 1.243855723203845 3.22577580424095 -1.1011690311963873 0.06267938130709205 -0.6756540291067332
Ni 1.142644974617499 2.8880419188681334 7.528880387461321 -0.31170434932438573 -0.4625170332353002 -0.16002726053064698
Ni 8.179415776979996 1.1814712711656532 11.195267202299767 -0.4139442665329193 -0.38942751233847767 0.19472712590567753
Ni 4.726359597273193 1.5838300524321114 9.572077724445261 0.8001928669227831 -1.5248302679067547 0.7164515227390693
Ni 7.440757813175067 9.068875709261436 1.3826488009651152 1.142193553237865 -0.7934727745901302 -0.3423912368852813
Ni 1.2588354350280788 7.918005849393861 5.0114504953779875 0.5274116770261563 0.2339251362613778 0.6891890874786905
Ni 2.4927822184227257 3.5463769931211293 0.519353121864376 0.7698942159392419 -0.3219720497989809 -0.43080761794716127
Ni 7.317477576112273 5.4836072904103075 3.1609973895615306 -0.004955030012430177 -0.3459997801721461 -1.0481940216612529
Ni 4.0324267730577645 3.7855034363476117 2.6304829867627753 -1.0471154438850934 -0.19803305035045896 1.227602514931989
Ni 2.755485425476915 6.141021251948645 8.926277226446679 -0.1759922685003356 0.4316041457065276 -0.20710878739948202
Ni 0.7566857213394845 7.783020967936726 0.9486670106625039 -0.8845936990673668 0.34652017145199027 0.6065126942243813
Ni 8.649499603195896 4.340729711571936 1.3729389703689845 -0.43614394255841016 -1.2636002731828369 0.6240411900264479
Ni 6.585769826427035 0.6067304322269511 12.991971985590613 -0.731218910856231 -0.5269923301005505 -0.5888880391640825
P 5.336564206143107 8.205765183120512 11.636736057263846 -0.1975864497313436 -0.15359718863458707 -0.7816780959480474
P 2.027676122533513 1.3510490523510497 0.1544101251506969 0.7179242506298539 0.4644314766491937 -0.28950981550521754
P 2.8995046548727648 5.352111472266272 5.7437639464543775 -0.0552244676909436 0.5309456583213435 0.4068346520713316
P 3.896362608015778 5.621876543466172 1.4711761065956876 0.6516589517437165 -0.6542264553605766 -0.6548774586810141
P 5.956007854666105 4.120006914300941 3.959478367724395 -1.2117148971674552 -0.9380749588149586 -0.06887471148452654
P 2.080281893126196 5.088756973393637 12.777753732752114 -0.4328488167469061 0.5052675368289492 -0.9762527554362607
P 8.067588971752997 6.924497397031422 1.1752393388800182 -0.6992248744481377 -0.9247216774365041 1.6128784669959384
P 8.148330548902502 5.149550412561056 7.361588640558666 0.11979540959379367 0.5744358682944947 -0.04817167460922026
Ni 5.194108077111525 3.303435840672326 8.210059987454715 1.31792022678164 0.3957295432971055 -1.6606307946795527
Ni 6.109070736169503 5.641340864668841 11.558353086913995 0.39258199880705935 0.11321107150805665 -0.3781208290764069
Ni 0.08634361720501467 3.3748918573245725 9.975553005971909 -0.3731120630079058 0.2995170632295745 0.8787344120731124
Ni 1.434628400995207 7.503942423733063 10.630599986958643 -0.24020299885028956 0.36703654623778725 -0.28928201576512763
Ni 6.460144938817838 7.589568689520905 3.3618567167868383 -0.5985355895561757 0.5236326695996982 -0.45923450582928654
Ni 0.42189753581980693 3.1354025515135273 12.464590296438576 0.482601205579685 1.5722573510404665 0.35989402165573503
Ni 3.6068075697039865 7.777447770804605 1.4817847199012724 -0.7054572285110947 0.050989346563673474 0.6921484272173305
Ni 1.1242320244931765 1.014061361318795 11.504863420281994 1.6179895629702588 -0.2792187179918546 -0.4277174090576118
Ni 0.8139435763496311 0.4739748296226655 7.055682455936371 0.9514896895589678 -1.3951749347997455 -0.639519231057389
Ni 8.66093442669402 6.371680901535344 4.79928846385201 0.9475589870459938 0.4200470369965476 -0.312492649553636
Ni 3.620112531137933 8.683943636222798 3.966763531922144 0.5700351681236376 -0.20310712243925663 0.5810754850981993
Ni 5.592977795064886 8.821049868174295 7.644276271853397 -0.05652981676592845 1.7520710501694214 -1.1620622671373342
Ni 4.482404290421384 2.1526311099865953 0.5588372231491596 0.297360679008204 -0.9930536290436832 1.264860370842183
Ni 7.1799619607320375 4.765865098146298 9.379974550510504 -0.15017916409197363 1.7103890970496027 0.20156188943932382
Ni 4.49453692658213 3.936686875746356 10.360618128624889 -0.04005521614967295 -0.013573110698744367 1.3832450161313792
Ni 8.588538688989447 4.0541799197938255 5.338191505272336 1.8069869854810103 -0.8177136494153658 -0.24628674315052423
Ni 8.73998264511557 8.213450426578161 9.137594439442447 1.0476713163885636 0.46802613597898746 1.3259446397480132
Ni 6.440168888329249 7.371469667861359 9.37134028183169 -0.3060661772020019 -0.3184236703260903 0.6567803321306818
Ni -0.005749045923101967 8.930494806179553 3.0215800020714365 0.8020317199037349 -0.3742333210965426 -0.3220599815270969
Ni 2.9409733353700385 0.8426422851209662 8.14232563833644 -0.06106215741864323 0.03409282791865096 -0.06631389273588578
Ni 3.368471980828472 2.2558887757166257 12.046162285177315 -0.6186153910251863 -0.5029846543320433 -0.5394212998925226
Ni 7.49274020445581 2.7671156365205754 8.334047341348963 0.8249813867213727 -1.0604838947721995 -2.3232809553274505
Ni 2.3035447284891264 0.4982680144506624 2.2678604497565273 0.17103209628158286 0.719897829416457 -0.7154966150249679
Ni 3.2872744994060565 7.99688659277638 6.636492433247528 -0.733908284762936 0.7377389713629359 -0.322455931413935
P 1.7237368392029229 7.772107177893355 2.9215453004258256 1.0812141853410153 -0.6899262227550311 -0.4569169134397034
P 8.08585305517596 2.12881243776918 1.5681748579504617 0.21159201998181623 -1.2411820533886366 2.092727563751783
P 5.342379311664938 9.08526965474858 1.3775966372877495 -0.3635352179527481 1.1709130326597448 0.967227926229831
P 2.6365688435977015 2.242937372698406 9.903297761216743 -0.674740001932896 0.2750419609063457 -0.19342511926480238
P 8.91523596929027 8.618674891845778 11.943499155835838 1.1075317401896216 -0.5795019699634922 -0.386388725512154
P 3.0983812637193493 1.9971956654302896 3.832738840688774 -0.39322143216327116 0.6150284450048763 -1.569055299163401
P 7.8838223330943356 4.165727599955776 11.715868013204908 1.0212714862387962 1.2024537835805031 -1.295036894425563
P 5.581422017371905 2.3925949284082217 12.303806815635953 -2.2329185062827928 -0.1145300474297963 -1.156185496641583
Ni 7.804988110555992 9.129836623467884 7.205803359254166 -1.2211716717049808 2.761866674558134 -0.7846713742484163
Ni 3.226592710264656 6.312980900355783 3.51234420435673 -0.3486816978796834 -1.2068675963774829 0.5692142148842391
Ni 6.127976807242076 3.207788985049267 1.977287535374194 1.538987533243743 -0.032673064752988895 0.3683041000963012
Ni 6.778924371440139 6.956624692018428 6.118002738251034 -0.6009503696452554 -0.011389472783864256 -0.1536532386835031
Ni 4.100551897267106 8.012154733834496 8.95107469722553 -1.3766460227576227 -0.04403374118144675 2.1167403817266126
Ni 6.801245072475131 2.376424282973117 4.9668258408119055 -0.73213679468481 -0.8202639266410453 0.7851925368592091
Ni 6.123613152058495 5.4475071153307875 0.9837986217663083 0.5841844630408262 0.07752570229130519 -0.36448806878432066
Ni 2.0727082996945643 4.649497858527854 10.576429255167923 -0.6313904313026675 -1.41063549232919 0.9242961598633114
Ni 0.9805198326688798 2.503677400128426 1.917152831360288 -0.7551671941417124 -0.05353396736239813 0.9937339429401595
Ni 4.359942820216062 3.717685349709822 5.885196616914118 -0.9754166326882103 -0.8030935855093458 -0.6230397453451271
Ni 3.5096999595738434 6.303602298170176 11.295002309708893 0.9470442521931045 -0.0007569327706825673 -0.6449856534885988
Ni 2.8056535038348467 0.9673544337674568 5.575913949421628 0.3835684824545394 0.2723050215911568 1.6779456318089168
Ni 2.224468597561074 7.256218928503108 13.014618332534827 0.6612293690409708 0.035182975659036185 -1.0463317716415335
Ni 1.125469478948222 5.377549069860965 7.127652062708306 0.5846410909622705 -0.15850979544485605 -1.2802635927711306
Ni 1.859512575011026 3.6123063334854284 5.03431455987294 -0.3835435427538749 -0.6148932049785926 -0.6337607313070569
Ni 4.544919000823264 4.267747811230762 12.874956245404373 -0.15881010029409423 1.1207577519615923 0.5073879256060616
Ni 8.316391750567805 6.725006713041732 10.89826789850315 0.0773099867360733 -0.5310297333947176 0.6970731182124575
Ni 3.0764234252689193 4.032584943927958 8.353970358075195 -1.2029692897643411 -1.1270700673328655 -0.5944305662488665
Ni 9.170626099640208 1.7400935680147258 4.319894886299882 1.2505832920978786 0.4844806819905849 -0.494646052559361
Ni 4.687170438140477 6.163481515516161 7.1457226194195025 -0.38921565343798775 -0.5569541665699633 -1.2290047945961544
Ni 8.971907661663817 7.330540629156512 7.049037418554466 1.6134124851225375 -1.905893210330621 -0.6011827973710356
Ni 6.468807120003156 4.534684415104843 6.027132642907827 -0.05388826537802332 0.9045284903180809 1.2715179853680165
Ni 4.1194021433266705 9.23744864021266 13.209553695462937 -1.0577472125673268 0.2811583582167287 0.26555433313088456
Ni 7.276781141628298 7.554315193805363 12.913521094808265 -0.9186729001392631 0.14659581761608947 -0.3804533338643254
P 5.055699261523137 1.6680327803882091 6.617373296708635 -0.2367878025211535 -1.0588512442647828 0.054329466680499976
P 5.028103096758741 5.559613045622834 9.088203259182233 0.4922616114875844 0.24308391994251036 1.5624017984026253
P 8.428386030833833 8.594986477992052 5.047755362171876 -0.6787180127440375 -0.41271502211150857 0.5076931155513063
P 4.776220638059573 6.956438608641729 4.942613602252774 1.0095017472973775 1.4895382774736798 0.5059439940706835
P 8.74168530801236 1.9787175861241224 6.3672865425946075 -0.46816857509412274 0.9088929379343639 1.3369307064458718
P 1.5546335706281074 7.710392626011279 8.20794887154607 -0.4856579901281378 1.112966795162264 -0.0885289953803443
P 7.004997065791218 0.338428906784785 9.413555156669526 -0.11377722842417178 0.6296904178924252 -0.6185243739732768
P 0.08795137757969021 4.736891916394332 3.303015292240987 0.9768279112134403 -0.14215732222876162 1.676004963142778
