# total energy = -381170.1792965774 ev
CRYSTAL
PRIMVEC
9.23877756488859 0.00000000000000 0.00000000000000
0.00000000000000 9.23877756488859 0.00000000000000
0.00000000000000 0.00000000000000 13.52188483616752
PRIMCOORD
 96 1
Ni 8.272909370992618 6.4489714692107265 3.659075973343902 1.0451225818247807 0.6642249613341851 0.9936539816318436
Ni 9.014422879795672 2.7332460847963453 10.66031568389752 0.25202081742082405 0.1649892325216126 -0.9529804151718814
Ni 7.128566692221202 2.0180538526604135 1.6415431877259685 0.11672371264700541 0.6054240891458927 1.0272534148538437
Ni 5.059034372172511 3.5056725426089432 3.078784672546213 0.7253940766443379 -0.014479167452781515 0.2807063582809746
Ni 1.580348298199813 8.630893515709241 7.441958030307708 0.3355127645978931 0.3443319055514199 0.8349289848523879
Ni 6.940880930377542 1.391544644296931 11.312435706949994 -1.4958210251585982 -0.6083420341236362 -0.22254877610363608
Ni 8.360714710916918 8.47667060542343 7.4923139862480905 -0.0004674265547217756 -0.0703474393753111 0.5822785042673649
Ni 3.8346192101178547 5.097800281928651 1.1544683787458518 0.0006391762458956734 -0.7153413203940261 -1.0536563303274047
Ni 3.6612535531650465 3.8714449766307184 5.325188765551634 -0.5757556155471826 0.9863538484260044 -0.07445143424135564
Ni 3.6674989666529285 4.107403350122576 10.134827886455994 -0.14387456203018448 0.16996020337364276 1.1199964483155356
Ni 5.036334696226172 6.492125798207613 5.640207976207023 0.5107987510598235 -0.6157123584457783 0.6417735743092043
Ni 1.528943741030326 5.065658575531699 1.5063383006129463 -0.1445852149439639 0.7606061057690965 0.8395600558664961
Ni 5.576849365025747 3.3747036349104085 11.741512243366687 -0.25047969818594923 1.1467248654493154 -1.8328021467719016
Ni 1.5553666442482865 6.18022467490749 12.899905254730367 0.1070746195930156 -2.8794483643300604 0.20235430343363214
Ni 2.086688729585669 7.5339088096284765 1.3329292214065984 -0.029657932075748922 -0.5573529446702788 1.1574679628984323
Ni 6.0908764591659175 1.088577418693231 3.628340408859458 0.3221707960733484 -0.8839475808429357 0.47449863107720863
Ni 5.739627383136671 1.7563470066970677 13.347357719294097 0.14239437794023216 -1.437438471454647 1.2070390889583404
Ni 7.335792468157866 1.4032316976433366 7.225324407396623 0.5420703074795955 1.4972127632998022 -0.46891522345216025
Ni 5.01313612630299 0.27379024285802095 1.6943326376200611 -0.10135802882421253 0.8629740639150622 -0.2458861652779959
Ni 1.3989726212854765 7.979864592261677 10.112908887195639 0.21521059057101002 2.1854418008580687 -0.20503210737611144
Ni 6.297871265668857 7.0357631737511275 8.08764232105891 -0.3084123088366753 -0.22046078322635582 0.8514735194746305
Ni 8.886881558493593 6.616535173988401 1.5159789647765622 0.10649175050635208 1.321785109053685 -1.5011306102969697
Ni 3.4982076105110016 0.32859467009191684 8.671476692969918 -0.26647170273883136 0.17700965402125646 1.3053153935334358
Ni 3.9796587757188204 7.778560872605684 7.371711910612798 0.30008142037347674 -0.1729444828129473 -0.4709569364725373
P -0.08254662785728467 2.5020272040844924 1.2255016422708909 -2.6925067959070725 0.02161989226262083 3.7035452915639513
Ni 7.5677134959482375 6.711980982780272 6.109471346336123 -0.8643999977283113 0.3332265396668777 -0.5355458760975165
P 1.679776020029076 6.638819104954039 3.4666599574975856 0.5828811708483703 0.6093900157721763 0.08906558461010468
Ni 1.5042392503992676 2.299836561803 0.22584098841703654 3.3645006025533997 -0.06497023422379779 -1.5001718459281261
P 1.7743811000821934 2.743020711231521 4.985721902275488 1.8496279600799888 -0.14435381565944816 -0.39336824215378063
P 1.3708959769220561 8.10641736438742 12.527309059758666 0.36510487643271317 3.4384532427814656 -1.0034557982136139
P 3.4037688284501657 4.844158888590928 12.349009895701526 0.43268735146837745 -0.09139114741948777 -0.0626968648085888
Ni 3.9916507087177413 5.703161928940417 3.6495840534956043 -0.8396212481217348 0.34525287470379246 -0.5291723684710048
Ni -0.02327987116385212 4.3425764275397745 13.562855896468998 1.5027398637656182 0.8091960988626581 -1.762647540133687
Ni 6.073211916874749 5.518589635063348 2.3558096943715365 0.2938521516343133 -0.6722491171902422 -1.4110993193394858
Ni 5.935895969137495 6.894696282410204 12.159893047246516 0.21709160964380675 1.0262838518517228 -0.7025369695405062
Ni 2.518453750210903 2.4530432065804266 9.122998838955853 -1.9075939950718115 -0.49205129524899127 -0.3904173870555728
Ni 5.913408785070182 0.32667300440333785 8.66345743423104 -1.310764075352833 -0.6667924649510452 0.6387656407208161
Ni 7.600335618767335 0.08214104553166633 13.362866854829758 -2.017477544868532 0.7265348751170003 0.17522145177258208
Ni 4.554283010490671 7.2639055416057845 1.5160057572308743 -0.11011674885344908 -0.38582771080236133 0.1766478998064635
Ni 5.4040195571591765 2.296963302047481 5.572490509872518 1.2914224376014276 -0.515402568380422 0.7881179380361201
Ni 0.5158646869548752 8.671507180935167 3.388394579063799 -0.5362354459653733 -2.5747276454123593 -0.13614402615514618
Ni 2.024059057937223 9.045067904262098 5.037848931833662 1.3823317602884901 0.5118912127930539 0.869708040204786
Ni 2.488390768717461 0.8826275179084565 10.890633783817853 0.17777250032921 -0.3493992927719982 1.0235577111698115
Ni 2.2768597225361935 0.6286054869439567 2.435223452829797 0.9081892269991196 0.9203754846526666 -0.2751761724913648
Ni 8.651505227974718 7.072487313713154 9.548627463665925 -1.7080252248031165 2.334353153981212 0.5682022286799568
Ni 0.788117597262033 4.694943395628242 3.771807534555635 -0.4683043293410386 0.27318356754136824 0.9502414189741635
Ni 6.1461520640446095 7.369514005481487 3.454962741496096 -0.7895261312375564 2.241882143233984 1.4411822547677955
Ni 6.813145594751135 2.9688349071942457 9.227807224713137 -0.3041324505143988 -1.2909331566698348 -0.022333887610509924
Ni 8.117882687077453 4.450439153088617 1.9719505059337468 -0.27678028375369107 -1.232717210450735 1.5337980186230036
Ni 7.3346191434345505 5.5781150775225505 13.384475431171188 -0.11613158758896128 0.26344088633230756 0.1493659241620589
Ni 0.08318595124983114 0.9670782577773572 5.845889028570944 0.29263679116997343 -2.697873973756257 0.6471227544362597
Ni 3.8050458838239063 7.586505169075976 12.811282283010687 -1.4081808601411103 -1.4579764435069986 -0.38592669827407083
Ni 2.732848817370341 0.2837256240190681 0.1543965992999698 0.9764386461948215 0.09240879005072472 -1.2763963965062404
Ni 0.3000329899176773 1.6838318432852593 3.4589926961757027 0.11723639061736583 0.632245323103795 -2.1092289038409158
Ni 0.542702411275803 7.30967444459242 5.800604237517392 -1.6067553848173362 0.14245402753357403 -0.8651721000076454
Ni 0.44580426668467926 9.33513779668668 0.8148370652328945 0.15239391235510527 -0.04106077459605186 0.170192631099423
P 0.34958517222870233 1.160177943147495 8.191854805677188 1.235366475148124 -1.2708854939903402 -0.7300909678993749
Ni -0.07695347205023807 0.5187970748854278 11.450953619620345 1.3048489954199785 -0.7928150864014734 1.3844876302892286
P 6.614243957205865 8.09364937409119 10.357695836322142 0.11853042683844102 -0.08003689874893313 -0.15829382277930804
Ni 5.750630766959256 4.94367899819368 9.647716122366479 -0.7025277135691256 1.3658713007396217 0.3021084781058345
P 4.159731785026957 0.2120650475120362 5.872432959772175 0.06382686464797395 -0.6923320039830464 -0.4612955021233733
P 7.749070695307877 8.859257614220272 4.540676139211157 0.06063252608039235 -0.5897051357487392 0.30453971325514645
P 4.884347570058805 5.161159816987664 7.565940574574976 1.1080091940466723 0.6915205638253444 -0.8716924176246665
Ni 6.195828969849845 8.789440173794352 6.297169118590339 -0.1207999395989081 -0.18016799714458004 -1.20002794774783
Ni 3.680396299832045 2.2911428723176503 12.60948151713332 -1.1486904738161186 0.4776477182291516 0.10107700724868397
Ni 6.833840456012755 4.968595980703763 4.687171736122316 -0.6015003286114545 0.25830356510574226 -0.1488992689382855
Ni 2.541716991575527 6.440573420600542 5.757456375664651 1.2845313669085492 -0.6882637474509437 -0.3795421349039657
Ni 4.445939868519685 7.5365788162823195 10.08243108459923 0.15727078083143237 0.2714907532199776 -0.29977340221475474
Ni 2.951780124208107 1.68504212311797 6.830404554716686 -2.514614996391179 -0.8656945481700187 -1.6456044964740497
Ni 8.99340466132684 2.97079352799222 5.188022486007433 -2.9598750423182443 3.2519544183228515 1.402187618672153
Ni 0.9251896412772757 6.2136782876879915 8.037461901888157 -0.6361973657730077 1.7116710490858198 -0.9609228099474095
Ni 1.0786826881525193 4.473443708687471 9.435570697491508 0.6939913939633403 -0.33660265522796223 0.7898403200438656
Ni 2.149854250320353 4.078504454575101 7.369237766038753 -0.23990038000820615 -0.4456179434871165 -1.5919836258248001
Ni 5.847804227115379 3.9115227927704086 0.4637616782178086 -0.0841321518642293 0.2633475552875529 1.330696809721018
Ni 2.583818099954634 3.5457134036392377 2.8170140790191596 0.4402841899790288 -1.0367898935893693 0.6746348438135994
Ni 1.7247688657184002 3.5579178285171835 11.724068507854158 0.19328345148061551 0.46697224079317645 -0.14712263665383693
Ni -0.10404895825920127 5.510958404973126 11.167859927971943 0.30957187636241523 -0.5520045358741719 0.7641825102664452
Ni 9.039764846063807 4.9650944840885165 6.459837195250811 0.0704579968112464 0.6254774082523421 -0.9632182908498057
Ni 7.734759829194372 9.003262436758158 2.2691074644627 -0.9480760358917284 -0.5939471988545448 -0.25402087856998834
Ni 3.7293618197814125 1.62757692800758 4.200194858182098 -1.52336551043577 -0.4689093099148892 -0.7846492627612293
Ni 4.953703071617277 0.11514934924394939 11.980524956650104 0.06125936103111385 -0.021920197111859024 -1.1738281494240106
Ni 3.075598218238565 5.826896873974734 8.471230813320377 1.3536513616346622 0.7451805152426457 -0.11180982028515583
Ni 2.438926354791251 6.189287915486798 10.591921939061073 0.6347400645011908 -1.6812178748022852 1.932690533029123
Ni 8.488459285320674 7.517925724814815 12.345075100428614 0.37898600529017956 -0.5977421471206028 -0.32686768732838545
Ni 4.43780974445262 3.0246371223818267 7.558287171419117 2.1125294289690584 1.655472390407065 2.0936130516805296
Ni 7.854328085644319 5.154332360526799 8.866313268481655 1.0569288304310893 -1.2704324656133217 -0.9454272854149718
Ni 8.052490621001674 2.4930193961692786 12.935088366630591 -0.4022388051705331 -0.2724662297593695 -0.7268246384432773
Ni 3.718072033861011 8.278859143605334 3.5499004175337756 0.4258813842901375 -0.4213068775455777 0.6888309328083233
P 6.5405277527386945 7.6457257318826635 0.8215813726976188 0.7606292456975481 -0.6220894656167156 -0.3362606985075112
Ni 8.008671100035665 0.712329135035496 9.495703127622537 0.9306005048147844 -1.0970421535122075 -0.6869956793717975
P 4.693252699373386 2.0401622468564207 9.749183766234388 0.09480094443198511 -0.07303321373759035 0.15453949794319835
Ni 6.874851388664687 3.781690254685793 6.833893117043644 -0.022403050285548513 0.6933023383161157 0.3722052349229203
P 7.010393491150945 2.9839587857144556 4.171528779823815 0.2751437765915326 -1.0706911743225045 -0.29519940969082714
P 7.529483435278335 4.148515909325347 11.219756911974128 -0.7898302927415365 0.37052887566176185 -0.23146176232254978
P 3.9208724354475333 2.293849834080889 1.7042578561260244 -0.14525318754526598 -1.440217576861681 -1.3630407732693623
Ni 9.144920609849411 3.1717738904410013 7.8792422965211975 -0.6415290623985661 -0.4424973955802637 0.44603420508892866
