# total energy = -340891.09261258674 ev
CRYSTAL
PRIMVEC
9.06966770581645 0.00000000000000 0.00000000000000

0.00000000000000 9.06966770581645 0.00000000000000

0.00000000000000 0.00000000000000 13.27437546352476

PRIMCOORD
 96 1
Ni 6.307627348998038 2.060175008806932 11.337802891786762 1.258764285246774 0.07892412530072859 0.23796562487933856
Ni 4.629430463329617 0.3425949052615911 5.842742486819223 -0.9212123787316651 0.12207520676690588 0.25441065780923927
Ni 2.389195342482869 1.5674199648778957 4.555115420462955 0.6637907020102438 -1.7765968032249273 1.4853250107232807
Ni 3.0664999839430673 4.401038092333463 4.953147762325168 0.9741310811075673 -0.08890206244904689 -0.6441734419999486
Ni 5.281829797397415 4.286587956140927 2.854601710552093 0.19212388395487556 0.9458386619207774 -0.8289192883231982
Ni 7.2413405648539255 5.90170530323901 2.713083151230416 -0.43028774088794924 0.10289092052897117 -0.9186880696479145
Ni 5.220573262026593 4.503761148242543 11.457989592773796 0.2490193115903389 0.4886792934529648 0.423031059325536
Ni 5.874342115910943 7.917593124865646 12.436682918419148 -0.9838071707447509 -0.17968411552962604 0.22006354778793713
Ni 1.9095187593185239 6.242570622877976 0.4683812190614698 0.15939039827759646 1.4896614333151055 -0.3877969187135902
Ni 3.0055699566079808 1.7202982829428293 0.7054596107749216 0.1486277604444537 -0.7038176360251428 -0.8060976624429924
Ni 0.4065342483260292 -0.18809220971887933 4.3576451743843725 0.8677755990687636 0.4187226617581692 0.8833706252935432
Ni 8.844594786653662 2.5370037163262613 0.9411875289739055 -0.0380096464745539 -1.5087341336758402 0.9738094361020906
Ni 6.863298677479545 0.7711013304590077 4.822952683076111 -1.0092677769097005 -2.1005668572905436 -0.13078121918133606
Ni 0.6683646700484397 7.234492965771164 2.569587404359014 -0.5164996580993428 0.05175424975415603 -0.3681485483550434
Ni 7.688765409821848 3.7840648801428385 4.0543264649213215 -1.1250345249600753 -0.548035781034411 -0.025224064674111396
Ni 7.791307072377741 4.10794271225596 12.775630910314941 -1.4040002464008596 -0.5918694903899097 -2.067829514958522
Ni 7.943822603736303 8.838717642010444 6.970082223599687 -0.10555458340406337 0.08749001259286868 -0.717642714833693
Ni 6.845640034546914 0.8676969188974728 0.26585916809666565 0.5833786793100791 0.013711693159137676 0.1884721461349012
Ni 2.015388989905375 6.279992071640191 9.30775278411015 -0.8688876011860198 1.6891576984746521 0.37047925337074905
Ni 0.018610958036855932 4.9630491185088115 1.244927977983113 0.5931797245609011 -0.3286047246241502 1.6648471467537456
Ni 6.477901289633483 1.8922501120952422 6.755356027832546 -1.3666868546623818 0.12589972271931865 0.6016936755691832
Ni 3.599460864605721 4.536103583115558 0.7881631892596576 0.0029418562371433207 -0.7929870932029635 0.04516888322715447
Ni 5.980620481542463 5.585464131295009 4.837474127965394 -0.8552106179195593 0.37361471367593724 0.35729515058030725
Ni 5.306199994397917 3.0520701426971426 9.307062582401278 -1.2179112557861542 -1.1338757774007893 -0.34051381735691033
P 0.3061212367697704 5.551344041560772 12.363594094620021 0.559390543925598 0.8795810763441239 -0.9367678099677608
P 4.18128911461661 6.402568630055449 12.919843160931427 -0.5551988744417535 -0.5077900461404867 -1.944812770213954
P 2.1043442903076577 8.421766880377724 1.3256226250813172 0.7841031604497721 0.2631148704514565 0.23506233518961453
P 6.200877360648235 7.797646770071582 5.600113458498288 -0.26925569324187176 -0.20420061261375155 1.1227218176664988
P 4.7721598232838085 1.1653888065447022 12.606395446626484 -0.10582146391220486 -1.3725502554216942 1.0726246438997915
P 4.15129572366735 6.375123815718448 8.242377923744696 -0.6069443824451612 -0.8975890828857703 -1.2512690053109936
P 4.491934301614832 1.0181155430932078 3.789143894032039 0.17071739325464147 0.20868564496829864 -0.880403058024787
P 0.0015409365353127793 5.429511195893576 3.815122143108533 1.7653708526021208 0.19936076802294697 0.004856042540720668
Ni 1.3748165024652872 1.2234256098964769 2.330024830673684 -0.9968498628613219 -0.44734186815675864 1.0816749270275177
Ni 1.6148361874006456 6.583662684208423 5.087935721276889 -0.02642142741632224 0.2024162670198191 -1.5927392730439023
Ni 6.017878676286811 5.415308096339134 9.058433968923724 0.4143492152808219 0.9258794451900312 -0.071808854412186
Ni 8.868194061903125 2.361786806816505 10.187100598082742 0.029126485052311128 0.04679099221160974 0.12085907497161766
Ni 2.277438897585141 5.331486227832008 7.003215533492591 0.1633565820141961 -0.38353737210628785 1.1979952335885176
Ni 0.6913290685617531 9.064633993735612 9.316580291642932 0.31965600007129463 0.2847954407486837 0.06199289676302872
Ni 1.7552527821017194 1.090137773975602 11.318794682306429 -0.9048491068822933 0.5662427909607408 0.6550180980239364
Ni 4.0968142300380155 6.784991166909265 1.7729785405750291 0.32916368245141375 -0.028197545480138538 -0.6800778692060416
Ni 5.63514777073258 8.160224874086879 7.74761576236266 -0.6327243196227426 0.08703389889205657 0.033985612916825336
Ni 5.296450101664184 2.958970004174567 4.818200177222644 -0.25633589985641014 -0.0022674558779380303 0.631229737355087
Ni 0.8200076993781784 7.5376738162857935 7.1669810806157335 0.007688626893509338 -0.03302016367976249 0.2847085374618323
Ni 4.88553066902489 4.6507079036583026 6.967387625338112 0.18419305914357312 0.25105536818376123 0.15308039689916864
Ni 8.308976493366838 7.331683524408079 9.299005089652766 0.3520030489434325 -1.4602598402245368 -0.5968931688567461
Ni 4.597904298545936 0.33597223393678005 10.621013452171857 0.14257204116867706 -0.22925575581016644 -0.765073911732463
Ni 7.9654900397743384 7.065125991901647 4.702567356367337 1.1025306874306045 0.8586335275581793 -0.08469753744939608
Ni 7.414906794849691 6.383776278665407 6.935051539232458 -0.20616339276707718 -0.735399781706798 1.0187371498527167
Ni 2.112779081230794 5.352019955412632 2.7891187100520445 -0.15244739130086005 -0.8326031649326887 -0.03481813612044971
Ni 2.7885418791889136 5.266066715005574 11.623388587042374 -0.5294798724090946 0.45097766513713294 -0.059101177037530477
Ni 0.9846031210921442 3.2953004899838882 3.858528665559113 -0.4220599536615183 0.5345210343774278 -0.5776723729539213
Ni 3.5346762285154374 2.7756085331067712 2.882490938604399 0.15510051265299094 0.349332701200121 -0.19665365350442907
Ni 1.2318422614842945 3.330527079172557 8.285533216401113 -0.4535945339346898 0.537286770048023 0.2568999998899963
Ni 3.647004062475701 2.6710443346628567 6.660152633379782 0.27735955329592876 -0.3439174437218206 0.5572657842731112
Ni 3.9557355495978137 6.960280633760295 6.054269810802933 0.15528948873534545 0.25062933638993606 -0.5669752982513913
Ni 0.9682414406347913 7.648722827106098 11.620866312466326 -0.8834451872852204 -1.3553773431868334 -0.45910697911248677
P 0.22551456544786144 5.64926017361043 8.175661448442986 0.19622865015186852 -0.023002374432444257 -1.011974377207586
P 8.778522257755759 1.4156300069320766 8.074709698627764 0.6360598117538787 1.4715770650095688 -0.9349407840613511
P 2.146599871932273 3.0864351134581796 10.382871188441971 -1.0022687198840479 0.7307178028500964 0.0037029027728839453
P 3.8395531068823536 6.209992376645817 3.8427719319346343 0.3403729209036719 -1.1034251742204157 1.1490010630780016
P 7.062105792571105 3.89362646546702 10.356136529082693 0.30252525392827895 1.1130344151754057 0.7322080142423777
P 6.400972368547415 7.997524105946939 9.722258363341924 -0.9047228657170742 -0.8096108178025734 2.635370970126029
P 2.2776474999413043 8.629815986814098 5.784243130416824 -0.06678260484218822 -0.4745490246991698 -0.405585867265895
P 7.108714814672179 3.794141280912306 1.678505254368837 -0.6000466268840634 0.2664382783977347 -0.2055363007060396
Ni 5.332665284627715 2.8975139361152413 0.5241097919939558 0.5893364395554109 0.39214362571806016 0.6505076117480925
Ni 1.7280891274621564 1.1941487226922998 7.143711034302302 -1.0267731327833156 -0.5627928847389275 -0.8719035051942081
Ni 6.986936387010939 0.9517074364919119 9.04375199091687 -1.5468494524903231 -0.3719542952543788 1.0015518963226817
Ni 2.89295189328262 1.4282277753108255 9.162412266836848 0.6856548490731869 0.6922001063908724 0.20191258791052322
Ni 6.341892553414822 1.877393996469331 2.8325125349679006 -0.10853269219578082 0.5698670179768895 -1.9950678097147638
Ni 4.315139269932361 6.889056533631918 10.35285784422386 0.6916979699434733 0.43801801965267145 0.7732147956720425
Ni 8.066217768798374 6.97153609132547 0.17772285868401705 -0.06371707854298704 0.23438073574155763 -0.10397155518765964
Ni 7.418280711218946 3.3426895035036606 8.252360906937273 2.0362825933901774 0.9203088930807891 0.35558459564710376
Ni 2.9685747822257507 8.553730544820343 12.557372985961273 1.682872636796889 -0.5555426309344174 0.8479750194030686
Ni 9.237184420953538 4.818424198013829 10.151113970744223 -0.23275039922698623 -0.1368431091046998 1.1650203213243935
Ni 8.640518194652055 2.0460444665937634 5.749477280345247 1.239385623609846 0.6117744568439528 0.6391389648998348
Ni 3.5778659859089594 2.873198157120694 11.988473547198698 0.3645518321427205 0.04198534329285027 -0.936212194574607
Ni 1.3330960312325693 3.557613418025773 12.630117162389347 -0.3089658673473002 -0.1714920666371369 -0.5138275105838183
Ni 3.021187924317272 8.32688001732627 8.103727193336885 0.8884881490257667 -0.35130705131767237 -1.0019846129847259
Ni 5.417784115610119 7.920359373501729 3.513767016693718 1.1387770713571486 0.06614265726534414 0.9211162194734329
Ni 3.0722048049007586 8.267854620199632 3.3482220007758254 -1.5130888111001102 0.8944158273641112 0.9275511764654992
Ni 3.4998033563654807 4.602711222405358 9.418886142839686 0.7281199602159331 -1.402785914377784 -0.36377227366421866
Ni 7.138427045924002 6.157215980536431 11.204621170977498 0.4867057146663618 -0.1762421797276126 0.12889634345379736
Ni 0.27565350220192913 8.989337612828216 0.3953404645009377 -0.25052957758727823 0.9494199515141325 -0.7083798014745285
Ni 4.772812839355277 0.14778842057454195 1.5094557188673956 -0.2727598497403883 0.4682495648437033 -0.3062055309933436
Ni 5.972494059319741 5.491611210356711 0.5065409387711519 0.3664444211797431 0.4767043804792758 0.10077104597249097
Ni 7.885323247333905 -0.19745845551062452 11.25882059794263 -0.05711731383828227 -0.24047245046159232 -0.11353194518258512
Ni 9.07039323269926 4.707719834564577 6.184412285979566 -0.3526147143855024 -0.4449538275405563 -0.4382558466950903
Ni 7.868535292496565 8.770250720850491 2.4299807309799144 0.7025130582811062 0.9544819394180724 0.4832349825089419
P 8.358306415765696 1.5683178619761649 3.616802976137043 2.06118912682387 0.6981892340947717 -1.3306746982338309
P 1.8820467359785449 3.3806188536547968 1.6129959518325765 -1.2895768997522565 0.19799011292766547 -0.33206568658955715
P 4.790353576608337 1.2803377744584994 8.051665487039049 -0.29849762082612463 -0.47957655982074826 -0.027337768583004532
P 8.57144360575893 1.617221509995038 12.187681541600798 0.12187260383779656 0.024930187582776417 1.4708291310999506
P 6.4111576053287935 7.658826436878543 1.4956235687202177 -1.167738491586505 -0.685015158606659 -1.2609882894812863
P 1.5758094074627358 3.117099659814227 6.062739066463174 0.8024253557977277 0.6495604173434748 -0.18402002390081856
P 6.902425223761706 4.072063106995823 6.272739965379826 -0.5058576050044643 0.12231097692679581 -1.0158968521904441
P 2.510266336066685 8.298047543837397 10.192051729657944 0.7465545127720369 0.7069487254549567 1.6145867079362968
