# total energy = -340863.1498171996 ev
CRYSTAL
PRIMVEC
9.30696786442559 0.00000000000000 0.00000000000000

0.00000000000000 9.30696786442559 0.00000000000000

0.00000000000000 0.00000000000000 13.62168823231668

PRIMCOORD
 96 1
Ni 0.4055613531518638 0.6686153482949562 13.510453078865615 -0.8630475974654749 -0.34217166467530746 -0.007251796466406865
Ni 5.403755716985142 2.8324546146667275 7.376198124265972 -1.3691337735409776 -0.40757461556114966 0.605800498648705
Ni 1.0594586628000766 2.7139955303770154 4.42090549702871 0.7985460753479795 0.1574787830771804 0.028090073367996782
Ni 8.594249377269817 6.017429243133064 11.998827491693596 0.5341140287469963 -2.2536369697770673 2.0605396661653286
Ni 5.609709604182427 6.993869754466749 5.111824062607755 -0.47822467377854416 0.14700616568063068 -0.39232951647662107
Ni 4.1626715804332015 0.6728462957900931 0.9668869090376928 0.05125108486549238 0.6693170311451119 0.17313063068182444
Ni 0.3181140157793225 2.467035143699807 11.278213184423542 -1.0778313849117116 0.053081196095695685 0.4382633028942581
Ni 3.674800336053353 6.210567435871916 9.415732599965068 -1.3332213759150846 -0.4547435599374685 0.5263413267801129
Ni 1.7926150396795604 4.2024588671505585 6.27472129460207 -1.100278658171634 0.28928690086113407 -0.8024289553421535
Ni 7.650243648207474 2.5933493086888055 8.995640278216289 -0.5433219204985094 0.9233895888886419 -0.6364267081749942
Ni 3.558211952261931 1.9430621717932621 5.89283779785667 -3.3646199017400833 -1.2763691428127306 2.590126239355617
Ni 0.17310029138154898 4.274420341044968 1.6658373877014334 -0.3358194972050345 -2.3720511827526183 0.6418131692978882
Ni 3.4022830162005047 0.797731841244328 8.509454525678432 0.719500079757406 -1.040952252497175 0.478578457573537
Ni 6.540685578530313 4.055362243392002 5.067649471338687 -0.8833400291659238 0.6651639282086866 0.2547485007646322
Ni 8.696840081710853 4.961293167785174 3.741973375090201 0.2081354288917835 -0.467431182707466 1.014545223258556
Ni 8.733100027687652 3.502872722596105 5.920598620972584 -0.33307561591131024 -0.22339955413970558 0.45566915707553135
Ni 8.150521080469014 7.861288446711049 10.993355756159339 -1.012933398686746 3.480927867005908 0.21185658649711256
Ni 4.665024466481403 6.7592969417359265 1.0741655330856363 -0.5199464789973626 -1.2776297546927093 0.8147422254918677
Ni 3.1671517854104914 8.190503813507089 2.105626975791408 -1.1186299069853123 -0.33107555476214595 0.5977377762452286
Ni 2.1333710463655464 2.2919896960787427 0.8241580451987757 -1.0411877655467487 -1.8127544840924068 1.2570437030112416
Ni 8.789602628310126 7.485063586298784 7.080798693741008 3.3159849143411986 1.5763042674163303 -1.3095453724543833
Ni 5.700843431442395 8.96462015502823 3.2526958478979564 0.2440701951151797 0.32554254075905875 -0.6319699579552213
Ni 8.067744910161606 7.226329885540299 3.8140046512420103 0.7512393198422159 0.7538124798860308 1.6532620130193074
Ni 7.289300828681735 6.146442428741485 8.181758056003392 -2.3197310331926633 0.6366408810683294 2.1685455393233624
P 5.9157971563603065 4.581438589988166 0.24982693271438886 0.10039309380778193 -0.31462949339098073 -0.1702250269992552
P 4.45439848152222 6.684199019742394 11.31929600103822 0.6221771402345155 0.4321111672499332 1.0353048244034107
P 7.034857640011367 6.1007824454349695 10.482965372845849 -1.2444653521255988 -1.003132096325608 -0.5871006082463566
P 0.8639332328581835 8.867790463564516 1.67933621358561 1.310975934253323 -0.15317115684076202 1.2775068559615999
P 0.21618131395136733 2.8500820114018555 13.600451456071893 0.20409802559761625 0.2478630864987086 -0.6749662590110892
P 3.1659325726479244 9.030597248721644 4.7958832237754505 0.25479169529774187 0.18659832615095603 -0.9782520452544765
P 1.8042394422783858 4.896898258592802 9.592787421902454 -1.1547742181163532 -0.39379016018254764 -0.9819310367679606
P 8.807741908266179 2.5397784028770847 2.9516703554266432 -0.06992166469180215 2.228579769698123 -0.8007739362372338
Ni 4.749810941801898 2.708932539973684 4.383282080290718 1.9147228928071087 0.7436946747257386 -3.2818380932561606
Ni 7.592056486439774 5.9604054523220125 5.799501942049959 0.5900275520851644 -0.514354843842198 -0.21014243201948324
Ni 2.5889843408594624 3.701204203285433 2.8511281145660736 -0.9700535686040841 -0.68348560933601 -3.4212926718417784
Ni 5.259386034748969 7.793003225039647 9.354122335494527 2.484854477299295 0.38827411546032486 -1.7027308091733966
Ni 2.2618165069471234 6.204871571668169 11.386668209182847 0.44359114286507473 -1.179226951842079 0.06537749696454548
Ni 0.9690228581140983 5.231967708042692 13.46333562442461 0.4201437104754119 1.3955107208726096 -0.5440256314337535
Ni 5.297535295159365 0.4099374893423904 5.449996455073216 -0.3189756861748184 -0.13827341379332317 -0.28985511465977826
Ni 6.083145741732189 8.435519043944781 0.7808396949538011 -0.8913850109575875 0.9245357866779432 -0.07454013730042001
Ni 1.7001689299804945 0.30080491733793296 11.601510250488921 -1.6556225428316842 -2.196054543376908 1.1015577819943736
Ni 0.49279556096514726 7.025234235457975 9.241947315764243 0.4462686896972379 -0.31375660386772414 1.0775395647029056
Ni 2.7034228151229995 1.9202694080106173 10.806316419323617 3.2163713790119184 2.6681111406715274 -0.8541659787051289
Ni 2.891423561717294 2.9325417448090567 8.262603030522765 -0.4453384645734846 2.037285066512762 0.4622208421511201
Ni 2.1885334436459614 3.547481018557811 12.606586439897919 -0.07825563847879427 -0.1679496007015172 -1.490846454762142
Ni 2.7223904152001865 8.268058774961062 6.784880865117762 0.863369756691584 -0.44882385201892383 0.464791945312406
Ni 6.6795641498511085 8.193454122253147 6.888269176686674 -1.3498340447711012 0.44632293997394107 -0.9908453085384549
Ni 7.711018146982758 3.621713392559598 12.750063583936154 0.3015191812612678 0.9804012303869954 1.3066829633049237
Ni 1.0088659866373744 1.094890288655744 9.384933982607155 0.14982897984140647 -1.0443540790898724 0.7164214408320823
Ni 2.135288281702102 0.9599857925228578 3.1512005735497013 1.7720575205936773 -0.04972462091863695 -0.7776836300766735
Ni 4.148059641217704 3.095283381192613 1.1038528985057592 1.8813445744569792 1.7096529902145265 0.07041608782971744
Ni 0.5464288234601444 6.5159383515405 2.106839673676618 -0.31194860412470793 0.8710552982612998 -0.28575831888258524
Ni 6.195192325308858 1.059225988608747 9.840743654118553 -3.888885062717457 -0.6963344402742201 -1.3656704975827252
Ni 7.740549155346308 8.481821208019367 8.859041913970524 -0.25792741271324615 1.3757962731628177 1.1026067920841784
Ni 7.263743895506094 1.4346597567704926 0.8086405380306239 0.7970437797708402 0.6812495209166396 1.345254910040851
Ni 3.0334292741695594 6.463391212170629 4.896928971586057 -0.8215399651399915 0.6347470064797263 1.3050850226901847
P 5.568945085861486 1.817985833502137 2.1902180047911877 0.16225460719926893 -0.3104303677079686 1.204080777660965
P 4.552977882904733 6.594656683951121 7.360928182437395 0.22736368099377616 0.09966290050997674 -0.6595152145633416
P 7.19633352879409 4.214492776326124 7.278994292702599 -0.7201174016264308 -0.7533831056580961 -0.1836032480783741
P 7.608613581894787 9.303561303021846 5.091963924332627 0.006925780585555814 -1.1861864138790474 0.547115840323303
P 7.769372834168215 8.831530517587714 13.241888428175073 -0.2285687570454709 0.242887230550672 -0.9138698223236649
P 2.107302229968981 8.431935861398307 8.927599829794165 0.11752435417142985 0.0692061266820163 0.27333217730409054
P 5.335498416216699 0.492625243457094 7.661041592078696 0.16009410921284042 -0.5508362265976836 0.5882439778221804
P 1.1274832893771904 2.1605660058481466 6.625084883996437 0.6077164847244954 -0.8969416791097585 -0.022904158291683133
Ni 2.28081202792727 6.063145068245499 7.605791709302342 -0.7256956670451566 0.5055333888958262 -0.17997824973127713
Ni 3.8614608793055893 5.218910032425276 13.065242182117661 -0.8811980431222567 2.791619223230218 1.0558332833740653
Ni 4.015137529194946 4.447157660688044 6.681601445070391 0.36383552280198633 1.6561861286446382 -1.666635606112736
Ni 9.253694570336092 0.6646170749911489 3.6328501100533965 -1.5917779375718974 -1.5041503709598998 -0.40564911640366275
Ni 6.212214769146529 6.616732811224471 12.777551712899827 -0.05517330273803401 -0.7264032346351426 -0.9735865214580072
Ni 9.11274985219629 0.7033266148542672 7.548090371246139 -0.8991795673013417 -0.14686449789644385 -0.5831912458896215
Ni 6.937274084167743 1.453199236335633 12.195565619520698 -0.17704102147982412 -0.07058912307247196 -1.1048922456842454
Ni 0.39928287277302665 3.1929227788421546 8.462256100618847 1.9648591473418677 -0.16877723880913512 -0.17707058916617893
Ni 0.9441174126741808 -0.007098424229082606 5.60204159353297 0.09524934482331339 0.9873730337191382 1.2060998649735226
Ni 6.956139307600745 3.581153627527027 2.4341005772654887 -0.8262571681100027 0.2304729160467192 -0.5576635339321622
Ni 3.718291795896677 8.697528797317187 10.727679057531576 -2.821127259991664 0.40611911406154577 -0.7474878232195836
Ni 7.638805384961712 5.83744179568816 1.043655431724972 -0.16544637466368925 -0.06327047792387168 0.316499456720184
Ni 1.3104303525358072 7.965926684035785 3.7694615040538766 0.35256303521196053 -0.5699405515273023 0.5612774765356656
Ni 8.668798188171811 4.687696239684556 10.015387040737 0.5872651588486789 -0.02883003685781486 0.07192558249570838
Ni 4.553722440316988 3.4293197572330008 12.289541794701947 1.2645430967120803 -3.910825314433974 -1.4892297450943255
Ni 3.060838293908183 8.401008807886779 13.18914491178772 0.005203141467494264 -0.9900881186574563 -0.236183079057619
Ni 4.651380451901836 5.473167081742581 3.496196834698477 0.8922481302888311 -0.2881329897623489 -1.3005367411978699
Ni 6.485923380858985 3.8320136336509187 10.871306043749026 -0.38608816355259956 0.3349190968779522 -0.9663756055318647
Ni 5.143784189528784 4.609610781074351 8.704803123234916 1.5260906226764168 1.691244920020984 0.7208686779701584
Ni 7.2821344635887835 1.959274909445107 4.365560683182292 -1.0914417766062945 -0.04193057879551488 -0.5262181709386873
Ni 7.998380080242433 8.62580930458176 2.0011208974073478 1.0643747451861734 0.001007101108275685 -0.7863958131386908
Ni 6.985856455317358 1.607797276022654 6.778860187742918 2.988298844876576 -1.720670681481269 -0.8141796681201785
Ni 5.704463841859482 8.782929532502793 11.658462377649045 2.64301897358959 -1.637233241691219 0.6426348938682351
Ni -0.053690034997681574 5.265351801014659 7.619835923490995 1.1046999271677813 -0.5038719420330032 -0.8306573540602274
P 3.207283429931016 4.261781478971947 4.585891043313449 0.9553540576103806 0.5174769344109476 2.6869714679111403
P 8.112278750382087 0.8847175530212715 10.36998623111033 3.1271985793999884 -0.24018140158373474 0.34988266016632
P 2.43403263640162 6.162050213495873 1.2104083711670504 1.1259889184535448 -0.10321693640982223 -0.2549053380574707
P 4.722401922063275 2.891637621973318 9.824887373327826 -0.6904566413372045 -0.860664441945279 1.0324244175318218
P 0.7113017554362797 6.387558039732496 5.502508227966005 -0.24018140158373474 -0.253192469131422 -0.27106189321267515
P 4.446710926240691 0.856606787921598 12.444555855843067 -1.6557251298478195 1.5025449741459929 0.22293752690162252
P 6.386664570837789 6.8966305564262935 2.6384117846719866 -1.5485263259721136 -0.5061442830069477 -0.39455712025555917
P 0.8077275245038466 7.581939812600765 11.742684850729757 0.11818075680850615 0.9236135319739899 0.5272160160755823
