# total energy = -340894.23034664785 ev
CRYSTAL
PRIMVEC
9.02239924306552 0.00000000000000 0.00000000000000
0.00000000000000 9.02239924306552 0.00000000000000
0.00000000000000 0.00000000000000 13.20519329032475
PRIMCOORD
 96 1
Ni 6.12401677284586 1.831736555556612 11.36672647118655 0.31022519367569795 0.47419524090417686 0.6651554435682545
Ni 4.842033059621694 0.27367553980151393 5.976168517795422 -0.9737109628510134 -0.19651070016866157 0.22073306305113596
Ni 2.9141899052906246 1.64426011771072 4.876968692471353 -0.30599547186506654 -1.1214835743840235 0.026871884690179523
Ni 3.4756538220888276 4.274379776811542 4.848761965119816 -0.5612787620872463 0.4126988241615924 0.12081742310040483
Ni 5.07386361308674 4.673043518216739 2.6682681683890457 -0.3961848856669693 -0.8116337617698732 -0.22937839743095978
Ni 7.1543838106455 6.006409796219401 2.4525741763122944 0.13687653344579653 0.902141221032827 0.0743987266265493
Ni 4.952593542289944 4.634824634212928 11.39448388304626 0.37043374484479424 -0.3836484437628554 -0.31170486354501803
Ni 5.77450706355888 7.928433502915329 12.329688967292215 -2.0332988281715045 0.18356468153095482 0.8625847988964436
Ni 1.857107542765941 6.25127771686705 0.40604135742264647 0.07709684228400272 0.4762940324147345 0.08107922397051844
Ni 2.605795270225875 1.6489337206177017 0.4342751519724876 -0.0805860863841838 -1.1891511529343262 -0.09462379542417253
Ni 0.5751373631409263 8.951880360348838 4.7428696719188865 0.7583391641117907 0.7323239709949517 0.09030305656163157
Ni 8.800800281821024 2.524999683291472 1.3226323293956421 -0.25431295588911035 -0.3480780028574134 1.1329067286193004
Ni 6.897164225172256 0.6098763076829177 4.783687006959785 -0.4325294857342744 0.25280577521596465 0.25736588378282127
Ni 0.6850491352898479 7.35630510998575 2.4531019866792025 0.7477469904182412 0.17252770699050288 -0.06242921296949893
Ni 7.821112061644002 3.785717601048928 3.8183606422023253 -1.6853429527142523 -0.5521552025194232 -1.0077883641506966
Ni 7.544593563780732 3.8850632412203083 12.611343014913505 0.40923606242397265 -0.6285367639039562 -0.8129295977631613
Ni 7.849559687060437 8.704215495876548 6.951478167526965 0.251686831120173 0.5521094368831524 -0.01085288355410389
Ni 7.277277913340476 0.6293042403848552 0.7478152614346343 -1.0800502469399014 0.055412415332033595 -0.7220984366122016
Ni 1.868060735679215 6.583338105648041 9.22786834112537 0.021159921907066784 -0.5037181900639583 -1.2268278415494935
Ni 8.981645256082686 4.969799258011206 1.3086981357092669 0.3342434109671663 -0.8460088968156333 -0.20684962020082442
Ni 6.508605571133506 1.8898317855142472 6.992387531042092 -0.4269599620662969 0.7395076332275844 0.35857093196893736
Ni 3.557008797788159 4.341208689421606 0.38303875006482835 -0.20467035316131846 -0.16131744009698024 0.4262238552312208
Ni 6.207843885990197 5.702760943257108 4.569063071455944 -0.7762612958078503 -0.10798658988432369 1.511537150342274
Ni 5.287595233286526 2.989012663799503 9.310784191926842 -0.42767241475228923 0.28897476893735397 -0.14908670235874324
P 0.17481350023981332 5.569509126011524 12.367165307822582 0.420749719490527 0.2735512352934321 0.1321693577781143
P 3.961149135649993 6.236111063417946 12.547416608201464 -0.0011001750427142344 0.11879113669899542 -0.11341058911337241
P 2.514263027964622 8.429447343503536 1.496069011481777 -0.8473744097045922 0.12123471314348153 0.5656835760231612
P 6.376734181001375 7.55541142070249 5.829300997563494 -0.013593936634350781 0.41138756154933664 -1.7599543095722399
P 4.379824559000528 1.0341925351597947 12.459284908287009 0.8059544519969087 -0.41391906972193876 -0.2613678058533628
P 4.036233543742466 6.115174821400219 8.11546333198922 -0.8301629309223123 0.7097319446270486 -0.5778628916981725
P 4.676138201222713 0.9890895603875912 3.733147688504875 0.8993636582876897 0.018968827793018946 0.4211752370637198
P 0.10436028977697982 5.490536063762854 3.413397461512081 0.9549696776877683 0.6272278152845455 1.7910371470199735
Ni 1.6120952637273425 1.1290359980134457 2.804717523994155 -0.507474571782597 -0.5491269572160608 -1.0007263150975927
Ni 1.7111702319156932 6.492870506520039 4.6829185343976105 0.47565845571326465 -0.2486858395103201 -0.011000464875561701
Ni 5.914661016371724 5.617093260628167 9.149640529069979 0.18023407449582507 0.2200324374396856 0.7544434286018105
Ni 8.30233978027273 2.2025752171063426 10.226036239823783 0.64507589920956 1.1345936294034202 0.6754889642837786
Ni 2.2932954434185064 5.381500366599006 6.771715881197422 -0.2151396281237585 -0.7502808125836885 1.2907783762595253
Ni 0.5119634245417084 8.956635164850729 9.122451528374633 -0.3789430678673861 0.9596411150215086 0.8343335173602341
Ni 1.373867829063358 1.278455955045344 11.331205284613603 -0.2901641612597648 -0.5191388954944027 0.1068650746853708
Ni 4.011006914924087 6.720487599449253 1.5659249391020582 0.8786917317606351 1.2809169100844133 0.07340396681344778
Ni 5.633938080372056 7.666810986518132 7.799146127981188 -0.37177946023941133 0.6134891255422144 1.2597071087760177
Ni 5.2938838456922515 2.9370255982589075 4.8788173821154475 0.7606156188507933 -1.0018696846734165 -0.3939513683507603
Ni 0.9312830472118547 7.713384612398131 7.255157696647334 0.41284049194577926 -1.9550426754720782 -1.4903756857733106
Ni 5.120319947774092 4.418070510202643 7.1538081815615895 0.6457222745443073 0.3940225879083279 -0.816468464154355
Ni 7.968772650786207 7.072243886195382 8.934172096979085 0.36724172027005786 0.5512591730677151 0.1277645438421993
Ni 4.558161306219446 0.16417338458691083 10.3313736554595 -0.3048135357418234 0.5930359998941851 -0.32390577648658414
Ni 8.437594570192735 7.029252152890812 5.032776508302756 -1.2201900245180017 -0.5521441467758297 -0.42986479441791775
Ni 7.301548167818816 5.9021920603534825 6.940834442914288 -0.054861685034886164 -0.24737097735363847 -0.4369330141186088
Ni 2.5356280698251097 5.081388294214968 2.6249155391071017 -1.3539601511243327 -0.24082700558753367 -0.4185041179894598
Ni 2.309183888822357 5.247698182987929 11.377251100126692 -0.43445627044334206 0.5161530733932014 0.028272621692448086
Ni 1.0685137426079767 3.331105960751466 3.789626104483879 1.0339287699914903 -0.12449255795914688 0.03206319908313187
Ni 3.668480542799276 2.583771593206681 2.6195408957640733 0.5600235495239065 0.8680656195053567 0.1506746156711534
Ni 1.1273758765175295 3.4393657315639623 8.11702150037153 -0.4620434360329914 0.11279326724434768 -0.07383694058580831
Ni 3.8023097936086567 2.5571735596742835 7.066733004620895 -0.9911404711813703 0.5211255869071283 -0.9999914938140972
Ni 3.939233727424011 6.872253380334078 5.936117184466498 1.0976293934742452 0.2110765137979784 0.047915592734356194
Ni 0.48181237011207256 7.346488739401202 10.96487962726092 0.333343010640084 0.4031826571410411 1.5722231553684214
P 0.36737676688677917 5.595908666756366 7.941326511706983 -0.6679013817445077 0.0023849552924087958 -0.7388098358296116
P 8.586599496850654 1.6642086428600182 8.104159167737953 -0.616305511945087 0.09833749683033387 -0.4774793109720873
P 1.6711107784272787 3.349015423628606 10.415134002848022 -0.5367311546548692 -0.08799317748153232 -1.1845275381193858
P 3.9213152421474367 6.164996511076575 3.8708249926729965 1.102544057167043 -0.25311225071278987 -0.42781253987457935
P 6.8507078904849035 3.9995665124413593 10.371992497712842 0.600317621157263 -0.04627060093176547 0.8235613664453946
P 6.284272631598386 7.655163068848416 10.182881201089451 -1.0518789267120079 0.6031412066489871 -0.9300646869159723
P 2.48477782661324 8.507644479400854 5.8716629673875484 -0.39595914280940836 0.5133757677583805 -0.08444556933959005
P 6.78809243841067 3.970144467886017 1.526097361279106 0.9627356947864322 0.03776487745359948 0.3164161529777583
Ni 5.378225235604345 2.76700750331844 0.44769055769138927 -0.505115327521801 -0.27890324363396485 -0.6143771845741225
Ni 1.4078642301319042 1.0254317853090626 7.0691889017469185 0.8045624567453886 1.3714151133759866 -0.3036619386358834
Ni 6.874400711399447 0.6103166007753129 9.13829756850114 -0.7757195643717673 -0.5147068278649781 0.07523099271985753
Ni 2.70454543203459 1.893440745287978 9.180712770481858 0.7404954510621505 -1.2917664512044074 0.35468342398907304
Ni 6.341799450391659 1.980398631036027 2.5811659242500475 0.6472168568119627 0.3609823696239074 0.6340949747180241
Ni 3.8729912707771783 6.858169414817092 10.300486373236023 1.3647130187654624 0.2871343732945055 0.8695887410181022
Ni 8.278953720938953 7.2702043521839625 0.3693914686804645 -0.865485003262374 -0.6751272100689857 -0.25920627942566976
Ni 7.6210313317883545 3.9546620304567113 8.246960292544829 0.3780375253339812 -1.1736715692414883 0.0499130827803592
Ni 2.6852735868428663 8.249576788380784 12.480453261839829 1.9461320032460097 -0.004934461187139888 -1.0023741351136608
Ni -0.02000897522550819 5.117910967125127 10.115931388326967 0.8027603705396432 -2.239530612282672 -0.5830382652515249
Ni 8.546630267356583 2.0665805904327237 5.842941963268253 0.8982071760857433 0.91673917345166 -0.7005901302267805
Ni 3.3876944500035684 2.7317208991307846 11.620398449202217 1.413920590838365 0.6017589815894798 -0.796503590996654
Ni 1.2487451937081036 3.451500858803133 12.551390975152284 -1.6928318048921298 0.18585630577860893 1.194791124828923
Ni 3.2754377562416654 8.484637360843319 8.117905695516095 0.03243858014467962 0.14654722376634116 0.1080287559761688
Ni 5.585794556990485 7.950781986314158 3.488455704646195 -0.8167314880077546 -0.4679227776319038 0.38776889368913214
Ni 3.1935324141768398 8.184389952467766 3.6538110235590024 -0.7448547564721109 1.0960358237348802 0.12225466976756363
Ni 3.3109769876134814 4.500390882641447 9.298872820193642 0.2971097393396625 -0.927938384601589 -0.28194588711503055
Ni 7.355438959640055 6.182608234772384 11.287548600470721 -1.3630875673468978 -0.7398878993851387 1.215773126397229
Ni 0.7468381355758967 9.01144624141427 0.33047334872049267 -0.6374248104222053 0.43009285126832375 0.4057218786231271
Ni 4.528170850499742 0.5544607303572779 1.4233746369994564 0.7241131530493852 -1.4119804363928585 0.2356467469381748
Ni 5.972314148757076 5.663594707312691 0.24896950343049482 -0.22128482178954795 0.5319633009525806 0.3253227114387688
Ni 7.686669287673087 8.815191008918775 11.434271762311699 1.4648505449190126 0.9923185506498716 0.008307491424430853
Ni 0.13178026389784467 4.600133508387938 5.781550850797259 0.06348285104499389 0.03216450054768654 0.35716582409129455
Ni 7.708160643125655 8.585345383329283 2.83997525650362 1.2468101982086914 -0.5857746903460815 -0.17142110418988543
P 8.467927877090943 1.455322051156467 3.4885351017612174 0.6824245150613474 1.2165544846479435 0.040271188815220973
P 1.8822439475899777 3.244743553366083 1.5894697926658792 -0.5889122075337987 0.8274344762475557 0.5003323043108608
P 4.8339941017257075 1.2265591134990923 8.238984491444883 -0.022860192427625145 -2.65367953862723 0.6422893376033584
P 8.531075650731802 1.5673261177342093 12.568834882218614 0.2889254037566572 1.0192002055320641 -1.7196232140533612
P 6.282973406079843 7.845869525691797 1.3591577090256302 -0.3696459588361763 -1.5662309423407286 -0.24294765147496222
P 1.94252259821072 3.1748740921466503 6.01423943444851 -1.1498495271212261 0.5037104767544744 0.01706286901955771
P 6.994073817496369 3.852122460885579 5.864558730072959 -0.23199243801503916 0.39096914579398473 0.8628053995476818
P 2.2570795320891155 8.522612640062402 10.315844301553135 0.8197389073755107 0.30383960186432835 -0.7780266152383891
