# total energy = -381167.39893873647 ev
CRYSTAL
PRIMVEC
9.27152934287712 0.00000000000000 0.00000000000000

0.00000000000000 9.27152934287712 0.00000000000000

0.00000000000000 0.00000000000000 13.56982037384700

PRIMCOORD
 96 1
Ni 1.1003636267005452 6.956020400008799 1.6570512720797335 -0.143391708856495 -0.3168918070625962 1.1029970855440618
Ni 7.505414133378371 6.070227773230152 11.363028552792626 -0.2887796222074124 0.9796149870402743 1.1453760647309046
Ni 7.039640321725759 3.3581107845876437 1.1300983479488502 1.3363236689894922 0.2274415854195631 0.42798557511733387
Ni 4.499510199459745 0.3959675412679616 10.356988828252796 0.11400888481900366 -0.029924555473574272 -1.4954438443248375
Ni 1.749964047498535 5.5459506124219775 3.4995071675720837 0.24109851408136546 -1.5406178697583146 0.5397565717447542
Ni 2.180153730140204 1.5787281749860025 8.849056195815454 0.7459634161552572 -0.38431075993720265 -0.08771009902347475
Ni 8.791273244477543 4.8159660335924945 4.120706113018531 -0.14160530638003355 -0.11098063951564113 -0.5689110818215234
Ni 7.163739739863192 7.752880518847644 4.276162770011594 -0.46979608339521667 0.6131890778032923 -0.408572974918677
Ni 8.126087383120044 7.634149316108163 13.187788807683024 0.5019114758725227 -0.7192244574985162 1.0584509235025708
Ni 6.350876961651526 0.5064841691497844 9.06620004508611 1.9670078182537543 -1.7682592298935096 -1.2517323181006572
Ni 7.727569244173368 2.583493064262934 9.626117891233253 -0.31176271336614697 -1.1982037500548977 -1.579128624239003
Ni 6.257206702298333 6.354548487208674 7.123734945736976 -0.1830365769416267 -1.1663413541286622 -0.6413925368207019
Ni 6.4048279899773926 4.368308789966819 10.343242859083535 -2.0024203934250933 -0.1092996522687924 -0.5391024831005231
Ni 7.52607110040192 2.7616640406056345 5.455230553655363 1.2987480247285632 -0.7181859889316728 -1.8460402427287301
Ni 5.704456675363894 0.8152437069063009 5.087882368674784 0.7864690895787875 0.18662712250636246 1.139308004159954
Ni 7.109269505902981 7.2201199088354535 9.274781637154682 -0.8728730681963289 -1.8574212308721625 0.24110956982495893
Ni 7.887466036492991 1.4352976184984354 7.275391202917224 0.6916838288760861 -1.8433197584737737 0.5693116596940518
Ni 8.443720701459254 6.450953847671357 5.993314875725416 0.6092429486713508 -0.2605710209836803 -1.393201870233775
Ni 5.363078970782626 4.325270351491364 7.6982535960442116 0.9874082578324479 -0.0682555898432889 1.2938135635414234
Ni 3.8690091287822717 0.5455386315345665 12.42220711970174 0.12483605734149467 0.9750723619749142 1.8268366732170862
Ni 8.48668496770123 4.981870776823815 9.662851689863102 2.000303604192407 0.6398928123467238 -0.8941669445780988
Ni 5.565949300873412 1.620403698671304 0.7279188821271284 -1.599615174228129 -0.02617331596125815 0.7713322339373491
Ni 0.6325500786272956 8.382918013065881 6.36252200230753 0.8023510509163665 0.6340240122707725 -0.37699622855366044
Ni 1.50844998376585 6.036173446534687 9.97317997035767 -0.4146991424210729 -0.8643159226549373 0.2621746180253743
P 6.056376108628185 6.319418663127783 0.3480912188639216 0.4324256131665585 0.7071718972093562 -0.7577529525910175
Ni 1.484983743399332 2.694612341541763 3.0361662051775413 -0.18664589155943984 0.19139960419434135 1.9669186009740578
P 7.951337601046505 1.3913412986336937 11.60486990150553 -1.437846248416027 -1.2107695025350502 -0.9552625263378387
Ni 6.529594958216125 4.518285046058796 3.210999431013744 0.09692878940826533 0.35526552174478815 0.709784652241855
P 2.391108833680063 0.33807889449734607 10.724364827820926 -0.8604842076136728 0.2718918453131382 0.10110271828029685
P 4.180384164921796 3.9635416403496424 9.51344841427474 -1.903785419958999 2.1345234167416463 -0.25141866506045085
P 3.134286798539398 7.686895045640015 6.462382861697358 -0.03108772254374001 -0.7013992563916372 0.7576151414615727
Ni 1.665111012400008 5.895264745985363 6.690464333947226 -0.5817938513214626 -0.08944302255418145 -0.506310890491799
Ni 5.093008597161014 7.700885783179753 5.3694828159905095 -0.0641420818955476 -0.6173995163402142 0.21046690523843753
Ni 3.690838152439571 2.9444151523655853 7.104044999207393 -0.9188132823718692 0.3639013430429152 0.28073232642290363
Ni 0.702210786003746 3.201375583720008 5.433057691610111 0.3426069524405132 0.0461970673813527 0.5509745519477608
Ni 4.055793355737574 6.863638883212282 12.69410491172566 -0.46490790206498 -1.2662130282153354 0.16964807144986266
Ni 4.023296645945142 0.5787529576858955 7.38603948651347 1.045866916189973 -1.1965939823656166 0.30527144921484844
Ni 5.2528868464222676 2.3598637803275673 9.490149061433545 0.7126210932493856 -0.7179221937473249 -1.057834115854178
Ni 8.33615241985817 3.420851222580621 11.559126030813974 0.1905215724647622 1.2611024464616476 1.5744952392320497
Ni 0.5416010130898173 7.5694896715739475 4.147425732975965 -0.06137043268768141 -0.12937019776642236 -0.9294568781286444
Ni 9.118020476005327 2.091796057009854 0.9954729627280084 -0.8758259801770657 -1.4896663184111119 0.0957108578407642
Ni 6.013643630615826 2.1087722269470706 3.0798471606254973 1.2189152715706362 0.5658936351514383 0.13400975342096275
Ni 4.7806507789279085 8.343940504373332 0.6132486091705525 0.14948985133443288 1.1683540136833168 0.6933416761944833
Ni 6.16827419435853 4.513389678649266 12.749837000807911 -0.9531601352828553 0.3769625471022476 -0.12152036270470037
Ni 0.983477458268822 3.407370419146043 13.222378101612447 1.0749260383394583 -0.12876110342751373 -0.6853938821023163
Ni 3.2494670056011334 4.520482398475574 12.710430220314109 -0.3942097642184695 0.7944469655779415 -1.2321168578625747
Ni 3.2353001090068862 7.722099041954385 10.012505161394646 0.42521958233642254 -0.1274387850716644 2.8284320211831933
Ni 0.8951976659836237 8.155468859106412 11.250141194898271 1.3102215725858015 -1.4439636741676745 -0.5644787570817826
Ni 5.442322730724399 3.545506932469137 5.502358663654195 -1.8552319365303276 -0.16883046064457374 -1.3696451659597573
Ni 5.0079701314787926 7.6664327807293455 8.60101312123089 -0.39646153636712367 1.008367376582618 -0.502266030998464
Ni 7.763246088476157 4.088892714927012 7.6092904920581 0.8974898383037447 0.03412573803911542 -0.7593089842242278
Ni 8.402026634715583 4.954158176090696 13.310731138978204 -1.6878628909226285 0.6584299519189628 0.43948200579270763
Ni 8.613853261998804 0.4754264006868205 3.012472812345998 -0.9652134669029633 -0.8738552296039401 -2.07319515014581
Ni 2.48398174152337 8.809158024274861 2.5388589956147896 -0.5144286345029269 1.0491085630557222 -0.4341724206543362
Ni 1.1349371590303539 0.8063411845831359 4.351950103873305 0.8656783502201028 -0.48007355406182484 1.2516096764798637
Ni 2.0093628910285384 1.4476194807849239 6.550668216900067 -1.171567121303976 -0.6011429452720357 -0.8370920539419777
P 2.7121818893468017 3.9436727533067946 5.089917469330829 0.20478271036946666 1.0855927740246851 -0.27767759875697984
Ni 5.602562569623858 7.89438259726479 11.33408376583086 0.47641410293236663 -0.39421130688036626 -0.6494439463702686
P 0.34575201205061756 2.481960548161102 7.629807458990959 -0.08099797711062179 -1.2508889962637555 -0.28181707484665014
Ni 1.1131583369754543 5.857214390211286 13.232230028524127 1.6951180298231454 0.6704557727352453 -1.4561561024688083
P 5.896609117717147 1.9051601745215074 7.094681681883748 -2.332547211120725 0.5039531888928999 0.327666529080597
P 3.7704713166071024 2.641977870360127 13.293104107692223 1.0041726217749802 -2.01852166986233 0.30447826388959176
P 8.66927846346504 2.6079606297814015 2.953987079095887 -2.0354860656308107 2.052261485316936 1.0934837467369878
Ni 1.9713867074879388 7.66793476845727 8.307362467433789 -1.5623768587019609 1.1429697692822574 -1.4581993581510821
Ni 3.1616841672802356 5.714887145696701 1.2273214572856261 -0.5964830779025211 1.9217718292340904 0.3930995618734262
Ni 6.999438971180828 8.558131371598657 1.6269262194527523 -0.34372255410219515 0.8700564246831402 -0.2525219254269586
Ni 2.316027990342227 8.363661046949224 13.334207578026826 -0.5799804522618075 -0.9962497673834778 -0.05922870375433026
Ni 0.45969725142494866 0.7832624941365391 12.471614171574178 0.5345662857930664 -0.018509885878729412 1.1180580936422424
Ni 4.015786707305521 5.55092942359417 5.938492323656186 -0.1600300887441244 0.018489059943123 -0.10144801743485754
Ni 1.4701122105870466 3.933270097561543 8.304105379231197 1.4802743356732506 2.0948476954185797 1.1651720164109094
Ni 4.155156334010182 4.683985815648053 3.2146088373253536 -1.3605655722559922 -0.1510440831954302 2.5155945866956286
Ni 9.2604775219285 0.7910209097583101 9.570292159706238 1.2458159526162222 1.7150692761340915 1.5688308418574206
Ni 8.576989661960372 8.53181877177243 8.329698508392688 0.9502807568525312 0.26071320298849937 0.20365219630944928
Ni 4.9492349940936124 9.073971440848739 3.1016806847025866 0.5079137162025446 -0.5099708558418894 -0.4778685759907061
Ni 5.368539901472424 6.809928914645218 2.279472205072726 1.3350854257070166 -1.3486536513097547 0.5424225486126916
Ni 1.5203082695931027 2.3936770472642293 10.90716322437972 -0.32775780324282267 0.34524233318083125 0.5198780876532725
Ni 3.6025546515426985 2.0029840789494533 4.749410361340006 -0.15220930714812497 1.9557175900519157 1.3910251742974302
Ni 5.746540146333324 2.273620015851333 11.908820297073934 0.09280628259945953 0.2340722033622033 -0.4372664861986276
Ni 7.1683755044555495 8.3543338885894 6.654707754493447 -1.1543890668627925 1.6198086184568683 -0.823362363060711
Ni 2.075765583049479 1.3306869547072773 0.7694803660034578 0.7719310438636124 -0.7704608870759893 -0.13248354658442343
Ni 0.29402615072908317 4.61062020520939 1.7121176653665213 0.03677628828808505 -0.49313167279736353 0.708479046056554
Ni 3.5346777863813883 5.777117649584518 8.485683642549281 -0.5252375521929729 -0.42181338486835096 -0.9178797148140062
Ni 4.221772271202371 5.653926841307189 10.73460986757004 0.6247978656868143 0.28165175291337946 0.5214212637706762
Ni 2.622340771546897 3.4445770657643116 1.4069054146760775 -0.1206425880854374 1.7228635753675297 -0.8583941578538636
Ni 7.977270068176157 8.449033287682095 10.937993840377658 -0.8775859002909661 1.3323929664765184 0.26179949407414266
Ni 3.4949121977081377 7.010388647147978 3.4175728098609053 -0.32405464335962253 0.3110777714839804 1.3528620329641474
Ni 4.7770163394875 4.047838383697086 1.2532140568397845 2.403058686877726 -0.7231099085958514 -1.5659414361247677
Ni 6.597759240782162 0.2515198980288311 12.886580003294542 0.7188321071561039 -0.8505116697819933 -0.7696311920858423
P 0.6466975050102549 8.866789849687061 1.042555642233837 -1.34474094651891 1.4843626468100115 -0.12108404649823017
Ni 3.76908985875858 1.7604408754772647 2.6696450406002397 -0.3988179524144422 -0.21084845694757237 -2.6422676972458623
P 1.041433787202486 4.432764460858969 11.364683520752097 0.0039093623567352034 1.7374939236861948 -0.5102449354388826
Ni 3.333420702368743 9.115906567351212 4.932724254921468 -1.214276230136728 -0.8303153973397763 -0.3563574692573863
P 8.969008458948561 6.53477774303038 7.9731924496407185 1.4527077389088916 -1.7175712166203387 1.7821969230205241
P 8.366386876529532 0.10201185416068224 5.043413333246127 0.1043605630959622 -0.1288428645080426 1.7873594410580704
P 7.061001924967346 4.914522388826033 5.5386715348590565 -0.3304248085520245 0.05698978712148249 -0.6312312800169839
Ni 7.929874010983885 6.676057304747094 2.4995477118715907 0.9612740226392412 -1.601063219528565 -1.1053987530070188
