# total energy = -340895.77483309485 ev
CRYSTAL
PRIMVEC
9.03578296518815 0.00000000000000 0.00000000000000
0.00000000000000 9.03578296518815 0.00000000000000
0.00000000000000 0.00000000000000 13.22478172049778
PRIMCOORD
 96 1
Ni 6.612702145765045 1.6993687173422665 11.495377162960454 -0.7538474468890243 0.8900377529010737 -0.41070287677748624
Ni 4.65462089371544 0.4829020538601802 6.189898890830732 -0.5214382330515407 -0.9711432021238371 -0.19188502847119213
Ni 2.8218207709518524 1.6420005319952111 4.728997133130657 -0.24046910802748261 -0.4392200103805726 1.1570882109615104
Ni 3.4510636531984407 4.261862520352634 4.668942609540779 -0.5840224835416652 0.5248757979781798 0.6442017241347228
Ni 4.8237797845458426 4.52818318422397 2.5988411431233085 1.3459694196093723 -0.015283922742263997 -0.5000877924002226
Ni 7.030995641476375 6.058862871444299 2.595442785191504 0.6999617526141623 0.003728613804496804 0.72691411283329
Ni 5.027428258534176 4.6898694826332 11.34159898170601 -0.04698433916933844 -1.112089020543001 0.8558662492256873
Ni 5.733665046489105 7.87074515689832 12.39019164267969 -0.9620157859012722 0.5089365010401041 0.08312196543216008
Ni 1.7645167117275666 6.490068500855573 0.3188212729943465 0.20317165712860494 0.23624504264380602 0.3911432094780038
Ni 2.665845087307047 1.5428960656404302 0.33368242505613604 0.6995503761083565 -0.2674168402609201 0.15540621681886782
Ni 0.6844162759381388 -0.07373379525421975 4.760577194209246 0.1000627070515567 0.543553062672709 -0.12825305344284363
Ni 8.753929680504752 2.2879596125237422 1.468757467314302 -0.8059320833994056 0.3486971244986511 0.11061014355009983
Ni 6.873583268357608 0.6195005011722152 4.831766513011468 -0.4620637477479655 0.9077914773400688 -0.4839960290446826
Ni 0.899658562907857 7.3529857635180065 2.5087010769390767 -0.0945309786000501 -0.5040534619161899 0.04449653975047821
Ni 7.647669749771513 3.744048912275188 3.8534894106379225 0.3459118484440301 -0.12080148226080485 -0.18286739835361412
Ni 7.6222701641658155 3.739928595293261 12.5270286346591 -0.03808857934160537 0.4919355956067335 0.8469964575398833
Ni 7.916204180442349 8.734891286029049 6.817943628270734 -0.35601345565440623 -0.2912445388081371 0.362201329632673
Ni 6.906609054693012 0.7061925126189396 0.66805156960926 -0.6537454019590999 0.4833653374392192 -1.0467714302821134
Ni 1.6324406737345112 6.711978291994072 9.263272242155537 0.5934910851537327 -1.6150248239149798 -1.7780692740053958
Ni 0.018836896518035336 4.709088592766006 1.6614428259645386 0.004083426040754258 0.7294739031406663 -0.46582090079755256
Ni 6.294606446133963 2.019271573544369 7.115130526375104 1.2267555935506613 -0.19456848884062622 0.22059576614232332
Ni 3.191420432857027 4.329956179948698 0.2712153474439455 0.255009981956135 0.03130420942992028 -0.4281251860189917
Ni 5.899182516828901 5.4810516652089625 4.81351603880073 0.4847658173311715 0.26856663759464716 -0.9115915678124493
Ni 5.2753159253811 3.0224874365980026 9.25829894727209 -0.16331210192950582 -0.5975187182558871 0.21709880873265835
P 0.002607726931983018 5.6924257335384105 12.578618436870316 0.4647610920744706 -0.8135937137097214 0.09387663284550284
P 4.076159111114536 6.187993244226591 12.614986559283825 -0.2019889496744134 0.13374338713345355 0.217162057870426
P 2.5207213788712215 8.376324314989956 1.2916470875714081 -0.7262831641175105 1.271674822660855 0.48058880313534647
P 6.128908260137066 7.817696075756005 5.777669308993462 0.5533201693618018 -1.1510818568664305 0.5157406684461311
P 4.846947531786329 1.129084318225232 12.771144765742303 -0.3196158908619786 0.039454092230564314 -0.5077658777707708
P 4.07521035391475 6.064203019111665 8.266083246266259 -0.7694530146367652 0.2770417649451939 -1.1319767606058635
P 4.866238928181976 1.1282891693339827 3.9039425113659667 -0.4315434676719213 -1.4234629831111614 -0.09830381537892104
P -0.05571734781942787 5.594360382211967 3.739756915419014 0.9471370690172268 0.11653293679243801 -0.7451596893070394
Ni 1.4863320649674794 1.155658555602093 2.6507752086613046 0.025142303593582504 -0.7828888284266968 -0.17146481294362728
Ni 1.8829938965236903 6.4563198518917595 4.64081421751284 -0.014315645291723734 0.03653589014250482 0.2721579544903313
Ni 5.962261316940382 5.530649077300629 9.304678717089052 0.06589146048648652 0.39107507524422974 -0.7431048636605395
Ni 8.692350820347219 2.355709912371312 9.938528945013458 -0.2839456911538787 -0.4445720187211053 0.3096361539414474
Ni 2.330825366388355 5.37176387157648 6.928674436425177 0.2586822886013997 -0.40709073394619566 0.6386399137762292
Ni 0.4218933516008035 -0.08399211952961934 8.96661393734819 0.5999342696759152 0.21903382097184212 0.7284652593704938
Ni 1.2829908075962186 1.104588310905045 11.353038282800572 0.2161485290042471 0.22820700283067794 -0.2358040984516455
Ni 4.068894341699033 6.851535958191154 1.593678972442686 0.9538707881966346 0.24476644985125587 -1.1993967419217344
Ni 5.5326640568773175 7.703176563850417 8.033155221514246 0.23099742109162152 0.5462540065436399 -0.07451082672438136
Ni 5.260822529681513 2.89765809645474 5.045929023930001 0.9693460010140984 -0.16476117567120657 -0.3673648761114835
Ni 0.7803166536924998 7.370298323468385 6.857498671297236 0.5780806641359334 0.1711100007073698 -0.33979622246459545
Ni 5.104991418562389 4.615197773118621 6.86305296701827 0.13821530686187808 -0.13718763692831212 1.2878856280927626
Ni 8.010890148980984 6.98364813931563 8.999199681058553 -0.020570367952183928 0.643358402297821 0.49833841380928373
Ni 4.607183033726144 0.32159977622229097 10.595602038453766 0.16775471108189172 0.07418198263005289 -0.5688845994589622
Ni 8.080556034793835 7.262962258932604 4.768975050794779 -0.3622100713834213 -0.37343165113085364 -0.27756678421072845
Ni 7.216843623240154 6.082373978433281 6.791705522016082 0.22560813175525016 -0.3324814339707371 0.51718588553309
Ni 2.4321255279769267 5.2299201523170575 2.4339814777753648 -0.6635179079648316 -0.17343659195801744 0.22137455328987685
Ni 2.2994621640982893 5.565816344172694 11.379184224070102 -0.36128910223104876 -1.5386782295334405 0.2571182865483894
Ni 1.2771807992203867 3.506678896671606 3.7845490981883354 -0.813053010714903 -0.2251345345529413 0.1344787226375813
Ni 3.7511329660335897 2.48892445900411 2.6849214320707424 -0.8708722357162163 0.5832951184573374 -0.9217389406590963
Ni 1.2265442721003839 3.470626123079741 8.286793260570157 -0.5900468353588741 -0.09841565836643695 -0.8835133215189945
Ni 3.83370194976353 2.621759502756994 7.102871679775585 -1.1325465170664044 0.2295277785246305 0.2727523935412206
Ni 4.109157790101376 6.706638144326705 5.923233963632617 0.048573280923013114 1.4847274863485977 0.06700526237595557
Ni 0.7379306998974925 7.402312102124019 11.225313877830533 -0.7089886387031209 0.03837165779966295 1.3029754325463496
P 0.16116493373849167 5.5780236868099395 7.900312949135078 0.5476082065786891 -0.6979861169450301 0.42673961852537473
P 8.428514996761036 1.4913288528863518 7.818755069506624 0.9193771252951392 1.085879966247801 0.8078976917662086
P 1.7551917838210993 3.3295775527115667 10.55412960230541 -0.15481460598145597 -0.4059586772242815 0.12324094494023291
P 4.046006703727054 6.16058771482706 3.667244758006804 -0.9259018137875343 0.5636948277279066 1.3564546354114124
P 6.92383125681484 3.8021761033820725 10.454454074474185 0.1975183154975695 0.29763938659088734 -0.20190795992483293
P 6.26999297363666 7.7322266057295765 10.203474362734246 0.03868713215755273 -0.618418958743664 0.2006092957180674
P 2.5696682145973195 8.563599950444841 5.817951732539802 -0.4929815203727445 -0.46821948293671617 -0.4419572068060776
P 6.814597677879489 4.058602585027069 1.6391190208427187 0.7844186348076619 -0.11074821178986088 -0.1099254587782494
Ni 5.18973802596041 3.0936622981476565 0.6013232168026024 -0.04570495823628258 -0.748014642257331 -1.2862331800910043
Ni 1.6596203085626642 1.0674693149362777 7.108954568793641 -0.6144394052706257 0.983493496159074 -0.5636562611804873
Ni 6.985889013463695 0.5518333305269122 9.185813897208444 -1.2166807258131627 0.3053670942524483 -0.146866811889289
Ni 2.8178992411927375 1.7922294577441704 9.283056088716789 -0.05752303391713319 -1.1110839763172542 -0.10567465392169542
Ni 6.302612149743585 2.108924611032711 2.5588099143403413 0.7851377723618737 -0.18298026978239457 0.7464025605752049
Ni 4.119223652201962 6.788990269268124 10.460114088854624 0.32978691785770947 1.2765295796499951 -0.9374013297867018
Ni 8.01661883531112 7.497693825942497 0.2861686644908571 0.5149719086009067 -1.4223957181889115 -0.4244289681143271
Ni 7.58439216243722 3.9545736170162566 8.290192522080249 0.4422086606952514 -0.21590247443171204 -0.6219107739470063
Ni 3.0336556642069104 8.399582420058993 12.192362212850044 0.2902022135865518 -0.4696289616897331 1.2498836949276926
Ni 9.20683022455113 4.821502767266356 10.1362526561837 -0.45215394483342125 0.38756757631160355 0.4249848406177971
Ni 8.863072901611554 2.4269932033152273 5.842721524080498 -0.19368994289041483 -1.5168066262713296 -0.3690078110315451
Ni 3.6332431071230475 2.593676289643331 11.470342622982104 0.32129276434376924 0.24991122727698895 0.3313329221885907
Ni 1.0064416375329053 3.3402307406977347 12.719515206086525 0.1099218592338236 0.3852183593531366 -0.5131783070355935
Ni 3.059046214029753 8.295282378562527 8.028527093535862 0.7827587306067358 -0.10676480166208065 -0.009033313846861861
Ni 5.5244053513477525 7.8585016711296545 3.5736006152313626 0.18521558687081652 0.2045839640950993 0.3034616496996193
Ni 3.076331666631567 8.33226583778847 3.467894605922643 0.1408835977226606 0.2590417288233474 0.7591161514871313
Ni 3.2467736386273938 4.412299269107261 9.322584927973013 0.4190144819669751 -0.19237096696867514 0.20458422120541542
Ni 7.316255306212009 6.017415735487938 11.34483921343785 -0.16570554186234687 0.16264335799725538 -0.0074934801635677395
Ni 0.6995566336901511 -0.09852075478234108 0.2264665364323284 0.4470582754780687 0.5812611187464441 0.4707779876925118
Ni 4.5513057525501806 0.3954519402319126 1.6679892506430614 0.15442225563904372 -0.6043825352552559 -0.29657700676464405
Ni 6.188716106854999 5.763898775922284 0.3453620779746435 -1.0782332483358203 -0.5035608385504876 -0.24656827894668504
Ni 7.908270763095568 8.734412389537727 11.297282984693153 0.3572897512636685 0.3795508766547141 0.3560257969495804
Ni 9.222191055404807 4.773820941139972 5.798934120364664 -0.39279154371470415 0.7390564046227788 0.08142735133855654
Ni 8.025211864806325 -0.3935688830849089 2.6030870574869223 -0.48086905337992664 -0.16439170814692977 -0.025901550357110233
P 8.424719967961893 1.4479480593989975 3.5285174802541066 0.8114324443923445 1.2494964867916027 0.7873041838855731
P 1.8465164411376356 3.1487082873009498 1.6034123177342041 -0.14155979785407877 0.3613587791267196 0.455872531335589
P 4.782170004498089 0.9586875251436805 8.45868909002737 0.05604053583433575 0.4597294431878341 -0.6694216750437761
P 8.500168754802012 1.5998937838904266 12.620171291486084 0.3015397500865581 -0.39050429034242423 -0.9797594830379386
P 6.264815470060685 7.813928154305427 1.4208307714725448 -0.565245202934162 -0.5063859667041085 0.802279831358799
P 1.8942886250925703 3.3137830042808454 6.095765008624544 0.894251276761789 -0.7381626891639158 -0.4521007229979827
P 7.126549045169099 3.8025556062619867 6.052083323568114 -1.39243645282266 1.2807215062441555 -0.3692602933619834
P 2.352682925114852 8.49529846784311 10.15212220161212 0.09019815555265111 1.4591015582503775 0.05327042928836631
