# total energy = -340872.77112034586 ev
CRYSTAL
PRIMVEC
9.23090993507713 0.00000000000000 0.00000000000000

0.00000000000000 9.23090993507713 0.00000000000000

0.00000000000000 0.00000000000000 13.51036976465944

PRIMCOORD
 96 1
Ni 0.8520573079567788 5.865781804858849 9.653469749354237 -0.8810556040071212 0.3576898149155646 0.6118675307783914
Ni 5.481259014925416 2.599525816111583 6.006332564696698 -2.2554794223024444 0.2612829594490403 -0.011451179259735118
Ni 3.2049627458732983 3.687194718912296 5.8393167856842005 0.3053830350920483 -0.28921311020040513 1.033226601718143
Ni 7.912911500478869 0.45578818495751355 2.6699595061382313 0.09316623704203955 1.3784689348989745 -1.1068519405137776
Ni 3.17802695028501 8.35157357798095 2.563997889428853 -0.4172069964445912 -1.2702841129609157 -0.1599231308526149
Ni 5.41937499380688 2.1551867289156026 8.619737977191608 -2.2161754824964994 1.2964754266443026 -0.9320475216739561
Ni 7.841039634663099 8.824897722801065 11.23085966253486 1.644165192924362 -1.186245806362073 1.010078445736454
Ni 1.8089260612280422 5.091631531722509 7.495877445274034 -0.12205618060351237 -0.12295400982743339 0.7426212391559016
Ni 5.982534355441671 3.0796900652945913 12.25878242298957 -1.1791714160137952 0.9534990066795127 -1.2588018233529288
Ni 4.73308452272994 5.368392677482643 11.28969748332984 0.005188229069158807 0.15590423950120894 2.6502021216015903
Ni 0.8764010639970239 8.861839824906731 3.73575207516078 -0.9201476849125767 0.9488123998371208 -1.7515426884697771
Ni 6.838932037314014 0.5166844986984118 9.102341955906484 1.6714908773225086 0.584066449405723 -0.024292811109093645
Ni 8.549816602673923 4.268695898858922 8.233422544522314 2.4859842200283637 0.23488107241674386 1.814430072022617
Ni 1.221267864263806 2.257908296189927 2.3194064652674795 0.2559353219838818 -0.6012015664241129 0.20530130187709802
Ni 7.667415447130501 8.367238432372083 4.4866183007330696 2.6014108111305 -0.8333721818882293 2.1967924499841978
Ni 8.813903708906052 1.5525744576357297 11.413803376875526 1.1716131440505628 2.2940850504897843 -0.28193997357775963
Ni 0.2796190355182348 4.873505126735783 2.9055000229746164 -0.23243029688340616 1.5625321533329026 -0.8800618726352845
Ni 2.54474959574801 1.4424220077539442 0.389762254489949 -0.2261362363445783 -0.12441593908494057 0.8851667979620176
Ni 5.487185259191242 -0.19703285238261334 5.629392967386904 0.05029900536486821 0.5362902104627086 0.21419423349135366
Ni 3.7790515050326055 8.486160246821681 7.2835757445423495 -0.10259035856941685 -0.5716539346739833 -0.41019097013807415
Ni 8.764582956394666 3.5642297658514344 1.0182792287031377 -0.5951898130123944 -0.0030989506402978886 0.22330699442589927
Ni 7.363616965771291 1.4397911983836005 13.167530442058725 0.5490940470955964 -0.44049604887951876 2.090050788250568
Ni 0.08953244296433542 6.719788681022703 12.053114054235179 0.008423448177004848 -0.11014091722316514 0.11562790847966538
Ni 7.576841757510113 2.504493596926719 6.644426608108945 0.8331289555291715 -0.4871173482824837 -0.1531503309051556
P 4.980832918135727 4.844750841863433 4.879364908449096 -0.35841486600704725 -1.8276995354380137 0.15104896829143663
P 3.931730757613242 2.7433803186639794 10.332798268055342 -0.16615934157031384 0.1920423799846628 0.5420158000925762
P 6.978115699370292 2.8070274436061493 1.8373831107960945 -1.065151475451198 -0.8377194031133315 -0.6429100019064927
P 4.107256512620546 9.190626379829167 0.6945032117674463 -0.31916389092622455 -1.4612229754687545 -1.07719657954119
P 0.6877526472322456 2.3050320921043252 13.248579678667461 -0.2352366559839497 -0.2500896618363822 -0.5793106798882927
P 3.612359730963613 3.1283831159211246 2.0267450769093904 -0.48706618332957413 0.2602236649465905 -0.726250253997046
P -0.3986137741573959 6.398460701437942 7.993045953899532 -0.11155219574839498 1.3017598149716936 -1.078138117518853
P 6.690360539715142 1.3890396548111497 4.5983621595111615 1.352901370842515 -1.3739998433840273 0.5483283725741653
Ni 2.064917659327571 1.9056290751358265 11.468331285758177 0.07594190274395309 -0.6407644163183996 -0.3022177499901892
Ni 5.903351608849368 8.323880847766809 3.31545858560974 -2.388734814055886 -0.4534970891248771 -1.1763905108345483
Ni 9.11803450302783 0.967796304613764 5.413267823703654 -0.6013591750478998 0.46773868664555573 0.6038094363606052
Ni 5.327739749528283 7.5330133964911985 9.94773916224676 -1.9295437598700254 -0.19289058691757102 0.6572649850765842
Ni 2.973663832214713 1.2498836854850859 4.872109413132991 -0.004884067565178686 -0.04348043978113802 -0.006820365355943093
Ni 8.207100604453771 8.24659966864921 0.3064735990978955 2.29023739460892 1.304985778108159 -0.1510379125478431
Ni 0.8468233819463059 8.986632498161727 12.372986319301685 -0.3931851796086971 1.17125936025557 0.39231408985765337
Ni 1.1120200435690157 4.554743340150866 13.150359103143943 -0.8604371564258213 0.10768731347635002 -2.0145449446027692
Ni 1.0570684359140865 4.956943322870993 5.345107706827586 -0.30178991842415126 -0.5121709488170018 0.27083023681784324
Ni 3.6313846366207287 7.713514612026976 12.30674438553845 -0.4275903965614442 0.8784464485190485 -0.24329423618110355
Ni 3.280600822998192 3.681776174700396 12.885407060638125 1.671376463231831 -1.7493688207469098 0.19759056349640164
Ni 3.4578804509190575 6.371377211288511 5.528713277420369 -0.42074663416673347 0.15456957985018543 0.46414171332291676
Ni 7.808897605794552 4.714235004364181 12.242732639648459 0.40701822883704736 -0.4519446570360926 0.3698061385631244
Ni 1.8176123476052115 0.6373149546022217 7.780433171498443 -0.48749298645434747 0.7783449178097562 -1.3421181641840823
Ni 1.7089276124247754 7.7127946010414075 0.6176965014275163 0.6205522030365829 -1.600644901044224 -0.09183980492113215
Ni 5.446421560316025 4.245212463637329 0.8709622117829664 -0.1188764973239501 0.9111637362464113 0.51812562373854
Ni 0.7590152729833045 2.4951426850244105 9.392193455238843 -0.07457587563436188 -0.17467226413733145 -0.7166880642299076
Ni 6.634033526459577 6.699083749732597 0.1543315854834135 -0.5902350401102802 -1.9374866688661858 -0.3842089442520157
Ni 1.721306262830497 6.598272980843048 3.6741182117051787 0.6286995147340656 -0.05029489159981016 -0.33320288551779387
Ni 5.9541862306124616 6.666738640842479 5.0626870901026875 0.7520263345198855 -0.1103635747569325 0.642746736855751
Ni 0.6519404085193172 3.03094162920763 6.700319768591155 1.3556989881923103 -0.8370398605478037 0.17521579534562728
Ni 5.890280640188293 8.608792887119973 12.224898521390553 -0.897914584545989 -1.262765178876051 0.9898297227897469
Ni 3.9835161631136873 5.708717869994307 3.010258852101695 1.0987596504239463 0.006764058196710931 1.691084740294036
Ni 4.143469372830571 6.51745636316811 0.8468556901315558 1.1629109882908746 2.1373585721975963 -0.839044292572342
P 1.1303064764204207 2.586501002000865 4.587297067608597 0.05161566729376272 0.07749279217084072 0.23857163389445363
P 2.917595284441147 5.709640961001444 12.787686800440476 0.003630397663735683 1.0165892502717784 -1.370953857468852
P 5.839870640288483 6.304083876868146 2.13585443395311 0.9722714021910095 0.8884323560871666 0.27166584534526117
P 8.900554261746102 5.813627162955548 0.6947570617944093 -0.107443315786344 0.3642358435641985 -0.05017867773692003
P 2.645864984669914 8.325043942435801 4.695393793817487 1.6040968641485664 -0.27737215170141905 1.0306637260869733
P 2.171026970598092 8.84178105732162 10.83426284222806 1.6129784829089127 -0.7533460817725736 -0.8366176854087204
P 6.445206030039413 1.2298433797201185 11.149892581025759 -0.7192869353053354 0.1482132986148544 0.23115605815667287
P 8.924443857010836 6.3157425162883 4.546834296401707 -1.80451846933586 1.464677509676258 -0.5842083743002262
Ni 2.201719746585433 4.204393379301684 10.582537770763524 0.8801963413306195 0.23271080423830245 0.2707890991672627
Ni 0.7610728428382152 7.979549440284167 5.905909494030148 0.15857612990641723 -1.0240745029052298 -0.4980802750518905
Ni 6.622993358014206 4.953435577043869 10.02147936426098 1.285111150671419 2.5998565792695034 0.4179076220560416
Ni 4.2865669407571145 1.0505698752238344 12.139770145621272 -0.4895185015248085 0.6400043982239236 -1.6390906066149318
Ni 2.884308622723748 3.040717162973222 8.298407228333826 -0.3635532156748771 0.11888138241995655 0.5832328977608342
Ni 6.746115236546281 4.643313922285763 3.1809217636833944 1.1332972791894997 3.189190704832069 0.07682533379017091
Ni 6.13696748093587 8.796429596140928 1.1289809177341703 -0.41119138637813063 0.6740113512969875 0.035368352196964895
Ni 8.448858139223232 3.078997747039238 3.6378425813066664 -0.9045050932793132 -2.4763942623470836 0.7346613608788767
Ni 3.556669650502973 0.5851529279708638 9.361335445961226 0.18086219499812722 0.08865009433924088 1.0918904341079387
Ni 5.596645390817674 2.9132290639773837 3.620455239096214 -1.903991622432534 -1.2184951533140822 0.031091322088165806
Ni 7.45887995770794 7.57180168061114 9.472553142865248 2.917253865213608 -2.689556969250129 -1.814969746576171
Ni 7.254286066885859 2.889274852342151 10.000119038355804 1.504496441445409 -1.4533885670260003 0.22940950777921135
Ni 7.851839799446615 5.127530540990109 6.19123507815451 0.0022548574724477292 0.7563586433466521 -0.8385835508858397
Ni 7.806100640042923 8.284400245391513 6.9004892842160235 0.03815877045790848 -0.23338160505308192 0.8802796450730452
Ni 3.083243965672073 6.658486207238664 10.205787407110193 -0.9337688752404371 0.6944876168734685 -1.0539080413268946
Ni 8.004269817455324 6.938367400602926 2.38948476525638 -0.09152767299735205 -0.17674071663058594 0.7193478704502578
Ni 4.254258755507283 1.1190355352232648 2.6492213435718677 0.15513727942819733 0.42423947781134036 0.8045015216004661
Ni 2.349931238691521 5.396463875009713 1.4589037976863943 -1.8122819153313627 -1.396273567180563 0.8977014400939184
Ni 5.138210703942695 1.933654118112538 0.639978072157815 0.703770070616659 0.3446579214322709 0.5962282815792377
Ni 1.5283987041587836 7.498369790993307 8.024335969768492 0.8663139269215726 -0.05199104835531046 0.9084738481190741
Ni 2.434763302247509 4.079600706046689 3.737089634030123 0.8466652994527096 -0.7082605022878447 -2.2085395632177964
Ni 6.073135737792273 6.067864888141514 7.769260077948044 -0.0819171464907815 0.4438981325825323 -0.46869693679376706
Ni 0.3744463284995142 0.14738624874570666 9.58758043635573 -0.18055032018466322 -1.4179060578486742 0.6154485632614304
Ni 4.562275762769112 4.725902874694406 9.107367263349342 -1.3520379944009553 -0.7827283915894326 -1.163245745922474
P 5.894757631572912 8.278861699348685 7.913415508168766 -1.1965158208295135 0.13131986529362544 -0.8713291207479767
P 9.209808210957497 4.083043835503314 10.556138291050383 -0.7883143703176424 0.21762614199103808 0.5926876154158309
P 7.081474199439541 6.620270239543148 11.513212893616238 -0.7224200816176785 0.7264855099363037 -0.884791931121102
P 8.88877562049502 1.2010614021175536 7.822004575004906 -0.2339709018976487 -0.24176777223424814 -0.6804617349080216
P 3.6431909706020247 1.6371388247996481 6.944978578396049 1.1516593266364554 -0.6304761470185142 0.0947819182685916
P 3.593934834461137 6.203697729841881 7.7795008495812334 -0.02103805161722183 0.9248833998253492 0.6060900048646659
P 6.596159102436702 3.8875977765619707 7.987371713478654 -3.0906999702533224 -0.2532230652590413 -0.42065304601166265
P 0.634696145414971 9.164262900665305 1.6017355154028816 -0.562947922259553 1.1904505884720402 0.09398230518543169
