# total energy = -340861.87523570727 ev
CRYSTAL
PRIMVEC
9.38276767332877 0.00000000000000 0.00000000000000

0.00000000000000 9.38276767332877 0.00000000000000

0.00000000000000 0.00000000000000 13.73262891460907

PRIMCOORD
 96 1
Ni 8.923856366003443 1.1046238380313318 0.7849820350105844 0.5019137898653679 -1.4858567148570345 -0.7845698156735456
Ni 1.4483146124971615 1.0025299445843567 12.607528081756993 -0.4544196009391464 1.9001953886148952 -0.9533190294582228
Ni 6.173373127989184 5.8991711298185745 8.770878785987927 -0.2683990016685313 -0.49628281683183556 -0.18265605367375637
Ni 2.031350403775682 1.8209793730823058 1.4839616228807428 0.5428778909825553 -0.4831894739829872 -0.44711432552698477
Ni 8.001079945387406 6.766307739007302 0.2522453838837544 1.3781480612244459 0.9846450932650139 0.48484886396328103
Ni 1.6003623602508819 5.901057066091237 13.629043118152818 -0.6178119212872843 -1.4569266620862458 0.31517353881990884
Ni 0.39639002655059047 5.806356793454503 11.588127921161455 1.6595946401055548 -0.446193099264296 0.22472778603282587
Ni 3.4666698832497707 0.667460056921126 5.959796005632281 0.4998353100697843 0.3280959033085317 0.14033363875646154
Ni 8.388306761172414 2.347784238579398 9.909931751178007 0.5203858805276264 0.3016068558790677 -1.1887654874601332
Ni 5.724764247051149 1.2388443274862513 9.387089228407012 0.2887094310911092 -2.4693486683542116 -1.0761910210948111
Ni 3.93773172687677 7.776794270453439 4.124196404191454 -0.5135035515854963 1.0517665695038596 -1.231389749888563
Ni 2.542589257947663 7.974292144101576 5.954495680257022 -1.548452535311385 -0.5939685390107835 0.5483900790500362
Ni 8.502288621074431 9.227698526787691 9.316132987270773 -0.23782241443325494 2.164468798150827 -0.4458015202528322
Ni 0.14194156885180528 1.4503694385852866 7.5199738491241614 -0.6608532166484747 -0.13770854242878863 0.19561827026137923
Ni 2.8053630452719887 9.094725945413687 2.3990901496865944 -0.7146725764617756 -0.5175646090287475 0.09470504228406916
Ni 4.213369288478809 3.103800731961441 2.86694683992682 -0.18724881525076137 0.40143353566041834 -0.39161166447399004
Ni 5.9104679819195 8.623964350347508 5.411149933888901 0.032877724564627245 -0.7146777186680983 -0.002530736841653706
Ni 8.396497917222336 1.4718653589866304 12.096811847736191 -0.2714426735908615 -1.0570553287066247 0.267278772021159
Ni 2.6663385788439182 5.267598282129688 3.6945163184597343 1.444229012013919 0.6857741482598706 -0.19382903957144038
Ni 9.346184115102037 1.0574941967498177 3.8840820004416576 -1.5002590063252936 0.19052208668539444 -2.142524689779568
Ni 3.124583562030833 7.37994073518708 0.789829172714353 2.1277650149718905 -0.6896835106166058 1.363954029112251
Ni 5.7499194467875085 8.517104010997487 2.5661475106511524 0.37961669689564304 -1.474308605008119 -0.012933163121900307
Ni 7.012042420504984 1.2199286681544708 2.249308340290327 0.6133765112237501 0.3380285890412114 0.3685524686616814
Ni 9.44319254855009 4.124833494106448 7.863852278940505 0.16301025441837086 -0.5581232471774001 0.47578855353322574
P 5.302061187251527 6.758632635171292 1.1624657849969202 0.5225780030829388 -0.5494064361296925 0.508902305368059
P 0.02449371462579986 3.8122935078258915 5.57547503294998 1.9100830800422521 0.9187176373342695 1.0479253413808984
P 0.25385077540739903 7.423214059015538 7.2853521174839 0.41686709660666915 0.7889563747770154 -0.030665804514972993
P 4.4644521474661305 0.5879589293992472 4.046868325628524 0.29388634730635843 0.037476399678903205 -1.2370914282590306
P 6.434899007232594 2.297989891320589 11.076586941875146 1.9370570375279348 -0.25725018414056344 1.771867258959742
P 7.0154389823492815 6.367446291490446 4.751022509789098 -0.6074061525729282 -0.10853989128463243 -0.6680024260987463
P 2.986084530584201 0.23324152653723262 0.14120126849402875 1.7959842066126037 0.7780602966898019 1.2734812797419746
P 6.8535017976234895 7.833240999887958 10.324546865370488 -1.4324207065250814 0.08930444009378813 -0.2968001785190437
Ni 7.285118486572511 6.156709332863568 2.5178225047868663 0.08811479066106115 0.14977678644723236 -0.2118696991232351
Ni 3.1820999269632795 6.860172945334251 8.171628634148272 -1.0490568838821805 -1.3289497451229242 -0.10064403347632345
Ni 8.219717194270912 5.8660311949178565 6.539862150988923 0.06882046120782341 0.2178572841652377 -0.04546661697323137
Ni 2.486733642867262 7.414234750493458 10.764403500760565 0.4650400567674701 -0.7160691996989861 -1.7271927988705027
Ni 4.608008490609106 2.2514795126957705 7.2557438562798495 1.256574476684307 1.6094933525737893 -0.15947730156444792
Ni 2.0383874794199457 8.154572639340081 12.768103826914805 -2.4777656887733133 -1.3483698015207488 -0.28460723599727755
Ni 2.4168695558710143 2.8837091541114552 8.898523831960848 -1.0812326972837765 -1.848296899973391 -0.2653946676245687
Ni 7.632355947163049 6.210435059715639 11.796685262892115 -1.43597319976303 2.187594328424697 -2.0181542592205823
Ni 8.112293888869347 3.99289301716027 11.837910328569716 2.0773744783344803 -0.691855321456944 -0.355401018881388
Ni 6.2111575328151165 3.323911075346478 8.985643766713581 0.6349570656080032 2.597629489711197 -0.7733073553858488
Ni 4.560503538626565 1.6143989804693062 12.87667370650801 0.7472903624967969 -1.5005184306342674 -0.07365387804072476
Ni 4.034805839697503 5.3829875571605585 13.14632787725892 -0.6676435000974308 0.8345451191504077 -0.3028854654811752
Ni 6.789914782101925 0.09672413559202568 0.1453953655780098 0.2206700710236845 -0.3880200904679898 -0.13556655638512136
Ni 6.742860202960617 1.5257505928866375 4.796024139395786 -0.5903322278097769 -0.7818868695247437 -0.30649375165772375
Ni 4.624362654406375 0.8847386810669113 1.6062369109987131 0.16252148770741043 1.6359913988643178 -0.5901406806242611
Ni 4.524792725423809 8.311790292000454 9.348198595289801 2.145801817868943 -0.29163406093707195 -0.2963813458140702
Ni 8.527734686604088 9.073398914827806 5.657746891722193 0.2471688886451614 -0.7554315035466925 1.174934238003996
Ni 8.440221613892026 7.006816218993177 9.271460692804236 1.4378490766295045 -3.287117596487545 -0.8189688619787056
Ni 7.500293494239037 3.4031860781709877 6.3113786258639655 -1.047304162857132 -0.6660915822292787 1.6833737448030235
Ni 4.583031563455734 6.511453007474655 10.66278156052013 0.6390559182677252 -1.7493600789961612 1.0117985137513543
Ni 3.359387319361092 0.6715331163040258 10.258273563506318 -1.331634748154255 0.8198494648114463 2.7657909493132045
Ni 3.3953702328220925 3.847056661508553 5.750950612938582 1.325076121100131 2.314089518636169 -0.35826162825863456
Ni 4.444222900680755 2.900645049495316 10.811108102673165 -1.3178310095019434 -1.1105139627463971 -0.37137759681530236
Ni 6.948502318821047 7.94571223421834 7.6832405720083425 -0.4047620858130191 1.2401201877830255 -0.6984342602260424
P 8.700114891585965 4.620299916067753 0.22297490231062844 -0.9407712747001992 0.9039265950680239 0.2265111031854938
P 1.97904147481999 7.1595582915437985 3.149097918745189 0.14772016102851981 0.30332178168764534 1.2134974429891747
P 8.06288423507909 4.762336250871567 9.7135410440979 0.2001578100029456 -0.5748001936124488 -0.48653807874024596
P 3.869462710359888 0.66251158532808 8.31043729692325 -0.7875471531343147 -0.5769804890932193 -1.9260174918843218
P 4.990431329420963 3.090261398421878 0.6969998239222391 -0.19261804998247473 0.3719177855894885 -0.15806190927416006
P 7.667588239221995 8.851768563103608 3.5892698151241293 0.6098145049041047 0.0834271553774047 0.3819576863239938
P 2.234224603216036 4.702727528780893 7.665402054388511 0.16984373240043651 0.18697987786009088 -0.5934666596737005
P 9.132031829095808 8.834006984177487 13.114165626734376 -0.5236218709664208 -0.7785174388318786 0.05222116208824555
Ni 0.9905106193839547 3.310399890109492 0.17583400170808347 0.2727824754482076 1.1121327292967427 -3.062988620380983
Ni 3.0041369753036187 3.3019460165688503 12.823061511142999 -0.0694758354036352 -0.15399082452857996 0.20717974984673354
Ni 1.2591017225742045 5.7170985259826645 9.379303407914199 0.09766566757428988 0.13848630113507765 0.15524680842286812
Ni 1.9217409135406336 2.502609285520721 6.1368647795467455 -3.1176405033979084 -1.2031585229570116 1.1969117707163515
Ni 2.247322946681892 1.5613018990414564 3.7402047666493035 2.9633630008668446 -1.1340922642869695 0.9983362175988613
Ni 7.035264770131054 2.9234357918152045 13.505999381374496 -0.7412739810993879 -1.2936505556009978 1.4734372581467592
Ni 9.08510860869986 2.9940317346784564 1.829117047357332 -2.030733895657806 0.10767137263675004 2.186970835908085
Ni 1.426283874346854 5.875826804214672 5.796666271153975 -0.4354962816720822 -1.0188795889678517 0.586587416055364
Ni 6.294833053609172 5.257840203902976 13.460159870627763 0.4011537996364704 0.16430274797754932 2.518733646545243
Ni 8.190987160107264 3.1829162277380143 3.9835055582508225 1.030085227875684 0.5113211992221968 0.0649668917896881
Ni 1.0142396384564112 3.383266462713959 10.951359835093594 0.16989129780892032 -0.5453957723084025 0.272951139815588
Ni 4.179647621991498 6.051828757461465 5.456124353469765 -0.4753622646290845 -1.1072170371626802 2.356189018909381
Ni 1.363409949157241 3.5177872007297 3.745340893592863 -1.683863025734616 -0.8179360498388171 0.987362492196177
Ni 0.6785683153947841 7.566610895110577 1.644056970341243 -1.1330167718346038 0.7339347671254973 -1.2033464705981018
Ni 9.091395062942068 6.9359950897093094 4.188534041115074 0.14634822038165762 0.5051402672224655 -0.5764660113506459
Ni 5.557929257676949 3.664327263945844 4.9469459550464245 0.3920389818193958 0.47745282860952615 -0.7736038035803451
Ni 3.9549960191240294 4.541756769110247 9.218411463490767 1.3657167774396286 1.6093406290460088 -1.3859251340667034
Ni 0.26232622931335 8.057939516593056 10.971450216919589 -0.021358153960801925 1.32324318165645 1.5889777491189407
Ni 1.7131995225147658 8.766460440760083 8.737027637308762 -0.6529126216451593 0.1577646897487154 -0.3671098226778839
Ni 5.081444174420104 5.760737777744624 3.4605945412768895 1.2985785890302346 -0.27455653662949486 -1.6826834036042182
Ni 4.408080480171817 8.389245037924981 12.15487335146188 -2.0391231481627656 -0.63478660146841 1.2507861521373038
Ni 5.969082130652453 4.51583218243678 11.420425025791127 -1.399690306171596 0.17509315372483394 -1.7184623609760403
Ni 0.4189659034941403 5.098989949693134 2.407920272205016 -0.6112352965110313 2.33197436933639 -0.7739910117164347
Ni 6.172003243930434 0.0029555717705906748 11.575438666359718 1.6975916881746185 1.7279726144593206 -1.1606491888398913
P 5.23124005796766 4.457152354331148 7.0504554707551375 0.7705807004833051 -0.2577322659833045 0.2575764571317306
P 1.2215425041688885 1.1609673570230683 10.149140717861574 -1.6585921669829693 0.44326975496991405 -0.23680580024328246
P 2.9104781898622343 4.452733070826551 11.044535408007405 -0.5737918069525925 1.4785246999719956 0.6071492993671156
P 1.318747975734982 0.5310590122932376 5.364019354330634 -0.24113219553277826 -0.9276061980731508 1.9933945357773992
P 4.9322863190642945 7.189705123603824 7.041144012262648 1.3103383006693239 1.482662119179137 0.7387833534670503
P 7.204004461312967 1.006986759159057 6.916630934089802 0.2269502476054414 -0.0032750712068459723 0.6292170778004325
P 6.560609326541718 3.2900111362761795 2.807869182478099 -2.2425984525747182 0.8082540466643627 -0.2381970241638543
P 2.3740935187214176 4.289397853739431 1.6402935422866907 0.174371445067461 -0.4413378280545238 -0.13860200077733548
