# total energy = -340891.6571122008 ev
CRYSTAL
PRIMVEC
9.05478888039954 0.00000000000000 0.00000000000000
0.00000000000000 9.05478888039954 0.00000000000000
0.00000000000000 0.00000000000000 13.25259879855064
PRIMCOORD
 96 1
Ni 6.472073269361432 1.794559534256532 11.539156615181554 -0.05626216492683859 0.17153577539087878 -0.17407551109359698
Ni 4.8382452908047 0.028958120009212496 6.173471688682966 -0.932223128019872 0.9843859260663563 -1.2028029393898059
Ni 2.953681156037999 1.654137869798614 4.975635411977828 -0.4521611439222729 -0.699483527426163 0.15453332729561128
Ni 3.0611252797456117 4.4620278716299495 4.91450110002567 0.9189899171590495 0.4394097577938755 -0.40654566007600307
Ni 5.184120112765208 4.622804701273669 2.8992573480534545 0.28216648776626885 -0.5108452880270428 -1.6847603407379048
Ni 7.381500035643057 6.326345498676255 2.5854491550916103 -0.38457995443818926 -1.0267217107200899 -0.15215634242300247
Ni 5.276696273289954 4.690217603768459 11.343137642112723 -0.39490190518948765 0.7228656537955293 1.3623018382208087
Ni 5.665898259580557 7.893059382768059 12.352204209649273 -0.07538345913732179 0.20590371134778734 -0.3547464160165245
Ni 1.8471678570899408 6.605839664063316 0.4443320678002785 0.5195682697223374 0.24375163543349632 -0.7713090940088975
Ni 2.761529483258693 1.7144608726757518 0.13031652017528728 0.5691946745002133 -1.1832730968869944 0.1797342520412711
Ni 0.578974966056427 0.037130066886519104 4.414917616546015 0.3810446875914212 -0.6403283572222456 1.1464471863078964
Ni 8.496235082806733 2.5748740672711046 1.4902941831938494 1.040780759916317 -0.6361472292613625 0.014768416558426178
Ni 7.014844473423914 0.5557675424037545 4.817637497011833 -1.3460321545265077 -0.20581397984745847 -0.2677454272449324
Ni 0.695913035803769 7.3677820306357225 2.378801670948448 0.20771685329712614 1.0755880974034895 0.8621996476428828
Ni 7.791672912756755 3.856497926507509 3.6463860801756964 -0.7373903297742656 -0.45532771457571264 -1.469657993609985
Ni 7.612270382584926 4.167874003202046 12.578067766549243 -0.4827572715415751 -1.6271203216269332 0.12148411015012626
Ni 8.026074230000894 9.023531652837839 7.008809456699566 -0.5477583590033083 -1.2057563655911752 -0.23230945503482572
Ni 6.861972474388382 0.5742773416354334 0.3484146902143407 -1.134979551987929 -0.0916225467040035 0.8733718622096185
Ni 1.8471497475123733 6.511479710148178 9.375457790142505 -0.3770317097772862 -0.4997849164478232 -0.9396615865757881
Ni 0.17254714958367542 5.120175194374583 1.3556875040928362 -0.9468917857756404 -1.4666624013167708 -1.5059313741197224
Ni 6.19710649836623 1.9291951886816532 6.97480329194343 -0.2554617247815729 0.30104532694864283 -0.5159196172261566
Ni 3.2937065844442235 4.352356269881542 0.19355063764639055 0.5446691785550232 -0.20673854854425686 -0.28811139249579415
Ni 6.071036674130507 5.718941212275584 4.645407265035588 0.7428089296866756 -0.2402971012259926 1.7187084155485755
Ni 5.204728812036953 2.6213341885203683 9.099154532322826 0.9505712915097565 0.7866410963802775 0.9319739881235433
P 0.09019475107462732 5.765618648455657 12.427942084951814 1.2190942203506618 0.11836356224327359 -0.023189807852901995
P 4.073541213653259 6.303536485730065 12.741022272895448 -0.06508156299068146 -1.1176454315848556 -0.46191153844081734
P 2.510222875355349 8.573499595498209 1.522458603911377 -1.8444399881211462 0.7984925964022249 -0.9252958047724192
P 6.426409969525136 7.616824941343136 5.8007285919645275 0.43220526962563627 0.18443191462725658 0.010402426280246601
P 4.692209657300877 0.9459628390239324 12.726086398796703 1.0488023446692132 0.19043081252316882 -0.39861869191944255
P 4.10358500283764 6.042043240445038 8.225424459863257 -1.1340799229917953 -0.4123036456057028 -0.2981011567186544
P 4.834116307119324 1.1602625251682157 3.823202562670895 -0.3566315488543793 -0.4787509785956594 1.1345823165495104
P 0.31243729793998903 5.511450727296658 3.3764573936597553 0.3796056411520494 0.1280260250337021 2.3826963211712897
Ni 1.5916236080358164 1.227530551042466 2.6137037180123275 -0.13412108218784644 0.2865322209341323 -0.7120068567041544
Ni 1.7239774556874405 6.5428092793398465 4.828505054510053 0.6802696735018735 0.2403644641288183 -0.3607093184681788
Ni 6.027972098675138 5.088646419829672 8.982028122968783 -0.5679371479440284 2.2815864038021414 0.05870985513638276
Ni 8.46302211754805 2.228972080944246 10.421366482282252 1.6321432287628217 -0.021572326854137045 -0.3852096176023882
Ni 2.1564884967305735 5.224422977641542 7.127486045893382 0.36295363441766526 0.021348383768789038 -0.09561187036905469
Ni 0.535756459191735 8.981589871191652 9.127396418539247 0.5001464135522999 0.5415000367984223 0.5374981147278808
Ni 1.5897583215463702 0.9720949594537461 11.443287227976171 -1.1466893842256896 0.7990577248770754 0.10701959798536408
Ni 3.987149473867794 7.086974920875021 1.68822190573829 1.174170620365094 -1.1114398169947761 -0.9678185086259783
Ni 5.636017456594283 7.631910219456813 7.9823450330488015 0.17096164805496364 0.17598969739717432 0.7565010824617875
Ni 4.959298762054243 3.1234946648878696 5.039300537395038 0.6770203133266405 -1.4053747581508829 -1.2603717389432099
Ni 0.7663276007803616 7.308753862554657 7.058015895386931 -0.29643868141456686 -0.07574932711717278 0.01238963191360447
Ni 5.036843973198014 4.481975571320483 6.825075115573604 0.4385057579223674 0.676533346387893 0.6791664131353659
Ni 8.174826300139834 7.111250809604173 9.164569948411929 -0.006866645212846238 -0.29452835176573144 -0.11093667365158313
Ni 4.709314153313322 0.3388129921880848 10.590482772395777 -0.5377151158346933 -0.8399608908493406 -1.1393694535255088
Ni 8.292049595733864 7.098881968125612 4.725704226490732 0.06385283278990293 0.012846002724732715 0.343856251466582
Ni 7.462857312864774 6.061366159709494 6.991952156420915 -0.47415358903296395 -0.7913881241469597 -0.5003796126090285
Ni 2.4489581744447046 5.103432889913486 2.316077338085868 -0.1537257437926514 0.20160868351685926 1.1479096297860358
Ni 2.205918588700897 5.3805818650055635 11.562799574174726 0.1227436935888402 -0.6404890511698259 -0.33856260716781045
Ni 1.214627477025666 3.3814022138145443 3.779111174167453 -0.32008948806428744 -0.44859965182325967 -0.7081581723820255
Ni 3.7025574623954984 2.8537796713872248 2.8049526283498967 -0.5895863507826877 -0.5535489975431563 -0.27968897276005383
Ni 1.176280446526615 3.4483442672925806 8.519472387262391 0.23665307671550212 -0.8822385685716291 0.20933227741336205
Ni 3.4583769732649414 2.816808968783299 7.4979889878667265 -0.643266356804647 -0.11503964007636318 -1.7121937543585093
Ni 4.235305015274403 6.756357418015082 6.017846128378305 -1.1075654216410344 -0.3819903393341421 -0.4212593121370939
Ni 1.0344190706520857 7.650110344912088 11.459986069451105 -1.4188432249509628 -1.0129061449932362 0.2111212509929848
P 0.06625751144598714 5.33716415278763 8.219593175886542 1.2723019147218926 1.2818929008444375 -0.08920828083555604
P 8.708144304712114 1.759273022366378 8.151263023287962 -0.4537192324380121 -0.7716106844097164 0.9750515360393078
P 1.8947054982044667 3.108925509734865 10.829056536311455 0.6267315923744173 0.8060392984012311 -1.0004154687253932
P 3.870152547993358 6.186666326898601 3.6528267514375554 -0.26963853050258724 0.054511500784319024 1.711080980910305
P 6.816933954978163 3.671970385884095 10.303762885559307 0.778522066817569 -0.44367778904161004 0.8569065175647437
P 6.381371450114917 8.003029792546329 10.072757114109063 -0.018805305631961162 -1.6565262855928762 1.478543469025073
P 2.280928458985227 8.50932830738799 5.842063702762206 0.5805676922238453 -0.6444233532272257 -0.8179825868060364
P 6.806077263226483 3.8985574204078848 1.4664791832137896 -0.36330099045475495 2.45027776776569 -0.6560825347327088
Ni 5.271670865514989 2.9629260953861762 0.1346954160310939 0.34097867280847083 0.3887952780711175 0.7177409309744541
Ni 1.2642115004053125 0.9582049134595209 6.955242231733961 1.0869996816745409 1.4544270355928435 -0.19677218136016433
Ni 6.877293177010435 0.7443090708949915 9.072967177681432 -0.1546143170451918 0.36037533216752776 0.22298149276568052
Ni 2.847423209661054 1.650488789918775 9.453728289867852 -0.7075454784986912 -1.0234738932067535 -0.3696336175410021
Ni 6.125899639371062 2.135218797877617 2.377834619506347 1.1074993442897896 -0.49640263023915154 1.0148013051334202
Ni 4.042003384319566 6.721913001481814 10.482924558349488 0.9274200502042739 0.6611265249145195 -0.5006601199639249
Ni 8.100984497608604 7.345824167835203 0.32117969651066997 -0.15853139271141087 0.011356562663399796 -0.07089379879708436
Ni 7.677003067599735 3.6933487422024562 8.151487582049798 0.21649434237944007 -0.7316094614264304 -0.46316597967320877
Ni 3.1292354009767473 8.262232176269077 12.388409782600974 0.8205354351348771 0.7749058102212203 0.8437062168243857
Ni 9.092185061395998 4.669627014074281 10.456485480579907 -0.03950782828663519 -0.07931904674630211 -0.5158617674050278
Ni 8.3840190854101 2.1877094084568376 6.041713646133311 1.0210997365476222 1.1961993180303592 -1.3730786171213385
Ni 4.1636725812064 2.658006083094431 11.292260594894762 -1.6874579421747262 -0.13085758094522626 0.4460612016721221
Ni 0.8538357960228594 3.433720783406874 12.705849851343968 0.27100481472249455 -0.5137876584848183 0.16572971023206295
Ni 2.946917228816561 8.395808420406503 8.004688629851508 0.6347832590343003 -0.4917131951832822 -0.3192453948964373
Ni 5.475575654135563 7.842877743328687 3.6543778367562068 0.10546408057278613 0.6444081837185741 0.584707939644464
Ni 3.0842512102992306 8.466363334609243 3.626494520175622 -0.058313391028912476 0.06596370848531864 1.0220669855568978
Ni 3.619651816291765 4.322276261542027 9.536623070225046 -1.1915541059488641 0.384945308197408 -0.07455016460274902
Ni 7.324853277012109 6.17402584175653 11.321443273665809 -0.6570983775917328 1.243606603669729 -1.0956640422177581
Ni 0.6057934394760465 9.01842475196382 0.4252481949597119 0.9566982303431008 0.6650227746451322 -0.08463968762826714
Ni 4.6527307782038605 0.3959441820189613 1.66135906385363 -0.7037603004246461 -0.005001824089965579 -0.08965333879277464
Ni 6.237997924513506 5.858394014333644 0.19848278109688244 -1.5644062304271638 -0.6911081588782743 1.832853311724811
Ni 8.01836860474595 -0.2666173502577346 11.306255676438878 -0.07673971605490008 0.4766023076837727 0.1264234564332726
Ni 0.02074723754013589 4.6416296071550205 5.497814215388377 0.18241642685912454 0.8010225619129301 1.4360282213706814
Ni 7.826941315069341 8.929733095827292 2.4785673337674665 0.691971278209518 -0.5271897908233372 0.06802856143414736
P 8.440194995024294 1.5839089279920875 3.5120709652735185 0.6758854283912489 1.7270300480403935 0.5122218566595953
P 1.962553030560875 3.0769168313844175 1.4555591079406243 -1.1957401190057537 1.437112455573796 1.1245943520988633
P 4.592579816313613 0.811426787275432 8.223330087217583 0.6010146472242874 0.41702444812013983 -0.865191126171039
P 8.467468018840856 1.5612810108215731 12.71802854225807 1.0024821214464348 0.5982890207630084 -1.5344919593662347
P 6.2058353147537355 7.816265719093336 1.593995962697151 0.07158953931252832 -0.2986868540187953 -1.710137900270745
P 1.6746560211825219 3.1916410052741404 6.023915553300032 -0.024106149019584293 -0.6070030035972385 0.8629961754022492
P 6.938630316231349 3.851952422538082 5.630485886126309 -0.6034962759955607 0.37591225146086227 1.7542408041272302
P 2.5672680446927805 8.47207690633177 10.179758458645152 -0.41971819290221907 0.5267534746168671 0.1789814330356466
