# total energy = -340876.07623094885 ev
CRYSTAL
PRIMVEC
9.19361337777883 0.00000000000000 0.00000000000000
0.00000000000000 9.19361337777883 0.00000000000000
0.00000000000000 0.00000000000000 13.45578248305847
PRIMCOORD
 96 1
Ni 2.817704520932255 3.911266415823848 10.221469193753217 0.5256594702217399 -0.6579057039843765 1.5159388789543957
Ni 5.633892095697639 3.256120350384582 7.763165074844198 0.6293618309084129 -2.8134705147773547 -0.7572428457238184
Ni 6.182796767777056 2.626900273979132 2.7119862441596494 -0.503253591722714 -0.5110820866281972 -1.9163640279549574
Ni 5.166461223198955 3.024183878276391 0.07028884984366433 -0.16179000885802455 1.9454506609082687 0.7176432290543254
Ni 5.235569613116399 6.201257542947233 1.050947659299557 -0.45526086589351916 -0.023829755429746056 -1.4350589154788769
Ni 6.333277827530776 5.861893701385093 7.9071287822482486 -0.736025588216255 -0.41616338567142525 -0.006014838735512222
Ni -0.06726323176173926 2.1550104991111585 6.614189596157422 1.1230794581162336 0.08698684770420503 0.4709492231630535
Ni 7.550576561573478 6.2314953365402195 2.234225427945224 -0.35318601350794016 -0.3700989872131949 -0.4396028476412881
Ni 6.740233112843487 0.5353321410118211 3.6362909631968967 -0.044694000473264966 -1.0780054485957304 0.8452110835046862
Ni 5.769341597979626 7.946591447258443 2.329747987753822 -0.4891467200076866 1.0479214847261564 1.1559109028239576
Ni 2.01395289281831 1.6693762726100099 4.824718993919424 0.6676447856490115 -0.6781634257921483 0.8915346491615742
Ni 7.840156988022811 5.907852573434755 10.742046505048593 0.26369979642064906 0.48766627880741825 -0.016087906700798096
Ni 3.697202327645351 8.207781996354436 0.6197276708460835 -0.6347480349209907 0.9631344728867478 1.4953065474160248
Ni 2.940007156434684 3.7408168283462095 6.640549523731093 -0.85990262407859 -2.491124369468406 -0.7154408220863678
Ni 8.159910852773203 2.9785100082338394 9.12464816300613 -0.944617902139799 -1.177484001009043 -0.18196416981305438
Ni 5.379789822326847 4.808232087488806 3.1375117086388156 -0.9645871461728743 0.48552634964628 -1.859006315971095
Ni 5.143918483797921 2.5400482107158493 10.233458584639385 0.6612242268346483 2.0807444232479777 -0.11453776073928017
Ni 2.5245385853612228 8.194708678479937 11.584930747461273 -0.5634436309490489 -0.08173408394569794 1.8213196000535987
Ni 1.1638746481294018 4.122388547799926 0.8503439401084392 -0.20220852188438723 -0.9937398564774305 0.2505714865688071
Ni 3.4794699878269637 2.8714044152395304 2.991098822696252 2.303227893331317 -1.7434992493400103 1.0579770691899455
Ni 7.834760337113999 2.4728612859431105 0.5114112790022166 -0.41150428963285907 0.610005023648356 0.47768062834961605
Ni 5.085419523435451 5.000139568017836 11.733913248274387 -0.31112739377499316 0.0834235558329789 -0.11542633399182058
Ni 5.065956644433824 4.155044261646775 5.307121665404478 -0.12371942723854822 -1.6121711565162689 0.2046608400796217
Ni 7.997717129888603 6.472404775065788 6.529929212436207 1.16670079435061 -0.20568002537275545 -0.46599239337841036
P 0.735189338816575 4.28786439057285 6.890665446447606 -0.4097880782727007 0.18546472676714512 0.7590061082718284
P 8.890720354293427 4.495980211054582 12.780315585241208 -0.2524455636630685 0.43465861626213526 0.676253610363945
P 0.4335983761708662 6.054159732826294 2.7451007193018127 0.8598635433105385 0.002437920017531285 -1.292357033600555
P 3.6087321884707384 6.349716007811791 2.6127228031674132 0.42638660606133016 0.10327967132695762 -0.24210227275553145
P 4.279415460104029 5.276389255424959 6.864413084147585 0.4932090630025184 3.3007644978470188 0.5454703343000799
P 7.022109291487737 3.5653567217113267 4.382453798648494 0.8461968444567233 -0.2038961939994553 0.5731158639314904
P 5.849978778765298 1.6651747914084307 12.16646263318683 1.3674584427210836 -1.761535795126747 -1.8456445499522087
P 6.937040789172173 7.775479919635261 4.988879230653078 -0.6350532248662353 1.678849888790741 -0.13949211669177267
Ni 0.25768502440854824 4.70738734503777 4.784688163617636 -1.0534133610786633 -1.1253898514169651 -0.5591144074460758
Ni 7.401226316235061 7.816556983111533 8.39144280590356 0.5981612369358924 1.5811718799212768 0.9993070661525629
Ni 9.411317891537696 8.268404681350528 10.480641744766613 -1.0234597521393665 -0.36259367997508524 0.30788446135766334
Ni 8.38051159988895 9.129441712893447 6.110378677131891 -0.43387777223205276 -0.16066180879085235 -0.010557720911188269
Ni 0.7032525655166926 1.713036741376531 1.5922096807818784 0.1609582569853486 1.186543282997834 0.6260682477588055
Ni 2.1546335609727234 1.0113893807127832 10.55575172533699 -0.6516666650532003 2.1637638016640026 0.29091620893444087
Ni 6.201735610830126 1.7690902006457416 5.882006568835193 2.3370235017245236 -0.8196818288853303 -0.42883301071929375
Ni 5.372379770142006 8.227649394333897 12.238464253157089 0.9273069216651771 1.6693311506670283 1.1419277011709883
Ni 2.1127106850882558 0.8606021736417482 7.405429636159267 1.2695354077203491 1.2330177724102893 -0.23374078816471355
Ni 1.1120318636749034 2.5482397200169595 12.49641221490123 0.57824161519383 -0.6744188711480514 0.034088971263909036
Ni 2.074125090770907 6.127432829492787 0.8237413011480673 0.6477243925760007 2.9060793366540274 2.3675280980712836
Ni 8.676454006626015 5.220675959841654 8.572140513940063 0.9989062311697184 0.5917036542360067 -0.34039631794243963
Ni 7.22182214956631 3.4407281020863607 11.777361344577546 -0.5948725388822916 0.12934680072765464 -0.9283947554127172
Ni 7.469801476590816 3.692201002101239 6.5139442772826275 0.974970032069095 2.2418538610992105 -0.39187623098928637
Ni 5.646689605178159 7.191354515645011 10.185637086569068 0.2091597563912398 -0.18174948269908697 -1.5261150481564492
Ni 8.684930517934234 3.952720417438555 2.5470721311491245 -0.5516476667553855 0.1981793461203361 0.11113824813942795
Ni 7.574240921776683 8.014808056702028 0.6778524511540595 -0.9885935363898005 1.2250818053926642 0.3178287170545688
Ni 3.2305621058760687 6.317814170241813 10.42353469743241 1.0743190008830787 -0.20719389091412055 -0.5251372791696827
Ni 8.833214304149273 0.46428022127815444 12.891634611134167 -0.13063800873525244 0.6830472362470107 -0.8926433088447208
Ni 2.7542685903176 4.7135562594497165 4.086400149192525 0.359564149120142 2.2278503477312666 0.9773285049989426
Ni 8.636599693696372 1.9894886882725715 4.178921913674657 -0.6332331409383611 2.6576423799297197 0.7071556992594402
Ni 0.36750916880615475 0.15354529101080272 3.652141671598741 1.1241624067677671 -1.8884526462566704 0.8177586437206884
Ni 0.604620725746663 7.707649441943242 7.622337308879664 0.10456753690044572 -0.1481940153411448 1.295174448444692
Ni 1.7718390909723767 5.494783535388892 12.17168368608481 0.01755883481936976 -0.04004338907513103 -0.6775828706983298
P 8.228403270610764 0.5722601268813697 1.9420055151655324 -2.292899514822116 -0.6934746022279217 -0.23507544781573708
P 7.406862001085319 7.743339048123835 11.793172520442921 1.3589010400693757 1.3545358211221445 -0.2969613866872563
P 6.616275626977198 4.435844787554515 9.718061874344205 -0.4280161712449532 -0.01339956123535757 -0.2306251253538673
P 3.4220558738141342 1.9321021550991402 8.993697095629905 0.23986489878458048 0.7071528710459628 0.041166961156612975
P 3.8878135087226906 6.805811155318029 12.570997240161738 -0.3953690746338933 -2.4137897001419852 -0.7045069487826834
P 3.21393085971927 3.8468008005383463 12.577226832420358 0.060267686541805886 -0.7258460765800919 0.5077622782263449
P 4.222617318171081 1.8332064586322059 5.852511619183318 -3.3284100274784287 0.8691385408545612 -0.15087619015899822
P 1.7723263524684023 9.690527922373503 0.03166096490590567 0.5020400310305869 -1.2534176762228801 0.037672831960425444
Ni 9.029406008398075 7.128755203825418 4.454347853345103 -0.6807890363404534 0.793630126103601 0.05480872030976367
Ni 2.5588675367981972 0.38467824133120815 2.435711733997067 0.10174832228409572 -0.37222580374821057 1.0103077881384406
Ni 4.385620079011347 6.670628267816886 4.645016954185177 0.7622241009884937 -0.5328125363267534 0.3753566360677084
Ni 1.3952962779021696 2.919183622689438 8.647183381134573 0.08046498742528722 0.3365458338480978 -0.62350974300301
Ni 6.922340201773211 5.773690176991326 4.492051780163039 0.34433704775774243 -0.872373245741775 0.45228121443990493
Ni 0.6667051952308319 8.169417048752269 1.6345545435091304 0.3669128761757294 -0.49481214582358 0.22772337832604006
Ni 1.5479194495157766 6.223901412092726 5.956592513457015 -0.014619549685387725 -0.6140300856473488 0.3213812102925175
Ni 0.39849072570156435 4.155641846500392 10.814209932609986 -0.15498095635599116 -0.6116052782559402 -1.5056428963450263
Ni 2.415373623025221 8.476005659496836 9.216174259186005 0.567932519958338 -1.8987332022470718 -1.4683210199661165
Ni 5.655634990756139 8.519105317862271 6.731053290130627 1.543362008162355 0.28532714488243766 -1.6386974849415714
Ni 4.50340865046569 0.39432326086857544 10.336368212599995 0.13667624450953236 -2.057548701857805 -0.9218014184659157
Ni 0.39432601895251523 7.412929785752808 12.960676807037057 0.03734141676293569 -0.9667880104789351 -1.7140796585273124
Ni 3.691465513050635 4.499115233132784 1.2969246173837916 -0.38643654803095384 -0.4901587062119688 0.01051735459155608
Ni 0.15022823539257554 0.7491673082233173 8.739570918864969 -1.2056347524116462 -0.18133296398695867 -0.053666379175204344
Ni 7.055684366647842 0.87094590777719 10.181977109180997 0.44110205789463386 -0.42311513439890996 0.5383828313256793
Ni 2.438872498192041 5.517574502344505 8.185650211460427 -1.3224222284170515 0.4946303688300772 0.37893638299916677
Ni 5.74226640730424 0.8801523919681343 0.7802012687135825 0.9882101849084529 -1.462859482630913 -0.22032451475880765
Ni 4.096407397087315 -0.10845889284742158 4.841632483999392 -0.16161517384305715 0.8664126572829659 -0.907925688925088
Ni 3.7660441027819505 0.9797633515367813 12.477021965443349 -0.32114595435325977 0.7059218268523391 0.5560262554390553
Ni 3.3010127633108666 7.517801330755906 6.729048163106416 1.0836351360776824 0.39312681556693585 1.2074011002834497
Ni 2.854331875652369 2.2464501753275874 0.9414388558323972 0.7656860913951652 0.42614337970227256 -2.0312149490592826
Ni 2.112444070307412 7.437761734823849 3.921620262933736 0.565233118749304 0.5218670930588432 -0.7194782253805351
Ni 7.188954982617412 5.978275650030154 13.125254433806932 0.737523255807704 -1.0324709544990411 -0.8162314084428846
Ni 4.635042803297665 4.703498446682697 8.902331887679848 -2.2305412642998683 1.5709170349624881 3.033838738289904
P 6.975240251737953 1.1564094342657645 7.9249175042984366 1.1551732533269847 -0.23868167710975668 -0.15304105902080095
P 6.600278740126546 4.449065203239135 1.0804343346996124 0.008883418532558893 -1.0049827763811015 1.4625234394477329
P 1.5822575945658837 8.642060699897112 5.983476476979242 -0.9243390972861049 -0.8048427069899688 -2.520986961355794
P 4.633663761327782 8.461139587061488 8.449221906357753 -1.3111294291120517 -1.16354553655108 2.225828175094915
P 1.482332213428103 3.1936129746963156 3.41312611737848 -2.5664849457875927 -0.7786459939899429 -0.528844809928257
P 0.18717185040444945 1.7940048922349758 10.711582548572546 -1.746044127249051 -0.04957652537654688 -0.7125740420615341
P 4.638499601835506 0.7333092449309668 2.5799172334265035 0.10085820636965856 0.09352927680841312 1.2179639634009605
P 1.046205593645783 6.281959079024834 10.157474291460101 -0.0754672771003797 -0.03077404795806313 -0.9014220834786153
