# total energy = -340863.3691107489 ev
CRYSTAL
PRIMVEC
9.35913024454968 0.00000000000000 0.00000000000000

0.00000000000000 9.35913024454968 0.00000000000000

0.00000000000000 0.00000000000000 13.69803314828398

PRIMCOORD
 96 1
Ni 2.671582444738094 6.469714037111096 11.777308616204202 -2.229184750271974 -0.10742248985073757 0.9992746702527308
Ni 0.311163938940529 0.5894258555288701 6.715953689589635 0.724482620573662 0.16728831296843447 1.186207239814654
Ni 8.785715046711463 4.202913975172641 11.598864631344716 -2.1631151123364103 0.6907510326491717 -0.4635511309267694
Ni 2.4478992320465016 6.279807925448957 6.86904285472097 -0.4214781130161193 -1.505436436761175 0.5421898637765952
Ni 6.134338964157518 7.619483186866834 6.479402608733621 -2.1147889144271965 -1.114028403657559 -0.5486854988032679
Ni 5.627411033938797 5.848698309289426 9.942758112488285 0.9825411595481338 1.888182680424735 0.2555715108865598
Ni 1.157771206109349 3.2207949253727395 7.031515483829066 0.6731819134171567 -0.955536863045148 1.1725274283347162
Ni 4.817266002264754 5.0889802713384915 7.508289232333517 -0.21995556145516312 0.2075250490012942 2.253816946998357
Ni 3.0132281349512278 8.992458233672018 7.5762177996019515 -0.0034028550339618813 -0.8439671837952563 0.22270767027900354
Ni 6.481197689913296 4.759052212183511 5.720846974758263 1.1178331221156297 0.3589717669517818 0.244054768496212
Ni 5.8919281318594035 1.448213094789608 2.7977687899998904 -1.4082775336199747 -1.289693627835779 0.49848548091010925
Ni 1.273487492373736 6.379360993792074 3.6837574053847644 0.8179962136527912 1.4230580343632588 -1.0867248307465993
Ni 5.334208201838286 0.5215291093032455 5.147638620106046 -0.776442815691037 1.7315667595684823 1.0429440861162231
Ni 0.6577961737445446 -0.06592758522351948 11.803554425131022 0.48680495924838746 2.1017639629224383 0.5758245211119051
Ni 2.9005067703630463 4.400092131029815 3.5654336654360312 0.10586568688657898 0.32087701696258936 1.1637561098999893
Ni 6.101422903109972 1.3333204119861777 12.595930212134931 -3.3074048859816716 -1.8192418915889634 1.6958065712497372
Ni 3.3073855983360287 3.6719143619814196 6.165252171334101 0.698439659542681 -0.6015666630730155 -0.3055833240283124
Ni 6.224242769225109 6.065334096911697 0.9113331400697622 0.5001860085409837 -0.377313245573447 -0.4656836038887399
Ni 6.268530173511996 6.055928171022364 3.3156497103363085 0.2932466568398305 0.9165555966859441 1.2736165197682583
Ni 0.9263620314061706 4.89344932240323 5.326439187827606 0.1935505890990731 -1.2850846683088577 0.28212046501968185
Ni 2.6898233895722328 6.637336059676218 9.193188179454568 1.1528165801693502 0.38744930556618434 -0.09432220502335369
Ni 2.4219838004170864 7.853236823694667 5.331795418062893 0.14409130602668088 0.8659192625863151 -1.0076559523378903
Ni 2.46810559423065 2.3735128649137494 9.21666649356997 -0.24544342131362246 0.15657118366124648 0.4471618909354686
Ni 3.1368996819180355 8.80140094899059 12.754156603853982 -1.2211976398469098 0.5575084964115365 1.0919482839290677
P 7.254168256281439 8.141161106340867 1.7872101511453473 -0.46861466149260583 -0.21905361846618407 0.2756009187336092
P 2.7269791366176563 4.465624760957285 8.525368377224973 -0.7255509139371762 -0.20909470748125922 -1.622763587320134
P 8.371395710199158 4.246330980347381 1.460539069313241 0.5271568807028727 0.09839586087209506 -0.01882201780250952
P 8.33647679528065 1.1483559210897785 3.7025102946429294 -0.30625875282878223 -0.34205082282672705 -0.4049032393765736
P 7.658014726057264 6.243503859255205 6.825948739539445 1.4791389365172267 -1.229176287177012 1.1743539400204936
P 0.8288267915423981 7.551957062198639 13.017240818935129 0.08377374008354604 -0.35720310508713315 -0.013896298366118002
P 4.815132120570458 7.562748139363218 8.716318967821689 0.008020813421947477 0.43060784323152934 -0.8433359779691605
P 8.58696455697428 5.696902575957002 4.108478479243741 -0.49929717817812724 0.6675092885124118 0.4234406360591288
Ni -0.43484016547245574 2.6025307818410828 9.267623214064558 1.2354518357730788 -0.2914836514021367 -0.35928955530251666
Ni 0.7534043686922836 2.4081135694041604 11.526894791639451 0.5660085634627477 -0.8470167692548574 -0.6905340315423592
Ni 4.277609193603252 0.6568396706342065 9.336045007496542 -0.1355434164566698 0.9722037821778676 -0.1036391115489054
Ni 0.35548410018325016 2.683637004484821 0.3537451737850034 0.07764063060261467 1.012478056316882 -0.43498360370172184
Ni 6.865951534003312 2.8182961703512075 4.437259109031524 -4.0925418870125965 -2.6572983663267395 1.8790560355331187
Ni 0.8450985753744316 0.4268727379007255 9.166093497415147 0.44158593950958785 0.40393419059508495 0.3794542031758497
Ni 8.582341146636638 3.590171718481488 3.7024691144698814 4.3227152695410265 1.3468029712542613 -2.073602155776242
Ni 6.3531367108648 3.6122311884527885 12.346037691124444 1.038792782952011 2.2295884134682957 0.8620528376523734
Ni 3.6657654134149604 6.850115885640375 2.769084927646033 -0.3888844953508141 -1.0436966480115315 2.8322771059608964
Ni 1.378244237129259 2.1070209905128956 2.719429126254547 -1.2667570736442635 0.2101624866241413 -0.6003731569855467
Ni 4.933656145906287 8.075787581627445 1.3061358822964706 1.7178825772131703 0.12509445320920393 -1.9123119693727713
Ni 1.5584074942134913 8.80386240024322 2.4831794093922013 0.7743972460159179 -0.9994783016231045 -0.1458576538984843
Ni 7.602683548089369 4.481217071934029 8.593255764320359 -0.7609845721544378 0.38701093247718504 -0.2843570676596845
Ni 2.8648672024162014 2.2182729716536893 12.695940006033666 -0.7202531558733466 -1.8056579822569419 0.2920629209443744
Ni 6.380558962462556 3.9574988620680824 2.433524543913739 -1.4182570134301897 0.5889656864795534 -0.565371186989065
Ni 6.638861597905036 2.059485968033373 9.504749881430218 0.4876343971282183 -2.3100899105584736 0.8700250572245727
Ni 7.394049816820709 2.251497883999093 1.4467586859506008 2.915696290918501 -0.8919974477306056 -2.1395118710951735
Ni 4.7892260480712805 2.5758572606623784 11.098639710202553 -1.795170966682689 -0.4517343407974994 -1.5376045368532874
Ni 8.242043171177798 6.398865421208361 9.936690588354898 0.11145886470364029 -0.14370358366995895 0.2951248476991498
Ni 4.406643522196515 5.795519731276303 5.386176644311616 -1.0007078031548313 1.4757131986651295 -1.313063670020287
Ni 6.50782441544081 8.45596481103101 3.872022861516156 -1.3843937850238415 -0.2523229220422751 -2.1233691998970396
Ni 2.4159845979344374 7.3346193398085076 0.8375991043146086 -0.6665952613385745 -0.4980993012152841 -0.6232922276755652
Ni 2.7423281102082093 1.0572915838726573 5.626617379694603 0.7316146036327529 1.0349230155839595 0.5724386353588077
Ni 3.6272993881361972 4.781355019541004 10.482392459237216 -0.11471645240898953 -1.3638373010287286 0.04640738361994588
P 5.375491325318731 2.527105551251897 0.6791948891210323 -0.8595048744195392 0.5860760236365842 -0.1662498444015911
P 1.4860894948633687 2.7634423080254575 4.714726435462647 0.6711155178064313 0.37536177827403094 1.831913573519361
P 2.8143746947814257 0.5362659957762238 10.90066228462304 -1.3571732587449916 1.6611576137173005 0.1204132456834507
P 4.447374456992908 1.5931017900062836 7.003681430500832 -1.9205636678586018 -0.05100528740327345 -0.06330904447129096
P 5.687880374407433 3.8478379330677734 9.474792241450949 -1.2045962838448028 0.6492583127220238 -0.5661975395451023
P 1.1378830543532974 7.853405288038954 8.158822721013264 -0.1954228664211215 -0.37296962389277055 -1.2086910227394667
P 7.6650059963451564 1.3036051734800769 7.328941155493027 1.840532939757256 0.8267230520028278 -0.627282579781881
P 4.441384613640498 7.963225322253312 4.991166129393623 0.7717762634533031 -0.4588470405828807 -0.918130911592864
Ni 9.571395311943004 7.166875648550289 5.870689457609988 -0.8761005739946911 0.2352767651932658 1.3905865440981149
Ni 3.5819637612626374 2.0553679507285905 3.4572467994482294 0.944202154758619 0.672188953376268 0.4446311540938149
Ni 7.75147500061535 9.041528153510596 5.651521089345275 0.9336865999392758 1.1876396013858064 0.16846253578219372
Ni 3.970526771359576 9.15191909466948 3.022690215621989 -0.38573206576476143 0.7214047529792865 1.3529381376177216
Ni 7.775078727075944 8.182219610695594 8.141768513893322 1.55035026655473 -0.7253454827945894 -0.07852971807578733
Ni 5.924451109436947 0.19030387469725923 7.792756252269745 -0.562783628767547 0.1561155841810666 -0.07002425170793747
Ni 0.9871449027377833 7.706663485035126 10.440243616209745 -0.2975537688556166 -2.239640141277343 -1.2805957792995686
Ni 8.313275511420295 0.5046106095717563 13.229738935079116 -0.5269511924499699 -1.1240868163348252 0.7643162076308321
Ni 4.016770233866236 4.095723856555201 12.833797186702427 0.1408537729259897 1.3986857761664813 1.2173859794103035
Ni 6.1477225203980606 2.8876847619367916 7.306407177618652 -0.3034719341122644 0.3512605143504531 -0.6173136414946271
Ni 0.9934529565182911 0.1589068004873644 4.52184412038478 -2.030092405419065 0.5793965547338795 -0.4758898549977804
Ni 6.3460424901442885 9.093274784597284 10.77669498914071 -0.47253687936514754 -0.28266888132398416 -0.0926018798981373
Ni 9.112461001585475 7.099162341277332 1.3124869880760737 0.14117181838704077 1.057701961151688 0.6156912753998557
Ni 7.881267418757902 7.671342127516378 12.04907716823332 1.287446483672815 0.29931523163141355 0.08466025645355743
Ni 0.017311583201491152 5.389483225024752 13.5243830732363 0.3152743260638312 -0.2101825412287993 -0.5569055727202151
Ni 4.089247338430407 8.094608792536349 10.718368889496608 0.8409767337083646 -0.9516874073920706 0.11054843707422897
Ni 2.9987776378635362 3.537086731770747 1.363716995173615 1.4561617588957632 -0.7768395369088235 -0.8703937534179012
Ni 1.0346144113056395 4.990662608186811 10.052342296620642 0.4043008299058844 -0.5109712720819458 0.4442583441354285
Ni 0.25280414642757115 5.305054511146475 7.7664149802144955 0.2105494376499148 1.2582469792907234 -0.2586388369579739
Ni 4.8898179798708306 6.2479868826392755 12.279725445648138 1.3742564394795236 0.8055924406717998 1.0401079022190085
Ni 1.2167992405213104 4.752706721882052 2.0378701208353602 -1.9205032469343117 0.055314456301588606 -0.8606037639106727
Ni -0.03549543734117714 0.6508114548478193 1.4632925254293023 -0.9332826796326378 -0.858548681153857 1.6816133104684912
Ni 8.719667664620896 7.815266832318525 3.692030876515282 -0.05020978808517159 0.5442295199144435 -0.8242146837586772
Ni 8.413839365829132 3.1353273480380275 6.0974602473671435 -0.19521332151347667 -0.3021537295214732 1.1932590044551128
P 5.256190492173135 8.694968919922438 12.82378385326064 0.30441295786929506 -0.8291260050173656 -0.3521552582505806
P 3.887071407026065 5.751082580905605 1.0362906315312905 0.7621621374023066 -1.401070474348574 -1.620049787933397
P 8.114768359069306 9.595261094050265 9.72904143758729 1.0655047450255584 0.44171809421207797 0.616615586986338
P 7.024916361098152 5.8107189587830455 12.455580695083754 0.3363154630048466 -1.644333085960794 -0.6196374045317974
P 7.824167365174998 2.0492657978133217 12.042283375593453 3.843824165823077 3.315077314925265 -2.183863400627355
P 1.7404519364755902 4.4050899065769835 12.330709307620417 -0.27504915999519725 -0.8162843731680071 -0.47275465180290843
P 4.929893775550554 4.0277765710262905 4.275114985394787 0.3940475276089923 -0.7029992538889054 -0.8616023803785161
P 2.792184196986791 0.9576542833573981 1.450963743166598 0.2230321434979578 0.13592625371738526 -0.4989853033646632
