# total energy = -340873.5536359347 ev
CRYSTAL
PRIMVEC
9.24909441338632 0.00000000000000 0.00000000000000
0.00000000000000 9.24909441338632 0.00000000000000
0.00000000000000 0.00000000000000 13.53698458678011
PRIMCOORD
 96 1
Ni 2.9078227216997146 3.156438373467546 12.696215868121032 -1.123148363680956 -0.16010182252232427 1.4759355990885805
Ni 8.734779807290813 1.2066275786450684 12.355543981902116 0.45182304385656386 -1.2012610488239828 0.4002976222837622
Ni 5.060586390284897 8.80837484974307 7.594668014406665 -2.484775030211611 -0.5465226868239943 1.6336275266178317
Ni 4.447824651249534 0.9707664277622019 3.3823641473738864 -1.1709891373133186 1.1556771895465967 0.3216627460886783
Ni 0.349310540190315 1.9264198356215527 8.561587743896164 1.209190073863072 -0.2825274706501134 0.0966559953628529
Ni 4.642388596583912 3.5215001210596695 9.373143039037982 -1.3065019576423693 0.500962481695692 -0.6915640154687702
Ni 7.027276782000093 1.0113052075872913 3.3261046821578084 -0.363387122410658 0.48839775765680404 0.8328425346370043
Ni 0.7633915620683138 5.660649123000422 10.942201922888167 -0.03903500241527471 -0.6889276062871877 -0.5786558199131131
Ni 0.3217926351627982 3.424181152015729 13.011721893964388 0.042385921165378614 -0.41617726962849616 0.21267548285398208
Ni 3.224409966653624 8.325516638575236 2.5224407141770135 -0.001623908756668171 0.09378227335948365 -0.05760453788734596
Ni 7.465757839254905 8.908820012622483 10.538108997823564 -1.0251857336915378 -0.5996175097664448 -0.8916413499427677
Ni 1.5220031922603772 0.8176143767442405 10.672599151498819 -0.30649375165772375 -1.5810667218019803 0.267906635413145
Ni 8.877502579702622 4.1395893383472 9.356546464427408 -0.7075130825988589 0.3023491333617309 -0.32011108533084226
Ni 5.837547298436119 3.12053338983054 2.186331406120933 0.47727465116044904 -0.4848100403055457 0.7062833239568159
Ni 7.9378408556939615 8.59949330660599 1.99081665390405 1.1973177479055184 0.1932312580864414 -0.6865539638486885
Ni 3.9027107871036764 1.7488927217810861 1.1965025952376933 -0.5182125270253914 -0.44724725156042333 -0.8234472094650334
Ni 0.5386524469462664 1.2219533277142387 1.6760135592189656 -0.12335278792774884 -0.6386972493767259 0.3047921955855848
Ni 8.353818866789876 6.654714019021671 9.451508764272301 0.01792136036511107 -0.5450124208270548 0.5641134033225641
Ni 8.76167617318891 7.447037672618815 11.742169952831519 1.1396340200408053 0.5687208201875883 1.4611949504442965
Ni 6.384621970549789 8.919031012605805 5.7580920299064795 0.903904740691153 0.9356897464122338 -1.5539022455720464
Ni 5.17007716727997 3.539489609254923 6.811512987877879 0.3050534196667714 0.3621205969934086 1.1118339671094013
Ni 2.0805004956959685 8.919447221844255 4.5091692684500595 0.08550203562856241 0.269965831935019 -0.20138576887277573
Ni 3.2208860617680752 3.3891548323265632 5.281373367460501 0.28297355704859656 0.37271405623853876 -0.18282728914429802
Ni 7.83231794010545 0.5490715515488133 7.79184760357735 0.42424899089303714 0.8153996565702086 0.07671349080265498
P 6.657442501807069 4.96693931163351 5.791961287912753 -0.08081594300680275 -1.1346777044767942 0.8566422081597634
P 3.4361124835179795 5.534879940234836 5.4904926123182065 -0.5259356067012619 2.374710988972968 -0.801056500474659
P 3.397044309668749 2.0835619458721273 10.950459514179027 -0.04511848960519326 0.1784276174147056 -1.1872225684530455
P 3.6740454314989113 8.472845459892563 0.4847699989364504 1.5086837400538793 -2.0578186676897396 1.8286562429243278
P 0.9274806669633385 8.37336220280868 2.7656872667688317 -0.5173694622988058 0.11556183112842033 -0.8187302636053383
P 5.629424181022439 8.575103445232783 3.41370285321038 1.3833815417092434 -1.6817061272926135 0.5512545450820249
P 1.3451327641072437 2.4228187206803136 5.430808207524389 -0.7191828056273033 -1.4635413391892858 0.5155522065844088
P 3.8479469004177638 5.383435272003941 12.595541327705762 1.1712333921136409 0.07095344839042621 1.0615329048620041
Ni 1.7378862996976145 5.318774854537091 13.021117123840346 0.4494203479523421 0.2894781909363337 0.9235821645154224
Ni 6.870615624647283 6.846586477947402 4.711371115764716 -1.1561500154179574 0.7567646205358193 -0.9379926835137974
Ni 7.5752763635325415 2.8314159546143705 7.010384236375511 -0.630264031007708 1.1784988154268026 0.5107588989608235
Ni 4.349395790903058 7.7012212790876955 4.985874057254756 -0.5923590284318185 -0.5627327209249535 -0.5396169608430965
Ni 2.980548349298318 7.181070720154687 8.794965512989608 -0.2860079729995461 1.9250710688106523 0.8780749241122425
Ni 4.855413733917122 6.360500332908028 0.8033994438870239 -2.0055975056014943 2.0159873334762506 -0.5721208470080728
Ni 3.1099339278913307 2.4421585766269853 7.532749953366495 -1.103239797682487 1.8235142937120725 0.5248629424623734
Ni 0.4158364999548416 6.956197493166917 0.6066203404946697 -0.9728028492144474 -0.11760328703848133 1.6525971257417988
Ni 7.5950971723769785 3.2908277120161533 11.561071763725147 1.2185095514917854 2.9425617478507773 -0.013911724985085718
Ni 7.01426330647787 7.748659883176877 7.918323417138883 0.7387995514169664 -1.7075593409102916 0.6845107081664147
Ni 5.9768201587158805 0.3416818873042247 1.2881823915553372 -1.0293668616524208 -0.04333465823189311 -1.2681040745904613
Ni 6.373356573829058 1.532852379742656 11.669394380124302 -1.6821344730792838 -2.3925642151043056 0.46032722467283305
Ni 5.650956072291617 2.5512146461952327 4.729591831314665 0.6395891650633759 -0.15736668297934833 0.14741651374517192
Ni 1.0675027038723115 5.970096067241357 7.995105697448252 -1.6799230672502616 -0.7721272190348186 0.6097296584997822
Ni 8.432500911045418 1.9506524623935662 5.0937369936727785 0.8091153662233935 -0.9032143994923477 -0.10124232918195467
Ni 8.665245117186998 8.622875016712726 4.411472936363258 0.35854162139289864 -0.11079809119118983 1.0397302071646157
Ni 6.749998187344297 2.627954380671337 9.307610431989225 0.32627119139496713 -0.5089532132106526 -1.0248795153050285
Ni 4.998534217379005 6.095874499101131 9.251824520395562 0.4581579849356561 0.19071054854711672 1.4446180199222216
Ni 0.389331370740888 4.1184089126571575 4.179341020256908 1.3690093321479713 -0.7873581770519601 -0.9081416615906359
Ni 3.505684169998546 0.30925363817240953 12.428657146547186 0.33895675728243563 3.414274588652733 -3.181337527336237
Ni 6.700580277098928 6.349688141802501 11.482326825629128 -0.40508810169387005 -0.8430714114538642 -0.15641897435409835
Ni 1.396354247719232 3.12388156192652 10.85825899385861 -1.1191898932538402 0.18972041671970552 -0.8630149444553267
Ni 3.329766398546755 5.268247052989188 7.568812171604693 -0.3889264043323431 -1.9386876311528223 0.5788360542447193
Ni 6.38583360188839 4.610044514209205 0.19379164596969772 0.47473697234025986 -0.5248367172101284 -0.7436764198932934
P 3.074380409833461 0.43264117918463973 7.913450069411336 -1.2094762376449235 -1.8161578533470013 -0.07226599655426263
P 5.758319557623499 2.5138575547707434 13.555800784470634 -0.597084458931946 -0.7086304840327537 0.6400481069776655
P 8.644499398923783 5.420551886979547 12.783515293431337 -0.9312252828829768 0.16341417472500888 -0.5760471786456725
P 5.34834420865546 8.25848845299631 9.858322772846952 0.569169991909865 -2.0239834643078494 0.9355179967210597
P 5.882053939667771 1.3904348274390455 7.074766256107308 0.5168660402998261 2.0728025426930814 -0.6462061561592612
P 1.1250043224378101 5.3798373743648895 2.2455015612779095 1.6338648394396182 0.7903439991531614 0.7597908089566527
P 8.818854073457835 7.632167541881646 6.634624986445789 0.5444051262603592 0.843465047347857 0.08828114103559634
P 6.311017679003346 5.742466610185624 2.2250203671084643 0.3999816337052402 -0.870741623675623 0.8654140408151225
Ni 2.993173362864653 4.80068684360796 10.760616306518097 0.5043550523170088 0.597236668239094 -1.2609443236172282
Ni 5.256028999567115 6.474079209534105 7.0098561130973875 -0.5509200445607415 -0.22852736228457415 -2.454717291594282
Ni 4.80298986806072 1.0273893823798603 9.742540761985342 -0.6162471479033257 0.4805309533142176 -0.6241221797760284
Ni 0.6400484167081851 8.39132394372137 8.633821319683976 0.31546972990408895 0.3608131910358947 -0.2463587340390402
Ni 2.0990356804483024 2.007608384401985 3.38949797372093 0.3201275403910745 0.10632591435244915 0.1984706521085098
Ni 1.4584064206251237 6.520944369783645 4.3538187077436605 -0.2864327192417906 -0.39566655126965405 -0.3625558847586143
Ni 8.569526241437545 4.726583100975377 1.3652994890743038 -0.6272195877544295 -0.6391299660387703 0.26442150507802203
Ni 7.04433211168238 5.271456488672351 7.9633341340037695 0.8485864277348225 -0.9495881016608808 -0.1407954088842285
Ni 7.806263241778441 2.360674056832543 0.8743658937711093 -0.08240308498826454 -0.20410702445868073 -0.03567431347315792
Ni 3.8576584493149446 0.8298796005466705 5.743295329024851 0.10154546224467027 0.2852404987059023 0.8043441700869954
Ni 2.1563800644126085 7.289692082296108 6.474820986887967 0.6562121183320376 0.6869380866609847 -0.3899677011126639
Ni 7.058584965825767 6.889557769543881 0.5508473776328692 1.4813035482687134 -0.8165165437834712 -0.48446834069541084
Ni 0.5397937851690398 3.6994156968560232 7.007988720980873 0.4861328728820273 0.8293417205725975 -1.1095906796011794
Ni 3.971403809636403 4.185020888997631 1.10020102655441 -0.7498555521208119 0.4106311429992864 0.2975236869486295
Ni 5.1471301646000605 4.951243598796827 4.156706636960545 -1.1640564147492276 0.42232066352207276 0.4456644804543357
Ni 5.710150275093481 8.371244160239675 12.417814433430838 -2.253951158583376 -0.1067131224885388 -0.45604299547518234
Ni 8.727852235744157 5.692558497948303 5.569724052768502 0.21529080898964215 0.4654671170025597 1.4807294209327984
Ni 4.94977299282097 3.4962223466444353 11.760809652348176 1.550909995712942 1.126865407521227 -0.14653976756717343
Ni 3.570844038551536 7.255350195576839 11.307185978089114 0.6575236380546096 -0.24386604952417354 -0.5300568279584871
Ni 8.544442698000255 6.578575475667773 2.9448218731791367 0.5208921307400836 -0.44734032549486186 0.34281392624499674
Ni 7.3187897326109 4.480936408441827 3.6764686941761124 1.1110528659690027 -0.475375120144891 0.1672677441431442
Ni 3.38096013487618 6.041628561689735 3.0494494764502695 -0.6723198225271777 -0.97699529002924 -0.6428225843990091
Ni 1.0146718778716473 0.2685132280940263 6.455747504853904 -0.2847702439377031 1.0165260011340107 0.4196647139564644
Ni 1.8133126627990528 8.122831988543975 12.77788444488981 -1.0588972670113699 0.2460645998373891 -0.5417484053638025
P 3.89163962136089 3.3062367029330137 3.2300602382929453 0.3788044854069928 -0.5167765659098132 -1.5022667807839418
P 6.524403531009878 4.67661024507874 10.051941460755339 0.0902449496301865 -0.05786421930663583 0.3309392862945978
P 8.399435399324064 2.6237552919100797 3.050518671738378 0.37521316851130865 0.3856240794319875 -1.5711903432285326
P 1.8305344761767202 3.963717812366348 8.829958535939697 0.20217381199170986 -0.04056275191371078 -0.03832743482528883
P 1.5405291279185231 1.5339992674219425 13.268166903962184 0.19187371561728245 -0.7120227975437544 0.33237370474827915
P 7.537604802905667 8.687646423309829 13.198708981340129 2.112186700917659 2.4834403705605874 0.4511717834258101
P 8.326672775348708 1.57098639507892 10.20179620969535 1.3572650471278496 0.16858851983709675 0.356097016507148
P 1.4647605483321366 7.732076257298168 10.549371619816037 0.2714611855336228 0.06325787951838138 0.02211740072432965
