# total energy = -381177.4047086681 ev
CRYSTAL
PRIMVEC
9.14751798201804 0.00000000000000 0.00000000000000

0.00000000000000 9.14751798201804 0.00000000000000

0.00000000000000 0.00000000000000 13.38831721197349

PRIMCOORD
 96 1
Ni 5.819669306102218 3.2818001812859063 5.362181801707944 -0.5672858875132746 1.7461989076593603 -0.37051396326342645
Ni 2.2561896001640696 2.405367325232389 0.49956883187966616 -0.9144809735451025 -1.4491454754789301 0.03353566986360031
Ni 4.852520513115752 2.958590924489308 7.459328078539887 0.21219365812155713 0.3942599007301146 0.46218844625128785
Ni 1.3309547350818867 1.8190937431037615 9.58875320246826 -0.23489804169760833 0.7222041089521304 -1.0260575947735298
Ni 6.419380592310154 3.3293855704081405 9.37512938292782 -0.25777571762673024 -0.4325091740193003 -0.7259244952265111
Ni 1.7592689747724632 8.817868983936252 8.554184456877486 1.7937864276303366 1.893420274674591 0.16205226138047574
Ni 3.847290602306168 2.902077557707846 9.658385939699375 0.15104176920258502 -0.16076979512362635 0.6324001035141044
Ni 3.656345309623062 7.552538543656924 9.494833804698976 -0.46574248215113334 -2.198015266647705 1.144060431243275
Ni 0.8322549174211005 4.677235771408667 9.955579655038143 -1.2151727738090685 -0.009317163635867824 0.8169230351932706
Ni 1.8804095568842951 7.006980564562334 0.7037085046607946 0.158425720371482 0.06951414484073834 -1.2788255747730233
Ni 2.762440694011016 7.026062287305314 5.309418002592997 0.5829379922282347 1.249320880445687 -0.8513933010559982
Ni 7.134515261821503 2.82043595872362 3.3413093602429798 0.14306774985817297 -1.8400624278787405 0.7844942252406037
Ni 7.457294585267708 0.42744339596807807 12.541144853945621 0.0009484799561983666 0.2757577560264477 0.2909789438515763
Ni 0.10695186679704954 5.351599952777418 7.519963316974266 -0.4559275529432406 -2.1262012700291963 0.42201675912840864
Ni 5.9110347168198025 4.947764471504969 2.618982912006544 -0.4542136555759274 -0.4621799616108556 1.138090329702769
Ni 7.563643630622399 4.49242846336628 10.907595708842582 0.04410136119458856 -0.5932892535555718 1.1473090200875595
Ni 3.761797898204592 6.733204495542851 12.645908634414713 1.1671543369482609 0.3026890331996529 -0.2524283372718878
Ni 3.6747775585814058 8.326381984292167 7.313689528221931 -0.11208904208847148 -0.5903031743440543 -1.1680758203212658
Ni 2.0084016300481364 2.93166063122213 11.450934500047694 -0.3289981034078269 -0.14420237768324842 0.5285807576335929
Ni 1.021539935570242 4.805191254500135 1.4903603001305157 -1.3882149585421446 -0.07961729471301127 -0.8181525367249974
Ni 8.696024042931224 0.19991077516651706 3.0225064629120055 -0.6954021582679378 1.1869821703074654 0.7004458913394325
Ni 7.3719848315280005 8.260373493729684 1.4420559160861346 -2.715061284168821 2.065269210430514 -1.620380174689622
Ni 2.10123979117877 6.464230873522441 2.8886499158984402 1.0105075628540727 0.06170801853275824 1.4181652250473318
Ni 6.511871147753236 7.293800994383107 12.694173684131291 -0.09854986995145609 0.9548488358391877 0.78053164104843
P 1.2032736775332233 5.4183493923054735 12.083585998910218 0.09587746532561552 -0.18702615771699405 -0.07266451754426195
Ni 4.5349735700190115 0.9478383822911489 5.94145387348783 0.8782014223877779 1.4931280517074672 -1.0297101039244523
P 7.763672408772321 6.294562707924746 0.5746589784053481 0.8399809454539986 -1.860129116721629 1.2563186519197589
Ni 0.12508499191373643 0.9661242709599968 7.678641654334465 -0.684453372565918 0.33933110990271886 -0.7409672484922465
P 8.75663549781856 3.2519335347107243 8.610441693152332 -0.2442118628993665 -0.5888533292714052 -0.19738538946413103
P 2.643275975807374 6.159956979179325 7.912361656374449 -0.23100641995268603 0.5605683662837829 0.3960697002453437
P 7.97344329369179 8.217105733147568 8.081000726186627 0.41949270715497433 0.026676995070554058 -0.13216987199874655
Ni 1.0820690627947371 2.9542275583587223 6.564773989143204 -1.2141330196906446 -0.5840597645375039 0.9318490325099049
Ni 4.208022978322184 2.3750890403430014 12.237390538630216 -0.6716132833784562 0.7187999683665879 0.12572823013846088
Ni -0.052602802796503006 -0.1284037114780476 10.142747937500458 0.41033212370162875 -0.20742066221294603 1.0715512083299545
Ni 5.297025859831772 0.7417530324115391 0.3354175344441446 -0.07093570777861331 -1.1198342117060585 -0.5481111143570367
Ni 2.949544029094865 9.145121443730165 12.94816275676279 -0.14242677384006439 0.5522405631443779 -0.35581548071098723
Ni 4.624719870034053 6.724157600148409 3.3040094404650437 -0.32692887958362404 0.9327512326092 0.4429062009829082
Ni 0.4121441719567484 2.538811319179939 2.241900262150259 -0.17051581876679664 0.1380067903954978 0.13145459109927685
Ni 3.1615469084291408 5.2614968995567315 10.840788639950537 0.23278125246492168 -0.5960380199453025 -0.3942874115339403
Ni 6.380274952460566 0.18928318864552285 6.9346666897780205 0.8285495636886054 -0.017324864431692746 -0.031595772528410095
Ni 3.6203040883347875 9.04173619423776 4.087225428138857 -0.2818037051102114 -0.8971070010430291 -0.45907715431581586
Ni 7.314904318624745 2.53378018422853 6.788961362577983 1.5144985469634433 -1.7810460972455326 1.9973265238419537
Ni 8.311819135487362 9.032524643517636 5.689900784924625 0.28302986420782866 -0.34536394636036005 -0.821017002756986
Ni 5.20052869146375 7.787529135960092 5.480453722145664 0.6656994889971826 -0.9305351987944877 -0.5878719391947423
Ni 8.234229887018545 1.9422010416056896 10.928870091672566 0.2850949742669735 1.2770054908451491 -0.45106122598987475
Ni 6.826390262361038 8.23590388282965 10.418145861477912 0.5431290877614129 0.26181903445816845 -0.46061595955784546
Ni 3.359855953177491 0.9385993890167436 1.9402215186902625 -0.02731822819897876 0.18236988989190528 -0.22500263696076736
Ni 5.708783091773166 1.3870564635491422 10.896898601184077 0.8511942976713147 -0.38630516465941206 -0.19541078223626346
Ni 9.12174953500135 7.9196558873021825 12.983307521277903 0.036015498862660554 0.2822665036792429 0.29648007617546357
Ni 5.622101210319439 6.230685589078042 10.971806712099697 -0.7321897594099326 -1.2171666643106456 -1.1873444387428906
Ni 7.692038194582352 6.641070693305415 6.142185181027331 -0.12674124478400753 0.6879850398682602 -0.04410727473185952
Ni -0.08888277430701697 7.189583320744196 2.1614496700218035 2.038619211943154 -1.793477638140666 -0.3979756590188049
Ni 9.02866439088219 3.2939572328321285 12.81065177627088 2.49243974584572 0.7280114596625268 0.5434057384615674
Ni 3.262114722348757 2.982429356640892 5.619103568640208 0.767833219645155 0.511259492746326 1.9138507746148008
Ni 7.576633106315127 6.254889921953365 9.047396678434 -0.42522832408717093 -0.4183241407681698 0.4141838933475512
Ni 0.3504011690812495 7.02441573404849 4.47750886135583 0.381852013984065 0.6270498949457847 0.37477402409136096
P 3.333346445742613 1.4325928086184392 7.7803529080157645 -0.52482000503958 -0.30505521943898434 0.9198679488886286
Ni 6.912285457258727 2.858306683630589 12.87459384249605 -2.660876827706617 -0.3288993730464336 -1.103089645257868
P 7.039060910516136 1.6305725427154247 1.3173130413490939 0.28293447628054497 -0.14230953153590975 0.42467887934160414
Ni 8.157235227225803 4.158397692665106 5.413659459778951 0.5482604954507074 0.3332977592244453 0.2608438150290927
P 5.350721791040445 4.0594032518575665 11.345246820251162 -0.1559507764684282 -0.10050827922940755 -0.4394395825905464
P 1.5022786014544989 9.143557218136182 3.7717568011529536 -0.20371518833690075 -0.7105747522433181 0.23953271225614228
P 6.563673542716559 0.7732534257182146 4.521087637553124 0.22929072281316 0.09847042286377235 0.9619949599656659
Ni 3.299765906821482 0.6196574494107489 10.4479347541493 0.21902636477267443 -0.21584385327963473 0.5548718301196379
Ni 7.17027291004888 7.476778798806801 3.719957150445057 -0.6402108578077749 -0.49493710143721864 0.8483560568915712
Ni 2.211430794132718 0.7111838564467788 5.855394023264458 -1.6954844120236283 -0.5706931134226106 1.166932450745442
Ni 8.405819031415868 5.029122497428297 3.323997682251086 0.42824551364693986 1.1456185197590143 -0.6917802452446344
Ni 2.933572462503665 3.8749069594303562 2.440650217270715 0.054805377875654 -0.6016265697766736 0.10715946599733803
Ni 4.738579027743482 2.4243026876858735 3.640805505885874 -0.8594547379078941 -0.7150916662770652 -1.2640530444495393
Ni 4.162623846024289 7.921714078873213 1.2837352466833911 -0.031244559836578447 -0.6142452869819486 0.06701991766397489
Ni 2.1790668751180187 3.9737184498760265 8.293661312071825 1.590815573658628 0.5563443009001063 -0.057185448072056354
Ni 1.8907188097756364 7.489356636185323 11.42755801755983 -0.7270794347665607 -0.026312669752599847 -0.7881547048113264
Ni 7.242373647661615 1.1199306401836122 8.96345173439384 0.3881774419814605 -0.07238940950600435 -0.2086995289253696
Ni 5.515075248625831 0.032488325260770376 2.779334330426038 1.0117409210405413 0.2702195998170378 -0.13180631801174075
Ni 0.9476554319292794 7.354805792548463 6.777072333311899 0.1049352046525096 1.096839550583098 -0.30120165002084903
Ni 2.8829775399286786 4.36188423265436 13.232665205498675 0.34255450193602294 1.843074475232187 -0.6750583045042632
Ni 5.821892152998932 7.1951816018174 7.8134083793983296 -0.0880530841851903 -0.6986314638385129 0.05541550065582715
Ni 4.875041702661877 5.233386576455496 8.888811645758356 -0.5330539629135981 -0.5274240183213303 0.4607599413348774
Ni 1.8976709235266742 5.014724303949174 5.993842624360945 -0.6519785398666643 -0.039667750903267164 -0.6300863677792633
Ni 2.3645510994993235 2.06101815412178 3.8564509269249703 -0.8029827709630944 -0.23829369764271863 -1.2405608748648698
Ni 5.187886821458573 0.0018971952525858138 8.940718322427944 -0.7355980137605331 1.5900907796774615 0.22037645104266565
Ni 7.598559707185175 3.9420405947183377 1.4472105425318054 0.8371997831644357 0.9569453133569005 -2.2180269338829413
Ni 4.834408427290681 2.953550642019805 1.0410323818756186 -0.0670559131082329 -0.021819152757620485 1.4359333476640304
Ni 4.324315375844476 5.52827511723471 6.6042427854611025 0.6033715774922382 -0.02887965914882768 0.012260305424591788
Ni 0.6832583132110317 7.046296597328071 9.114632765924627 0.12930232064296443 -1.7923381252195842 1.1345206100736396
Ni 8.480911007445169 6.509053712180447 11.238822765248107 0.807976367522944 0.5026010457403796 0.31309043103863504
Ni 3.6272836446401056 4.9259476408520415 4.4919409006518976 1.0272444159927794 -0.17527158828422718 -1.6237899717021196
Ni 0.9765615891046467 0.42548125333702863 1.0462729949913678 0.054375232316770876 -0.4630919319021637 -0.10788554553008516
P 5.012611227269582 8.451181573641389 11.57995749850067 -1.8063287830717214 0.8380798717765436 0.041980201086527696
Ni 6.824414398452848 4.7482936919587475 7.371620760307881 -1.1768733640082378 0.25830459354700674 -0.0290884327255241
P 0.6889059908819404 0.9868342519236143 12.167999295876767 0.34761109052332395 0.11056617768604184 0.30381183395018646
Ni 5.486068468751436 5.018584556584619 0.19098828601814577 0.48323446828830974 0.6010282740710422 -0.7128756324623529
P 0.9223899869551134 3.8816303852290575 4.114176760697649 0.7837534904198372 -0.04504727004762564 0.03845676131430151
P 3.681281443945863 5.588356016072625 1.4548551234025189 1.0904074218045092 1.7396181691180492 0.3206042229171769
P 6.251569372885435 5.508708576032776 4.937210065128722 -0.48181599067422826 0.11669131674717322 -0.6569492536083782
Ni 0.1729704196294366 1.89027972890715 4.828683910467786 -1.0981536414088313 -0.35465925561935696 -0.922465791522792
