# total energy = -340858.6914289637 ev
CRYSTAL
PRIMVEC
9.33249400820705 0.00000000000000 0.00000000000000
0.00000000000000 9.33249400820705 0.00000000000000
0.00000000000000 0.00000000000000 13.65904832396066
PRIMCOORD
 96 1
Ni 7.408479121528569 9.062570376408 13.190939130440613 1.5024758114709542 -0.5337427614505066 -3.5195350378551447
Ni 4.172110153895057 3.895289713801208 4.04369316853401 0.36244789842584035 -0.1882813702803338 0.5695497438467868
Ni 0.19794686617930599 4.521574728089455 0.31166237357933074 1.6766240847840157 1.3971947934432518 -0.5113032015000678
Ni 8.504104596768867 7.234092136713195 3.4176302676054227 0.15361595768766448 1.4243443572748502 1.3283331945848478
Ni 9.176016174728439 2.3757170289275997 2.5478222189347033 -0.8370470596366553 -1.729590352568402 0.6820385924768383
Ni 0.7872304078465535 5.268678211039794 3.7416777941093216 1.1128477530858962 1.7205878919594755 0.4194857651764389
Ni 3.4409279058850486 1.4175685243238896 3.088856766087582 0.9228532567691977 2.391903441591855 0.7822257409214013
Ni 6.146184634096375 6.156581032527517 7.003486207419182 0.2417477176295901 -0.26954802767131 0.39992841186980155
Ni 9.059136018577966 3.416448773851937 5.580117538010055 -1.5494948605329701 0.19119905814776103 -1.176729896451838
Ni 5.974905369817418 4.360607869794711 13.397149920148443 -0.9301760156828561 0.26123565115087266 -0.44639544508308926
Ni 5.1745786729956205 0.3183257743691294 11.522144531101338 0.3964304260188721 0.11259992028661898 0.8552075325957659
Ni 5.685980684871512 3.7787641924266615 8.887409727831457 2.5173997582251677 1.6603541439793985 -0.5168614123141356
Ni 1.493833666136543 2.566734518235161 6.700896884607138 1.8526490062944996 -0.30635208387353696 0.9185903677277857
Ni 4.305900789360818 6.485010165012943 4.878192659014078 2.2224533450854116 -0.4924392747160294 -0.7882151257356168
Ni 7.671431475384826 3.7423394679412496 1.1442524357658526 -1.6451944055198247 -1.6692912985680284 1.4089095107770184
Ni 9.741350670027645 1.0810387869567473 5.356956139262293 -0.9897932131248567 -0.8237362014603621 -1.075278793693187
Ni 7.598460703990658 0.1591890181680541 3.6604337666925253 -0.6527100187160502 1.5785982056568295 -0.6928583088001616
Ni 8.408082564939402 7.741331856218988 8.187178696515241 0.5820661311462426 -0.8872699603479494 -0.0334636789750843
Ni 8.501967455619198 0.5607587734403293 9.14926738012939 0.6890358497302779 0.8974692694784544 0.5009876785066727
Ni 5.073629084279581 2.253218711326903 7.1548555287780315 -1.8296705431214553 -1.558922067384141 -0.7761391684076892
Ni 0.29993142849140786 4.966884016725356 9.160659555681361 0.12683457582876223 1.419031686812685 0.12356876059329687
Ni 4.097655515938455 2.9831877351034737 12.976819985229593 -0.35757591504551967 -0.27101998423114615 -1.3044926405218242
Ni 4.205632472714323 5.859369092817828 11.553806883845805 1.354228831404687 0.22320157919628658 2.7043829785193685
Ni 0.7425716238137474 2.664632381379402 11.203561179894955 -1.252809096104604 0.09990972641346019 -0.8232065542091371
P 0.6950589630841341 7.270386206281159 10.743729597184817 -2.950406954926809 2.6034072727352386 -2.7075315514506793
P 7.247512263233825 2.5184108637679654 3.6368449545968744 0.5803833441271811 0.9090068378044087 -0.005129865027397616
P 3.478313877263107 1.9851801481843157 5.282213127237895 0.0877610068660682 0.3975915362065088 0.4331915447983056
P 7.833042275772702 3.571778805708252 12.632421088834498 0.463674286768195 0.22771720767845297 -1.1602079875374147
P 6.323203382248897 8.389744214026301 4.967317977701162 0.19985493405054613 -1.989156072216019 -0.46937647935929483
P 9.9040160422492 2.5285366198701107 8.676569087798951 -1.205216433927305 2.3421371688020054 1.1749684336760409
P 6.56811602500336 8.77462560334295 8.405969688274402 -1.7859841579770983 0.45750003963668306 0.5501487136123558
P 7.1721897033256115 1.9924408285967294 7.021488588544562 0.9771624117347236 1.662954300606407 0.8652985982831808
Ni 3.7330909662848204 0.9882084681106306 0.7069905567952791 -0.5751755746739966 0.3456318553097661 -0.7447745380534786
Ni 2.184783532066968 4.214125042348381 8.305630444672722 1.168586698519413 -0.4890317916963771 -0.943210223158995
Ni 3.4820748723867605 8.20384093148738 12.671444912927697 -0.46599213626809427 0.5043301126163443 2.074074210316654
Ni 3.207503563371822 7.426388177712917 6.624324703738483 -0.5841538669132069 -2.8676840247052806 0.8329860021934042
Ni 8.095817312240994 5.274324369972327 2.8614341505322254 -1.5562751166795972 -4.2334573664144575 -1.7224069474460852
Ni 6.984531911895259 6.644950448956318 -0.2756025496133601 -0.5136938132194313 -0.30730493470510944 -0.3349152402232103
Ni 1.4438394952248463 7.178927764068237 1.9310890123612443 -1.1199005461676195 0.35694136678531435 0.09367994345366447
Ni 6.511654435678035 3.5832951034317975 5.490049637418532 0.28306200299734474 1.6227383905091537 0.4684339129403675
Ni 6.122050804345087 7.616071120363697 2.4979941664180463 0.66795768890374 -1.8405522230309659 2.5027110458647415
Ni 1.115223712857353 5.410112159176206 6.237718669511534 -0.22940230869035974 0.2044973179185639 0.37580220824555927
Ni 0.4918140400023509 0.25498707013903904 11.60159951939852 -2.769544502818366 -1.8413495221212806 -3.200446737361862
Ni 0.31515925911985954 7.154112662247403 13.204243534034362 0.000356354898154225 0.9671968158815795 0.4436448789211456
Ni 8.99183940359864 5.517025211624293 11.59949597522762 0.8177164776288433 0.10271685684495213 0.9482297878607734
Ni 3.3092930765571635 7.8972311702156075 10.537559870451041 -1.162039898539831 -0.26203500712371647 -2.2859894179658435
Ni 6.484347557931605 5.545144016357715 11.3099376139321 0.7944209974360125 -1.8569347781540473 0.18045390381611504
Ni 7.69519200537198 9.256518268864019 6.466795003022007 -1.3218781829881237 1.6390091026447193 0.6366444806127551
Ni 2.664483061473748 1.330888319091887 11.61715772031823 1.5824893131811197 0.07799852816266567 0.3051621773304938
Ni 8.108789479044663 4.21137195658789 7.539288958377718 -1.011198161163194 -0.4080644107133746 1.1760030455881425
Ni 4.4867365276016145 6.364079706421611 0.437574517523036 1.1957935979515082 -0.9568653520485844 0.4396995211201524
Ni 6.184914484625317 1.4049696572843544 5.148040792763308 -0.9039839306685205 -1.2538290527286857 -0.25414377730109783
Ni 4.335615450585914 4.3649008170822565 6.598563287015569 -0.7827103938673036 1.23020781376532 -0.06800696416759254
Ni 4.4337932885532565 -0.05056718604964294 4.523877054384753 -0.4486490170039564 -0.7254547546789442 -0.5189144381884224
Ni 6.123739985777795 1.7285738903183439 13.551579366323782 0.02325511387319866 0.938891541178983 -0.6834642691797713
Ni 1.7202306405899404 3.325503618814699 4.441567256141354 1.6293404692067035 -1.3902469013705088 -0.2761318515364148
P 1.4646789545576482 0.6188003540173529 13.237625865442078 2.779168913282007 0.1276133629763157 3.9697691399580335
P 7.0369618637679325 0.35007305280993767 1.4086307947211023 -1.7520893050018664 2.124930116626256 1.772256781088677
P 1.345325687469784 3.720968056444556 2.3256715292983343 1.5837820638506142 1.058058058939526 -1.166360380292056
P 2.282784052646346 6.697473725770025 4.8345109871138945 -1.8621623451015734 -0.9346150252908162 -1.2579813843341625
P 0.2877721219241408 9.01769974475905 3.5836562709535977 2.384081631554591 0.45281703233871695 0.6612941608406353
P 0.6370229820035725 0.4376557102217352 7.439237155594421 0.5534374116659565 -1.1721319926685103 -0.3832039000262691
P 2.4253005700987487 6.3524420862747215 0.1588465156344608 -0.8693372871289287 0.17263029400663818 0.3399790278993629
P 7.412016136793743 6.024050283765709 9.021023045909256 -0.13378503900466637 -1.8058443872361352 0.4848542632799198
Ni 5.586962922434869 2.6620379480186678 11.131605783859232 -0.0031873965890461234 1.7254578184572673 1.5219627165509724
Ni 6.645519731096623 5.710049187164077 4.493840422113092 -2.646076529468991 1.498272572022884 -0.8126339208996134
Ni 9.154112811067854 1.9030262025924425 13.627974229804474 -2.1696171751209863 -0.12714825041443908 0.021109785395421708
Ni 3.836560328408767 4.669998714309284 9.829351423175275 -0.44002142323594534 -0.715929074576696 0.524823861694322
Ni 2.163048153300244 8.892271024009899 4.6847253900043855 -0.13723108857173785 -0.6000610250617665 0.07414264475168521
Ni 1.3198106485911991 6.959175525416431 8.376479940157196 1.2794976611393838 0.3080119880744631 0.6493436733469784
Ni 6.2569706715973545 1.517248893841872 9.385473739134829 0.8839324113342841 -0.8817199770639977 -1.6000018681435864
Ni 3.313306049021608 5.961261263438307 2.5517288009663694 0.5557732588879848 -0.3579883199925899 0.5296372239225653
Ni 2.4153427988904634 4.047764002461895 11.771886739554288 0.4712348727242723 -0.14987577391894188 0.2901001407910488
Ni 1.7734071919908827 0.4895873069092893 2.1178630166000083 -1.8278939108370071 -1.0375542825592194 -1.506359719906393
Ni 1.885443783701713 2.8262245167790714 0.3023700092006157 1.4802213709481282 -0.37950433968749475 0.8159755836783367
Ni 2.1018269919822057 6.339292602083089 11.64493962201452 0.13720306354727985 -2.4082307179969686 2.4755059462048594
Ni 4.410088753530723 0.012360888439899614 9.362786445969562 0.496019792978436 1.04960015798016 -2.376552155946765
Ni 5.071921237858666 8.724995399701283 6.6868141510051675 1.7666070390020674 0.1644395306657297 1.6858607728909354
Ni 2.8702365589705146 0.05857073299268402 7.187282212789564 -1.358657299489686 3.5555237972449283 0.7609935710155024
Ni 8.78018776982855 8.747832012772204 1.6089817113814335 2.3922546542836867 -0.3027404552628786 -1.397035385047252
Ni 5.382441314159745 8.595824348816684 0.7166720861781043 -0.9426792903561894 0.4882828293454945 -3.4905473923735433
Ni 5.405240597254252 6.787821601184648 9.738327875187567 -0.10626189388373312 1.0917487663237522 -2.112158418782885
Ni 5.690282964653162 1.8707171080066118 2.2577589697081875 0.6116857537848884 -0.5025370252716636 0.7006574931296062
Ni 8.098962362753827 3.9983297811964 10.33793315533313 -2.7710478268367695 -2.940216387547052 -0.2440678811223345
Ni -0.22304194282323958 7.803122299677331 5.742960227619574 2.2802057214045313 -2.1028906203277136 -0.4773602688957198
Ni 1.8913419199750365 1.0382306365046374 9.360764094497364 0.8303812175807055 -0.4452381915501945 -0.004811819566346552
Ni 7.627148790864385 7.522288887119037 10.954993932449618 1.1706428097174937 1.3493491347148825 -0.6127442769563898
Ni 4.266256354409747 3.4969881979639297 1.4707656072118591 -0.6999337275897043 0.78893349195888 0.6659172614349435
P 8.351919615425384 6.541434424361855 1.2256737805706124 1.5877706161847172 0.13725499983113781 0.9588651560874326
P 5.560915931392392 7.603509583300576 12.077030366002422 -0.35950064287205824 -0.22411946302486563 -0.10199257708441789
P 3.6056930892798604 6.229869108721199 8.418836397894703 -0.5405122189638563 0.4712261309735239 -0.5788586799525386
P 8.177831270421317 5.528186874571911 5.773830251614666 1.8360468789614444 0.15096874987280454 0.8827854422140345
P 5.45884644338395 4.969543777544812 2.5863542205886536 0.07131931637027716 0.7485496888251947 -0.2845355022190777
P 4.151513339408942 8.680684717698533 2.376483226693485 -2.0169227008063264 0.2983253569143185 0.7246062906357198
P 7.413565330814901 0.949301300193725 11.214051836516541 -0.022238756793542345 -0.0466431537798358 0.18326000580634247
P 3.9310424987111783 2.6556638545460736 8.959489246038755 -1.24695906508173 -1.4429496310808634 0.5582939684273095
