# total energy = -340869.23130706715 ev
CRYSTAL
PRIMVEC
9.17710261232147 0.00000000000000 0.00000000000000

0.00000000000000 9.17710261232147 0.00000000000000

0.00000000000000 0.00000000000000 13.43161730888050

PRIMCOORD
 96 1
Ni 2.463510653716777 8.239469033105525 12.037792042745211 0.19794871816676876 1.1299736141329055 0.2573131761680149
Ni 0.9318246644778336 4.225211547626607 4.507100025895171 -0.45029580857875995 0.25395428699811107 1.6211121677596405
Ni 7.1298012933956025 0.25099284396976795 5.572952605979308 -0.39038473404542445 1.9032871401663414 -0.9259866601918569
Ni 9.225833219545498 3.0476883097864356 0.6142684584525729 -0.9553489154040579 2.5581869674448585 -1.2079921969002292
Ni 8.532585696654364 0.8046006528901609 0.6341634996206232 -1.8899888803955387 -1.333773905984445 0.019038247578373666
Ni 2.8821792607224626 6.117713687796975 7.4028228549352715 -0.3394031007912348 0.47757058513431305 0.211181671917275
Ni 3.3914075181946455 2.049219524748437 8.852980380576797 -0.7387278176387664 -0.808456392483156 0.6669950678801545
Ni 4.055857292487901 4.299335006971753 8.581124311093193 -0.2511906082100448 0.18619106341020839 1.3428231606709067
Ni 7.5049337247007335 6.86023307564095 8.408998570907782 -0.06325787951838138 0.29080488016755723 0.2372770834527462
Ni 1.5799300186777743 1.4852865574636485 13.391699196471691 0.9141950668735676 -0.754160864364385 -0.34431570760150376
Ni 5.432698026120721 8.538064427028148 1.8941934802170826 -0.5010007911327952 -1.1236430439291873 -0.6590434171332457
Ni 3.1902913102524786 4.579493601361826 3.3686896002041897 0.3394622361639444 0.42203449974022156 1.0027050360905183
Ni 7.431838100869597 7.2215447901237715 3.774055996695972 -1.015945188929876 -0.20506218928309847 -0.6246546552407307
Ni 2.3771357621287477 5.044983786871775 9.991888205239736 0.2092129782266784 0.2538627557255692 -0.948297150763599
Ni 4.460081139680629 0.9072759144780483 11.275520776536924 -2.739886827852933 0.8007068304447242 -0.20926774272401383
Ni 4.727483561173617 6.608064644802034 9.308016928283097 -0.9504309092771502 -1.1928247451311715 0.040165773585608244
Ni 3.1870609700655907 8.7025181092697 7.859981148809779 1.4534423030820711 0.336104375435305 1.2121039050757576
Ni 4.608933747155962 7.317243618160318 11.503307480647079 0.0008767461779984902 0.3051189827973842 0.08889537758082755
Ni 5.508500895278938 5.739773063033925 7.2530864924599445 0.43060784323152934 0.9181463382118317 -0.38509134685696905
Ni 2.500053877080944 7.260015205076707 3.3798379446900735 0.28467974110642585 0.5547229632465994 0.9973867092013985
Ni 7.361899400402919 0.17416122158726222 8.144341938573646 0.43831112541305806 -0.6299866089766054 -0.2633485837288175
Ni 2.988395048572001 5.852715667238544 12.349808031807903 -0.09099853996675941 -1.1182699525427322 0.09573708309300932
Ni 0.7894125477501068 4.204058325664175 11.515100057749782 -0.7378757540511163 1.381283264419318 2.8320634472881934
Ni 8.587308760672578 8.054522880303404 12.54163884713333 1.0069126464139626 -0.455696410769041 0.20172798270354292
P 5.207794767711474 8.104914351798291 7.667586859372209 1.2800489056571633 -0.3556499016674004 -1.127283468895252
P 7.445255025168544 2.5198855962396487 12.79479748736476 -1.5640532179631195 0.3861899792377865 1.0793529637625605
P 8.153819132638985 1.8482226191427178 4.57463432542729 0.005369491842029463 0.7036140046547689 -0.3711271713673931
P 8.946977773753545 8.505770202262076 6.480379024943337 -0.35262165636403786 0.16907831498932172 -0.793164242210776
P 4.558716640614345 4.779591150892787 10.884929515559032 -1.1273474893639681 0.01428710604663346 -1.7175524475672614
P 2.1364387097944038 1.1980707710175618 10.93467950756794 1.1602378123340857 0.9400421098436585 0.8284084101250507
P 8.731994963475051 1.832493064937248 8.397783233571431 -1.2341968803200551 2.3297151409885686 -0.23096502519178935
P 7.795379851333708 0.41918160705240953 10.30624160238652 0.15276877919602075 -0.916437325940525 -1.4320895484379077
Ni 6.865298836388569 7.516487697130539 10.723588706588478 2.6345466744525208 -2.031650493934804 0.5887003486333087
Ni 2.0126579471786634 8.095397696190897 6.05415399148912 -1.4326690750904618 -0.6094108417077828 -1.7469794945791268
Ni 1.0249814350377666 1.1883338649428803 5.86840759532252 -1.393128336683362 0.9734726215879623 -3.5454273322408745
Ni 7.810246757875634 5.494973845746346 0.8106327625630054 0.4050045408411283 1.9949801350969643 -1.0129169436265135
Ni 5.91210987658382 1.363689945315179 0.8957788400856254 1.1532958337986137 0.4509370417071847 -1.278860541776017
Ni 6.3230238317204135 3.8562920149195525 1.0247501720471144 1.4531687377057103 -3.166930607882288 -0.5487886000400355
Ni 3.111368226141019 3.240462531280077 11.681974659710939 -0.8615180481948259 -0.4321319931855397 -0.581181157438128
Ni 6.592509455549833 0.44770771340730026 11.956933507652462 0.20743403194938467 0.7354123801122883 2.024469659915649
Ni 0.908457007608879 2.8065140481063016 9.9920488045388 0.05093458206633808 -1.91713227357955 -3.1047371650726787
Ni 7.703673063016753 3.650082514921355 10.851578088549976 0.3063266299522402 -0.03771576938321892 0.9367292434203417
Ni 0.5282927708365022 1.662037557462103 2.3745221232502653 0.48485117795612626 -2.808078911448138 1.6479940797521488
Ni 2.7694844382935413 2.5553000359589655 2.154605702504525 -1.7632034126371572 0.1516547201962356 -0.7632247743388662
Ni 5.432808151354365 3.041530473805181 12.01064617265199 0.9281458726267048 -0.6608840698864101 -0.11143829587835002
Ni 3.0852777228702193 5.918405369107129 1.4389825675575114 0.6740110941866714 2.0807274539671132 -0.9687183947324285
Ni 8.969782874220636 1.4737968247534685 11.844349728167463 0.8323105733929343 0.05066744444788048 -1.5321237162443742
Ni 3.9627831158532003 0.43254071560369456 5.487689061540801 -0.18899510851790677 1.050907563937674 0.11665712107512811
Ni 4.287478190149427 1.2268501654098334 3.0285880057211823 1.0192158892613479 -0.6843407582474538 0.6313402947910224
Ni 4.128695957440534 4.305887458373565 6.135535621441679 -2.0503115606794178 -0.8560146018780934 -1.197654562419647
Ni 1.7576721457790239 3.8757107644520925 6.977295281294132 -0.08891877461959524 -0.08022458927970699 0.11935755072542671
Ni 6.183366681254345 2.836018433620062 5.568990850698969 1.6123609039295714 -2.200015070686553 1.128974740554746
Ni 5.451244950886915 8.711282242447195 9.713235573419743 -0.9943520361401328 2.759649612302157 -1.933115793492
Ni 2.741650285490046 8.955650135903001 1.7398648954988056 0.3115806792623279 0.930197870059727 -0.7568507524917223
Ni 1.2193891808304593 0.7788478670025357 7.931504734930648 0.9839886906279376 -0.5675129159224162 3.0254170898851123
Ni 0.5728237444809726 6.6348984933999295 4.510820423371773 -0.921462289958942 -0.708766752500302 0.6785784018423797
P 1.7644356705453197 7.492076603672809 0.5089887350890074 0.40934224898453364 0.12497206869872672 -0.27832808785678514
P 7.943259685911854 5.587469864904415 5.122241226824371 -0.8157171878106275 -1.2296766238521983 -0.681286287691846
P 2.468291924277483 7.430700140121943 9.526790799729783 0.08128439800278904 -0.7474474568999514 0.6249734720327301
P 2.837330759320985 1.9512814836277983 6.702095075548875 1.1155476685155628 -0.29799111350335133 1.8929258515366756
P 5.423484214905849 5.683453183127875 1.2299529438677503 -0.6200176706893515 1.8590641657922242 0.5028810388746436
P 7.57604709432628 7.776245591988081 1.5334470752669656 -0.2992638095681878 0.05279400387258005 -1.4604079357666266
P 5.678791214903617 3.593377196697552 7.534398648672438 2.1532911842674527 -1.3623416903198085 0.591902143400058
P 2.0420063219447617 3.9000025555733755 0.03793171901835993 0.4150976634110722 -0.2797421945954924 0.12829779063785
Ni 2.699710925677329 2.6434552854909046 4.681012547996453 0.34828729065474207 -0.7592045974358795 -0.15148631293917136
Ni 6.500554885457179 2.2275948719431393 2.8909406407691147 -0.2383836862533636 2.7486360348004726 1.894250740995686
Ni 1.1162110140089316 5.495909910232318 2.35970660848404 -1.2770846808225167 -0.09931425892130638 0.3432201605444799
Ni 4.080607938749367 4.003795588282748 0.8750027970484239 -0.698587497974455 -0.943118177665821 -1.1114040786608343
Ni 6.724430308352417 7.421137599000532 6.181902015646881 0.2622916032192128 -1.7874445445727087 0.11318767446928893
Ni 0.705380570507851 7.5976316401204835 8.108721014041247 0.11949587607550387 -0.8720266610356336 1.391568962616042
Ni 7.497068947597998 0.2697526775210058 2.9013768420774344 -0.21887724078931983 -0.07463783922054888 0.027757886839558647
Ni 5.9064292499483555 4.979119720049922 4.835704545985755 0.555168021203818 2.2870165736787773 -0.6981874343225588
Ni 0.7704884440586836 8.831979498520907 10.475587598132703 -0.8602553794323184 0.3893470368095295 -1.4171108156408885
Ni 6.318637176580265 7.34594959573016 13.133139831240307 0.48114236164597135 1.452832180301898 2.1765002753940643
Ni 0.7661788765820857 5.710103489669698 13.375500692312952 -0.22731791535750528 -0.03804255659501835 -0.255017952375935
Ni 4.7027420920149545 6.4725463677004145 3.196335350158968 1.7833210093226384 -0.05051343536851946 -1.2358637264995167
Ni 9.059562470948823 5.693254328922182 6.8633551260147545 0.6500335003251515 0.4294338775280862 -0.03788571930217992
Ni 0.8909030453660418 6.555232063961374 10.966754399577006 -0.4473930331096682 -0.06711144893651667 -0.09699460964919424
Ni 0.39612046541709717 7.729690149465124 2.2105080242330084 -0.001903901890932205 -0.6575244093855579 -2.4080556258716848
Ni 3.843232997629947 1.754285794844474 0.09107632135434383 -0.0959088327841832 -0.6421278723248296 0.03571493690310623
Ni 0.22045511668031537 8.806568100857577 4.030909338516157 0.7099939400391836 2.561193872591983 3.145252865798538
Ni 6.794038633118165 4.813344535004642 9.125158566368809 -0.7278610501275916 -0.6495868997060361 -0.319064903454515
Ni 8.473934832636186 3.330820285484895 6.26990584298256 0.5021166499047933 -0.3775927244870787 0.27089014352150126
Ni 5.996493336863455 1.939718334095189 9.693880145896546 0.8220662699571069 0.8365572644844302 0.7497542506562571
Ni 7.554985643391884 4.686746401828179 2.9381531638528138 0.25523135393832175 0.002787847157782296 1.4093422274390632
Ni 5.823156219107961 5.331052435467405 12.402137707414923 1.0929893235990724 -0.7748099080733043 0.34673048769058346
Ni 4.223128345290177 7.296567605543677 5.266954043224975 -0.1237093999362192 -1.6278615706683317 2.018035217144215
Ni 5.340532382663584 1.3654794803618924 7.589683351382235 -0.8834112487234914 -0.48023424800940523 -1.1119116144248722
P 4.688297332201997 8.875937820950428 13.064195928717545 -0.44645946555180527 0.18802528840546973 0.9048663332734739
P 2.1064295836264417 0.6756082135922234 3.7245069832384616 0.8231708158751954 -0.2434287048764388 0.0968367439150913
P 8.090019913947954 5.941733564434029 11.713834807514399 -0.3922860648331954 -1.0942653620980185 0.6190169973389791
P 0.4479417295287936 4.855219655097734 8.689961079503455 0.3202694652855774 -0.343476242419344 1.1099020401940112
P 2.395444082222045 5.823339761164035 5.250312285000821 0.9885477707535297 0.17712226833972078 0.5281017611146454
P 5.37960848640156 8.567513749925087 4.050465744590752 1.116198157615368 0.41865838417913703 -0.02707474472960499
P 4.788860024724483 3.2709580438966332 4.178119244589635 -1.3579664440702484 -0.4957711673027397 -2.701099936892722
P 0.29006160602550113 3.632673550902816 2.6543696138552955 -1.1162202691025551 0.6281392713552215 -0.2410398929292881
