# total energy = -381166.48123903334 ev
CRYSTAL
PRIMVEC
9.27429222506476 0.00000000000000 0.00000000000000
0.00000000000000 9.27429222506476 0.00000000000000
0.00000000000000 0.00000000000000 13.57386413120526
PRIMCOORD
 96 1
Ni 6.318213455102478 1.69035101195267 12.589799479650626 0.6710188443275669 -0.30168167498106113 0.6446344407967672
Ni 0.5045975350238845 1.77290148521309 11.91897880877161 0.10431839700411713 0.25160558426027635 -1.6111717687174767
Ni 7.258765780201402 5.973979558236169 5.005932667017951 0.042877773200132606 -1.666512964491943 0.09814980629956
Ni 4.37571299173937 2.127318554716175 7.033419960154849 1.3036197509985679 0.4366990437309317 -1.2190479404937586
Ni 0.5283378677339198 3.3229510075035154 7.423437327001765 1.5701061090254185 -0.07109280218176789 -0.8169248349654835
Ni 1.0846562744889259 5.370557022317061 12.245715826315024 0.5852805243184823 0.732432471548358 0.7810229788625517
Ni 4.701639436160328 7.801246943264176 2.186532126969383 -0.48346483913156096 -0.22340572478729268 -1.805006207605556
Ni 5.702131510577542 4.411289175923953 0.03330027292313953 2.3464121420282753 1.073229624473642 0.06538932403908738
Ni 5.530918805616231 5.333728808709923 2.4185368886855216 -0.33139797109857116 0.3220214149796776 0.014998016070729007
Ni 5.087774584368125 6.646745975580753 13.338017827144348 -0.2576718450590143 -0.04842621382218757 0.11545641589880762
Ni 7.5704005406212005 7.850641822556952 3.292666734344929 1.808431174126705 0.33704128542727757 -1.328363790712467
Ni 4.7650570449857135 3.647068964980784 10.936245148712228 -0.06918607207735826 0.77997576854496 1.6041153760913278
Ni 1.4541162456467016 9.145926543087604 8.602123793412131 0.7491184168444712 -1.2128348697045113 1.0685054795250952
Ni 2.376324021132198 3.233760141157547 1.869772392779927 1.5342299639540997 -0.7195324756572382 1.69160050358819
Ni 4.184579107521417 8.857598078511353 6.4444764489356805 1.8206464852459738 -2.288981153604316 1.1298175481710155
Ni 2.4923268657048685 3.3636744237586 11.278102971963289 -0.0009528508315725526 -0.24654796723171085 -0.6109198221531414
Ni 7.6056706731691595 2.0477544034858473 1.386393510466133 -0.78233141326133 1.3742150447186268 -1.3239121826990168
Ni 3.3362967137187436 4.83722958547696 13.328393894316312 -0.46823002445967743 0.9739289923990904 -0.5254987762741595
Ni 7.837527973642197 4.492077533700778 1.423817133620885 -0.8506574513312382 1.425383340062326 0.009193750684126102
Ni 3.1047547391743495 5.593872699840671 2.1175230474857902 1.600814850963185 0.4063019194963132 0.851134905188289
Ni 1.8575943199298812 8.757834519263815 1.4910483313244507 0.5333750936984428 0.009087564123564994 -0.18022096186970255
Ni 7.3319213956466545 7.546574884424592 12.751247282545211 -0.9004725750811524 -1.1776158986012168 0.13399432680199502
Ni 0.7176104015436753 7.341872710982957 2.835213207940828 0.18751029644226416 -0.5143461020914497 1.631596612230732
Ni 1.938633083591217 6.561700717767242 5.032415407877981 -0.6380619297855721 -1.2327292946355932 -0.28203741838757235
P 6.226778210087931 4.107046026243234 7.190591386999511 -1.1705543637687454 0.4516024432053255 -0.8888298486359015
Ni 1.1492331698166762 6.92262834026761 10.323385093234666 0.8085980602673429 -0.07025822209561448 -0.9602782343848753
P 7.6422855780598615 0.5184310689993079 8.329927032373593 -0.6486193935864443 -0.8406643446742683 1.162791689104191
Ni 6.187353194715496 8.935928748903164 11.417492798720076 -1.0438907663002088 0.3217367938597233 -1.5344289673387832
P 8.211170650500506 5.227417599297025 12.44612029283509 -0.8011449464234074 1.1375912785791635 0.4095397097073205
P 2.1140377685450793 6.6584686806926685 0.6089490865331835 -0.7786287675987623 1.301312700131946 -1.3886543600724084
P 0.7368897997926094 1.8939309960600157 1.5553609093296616 -0.5911143573914401 -0.5281303003597355 0.46850204717414157
Ni 3.120771441491027 4.343475552681599 5.589716889586993 -0.4295850583939698 0.22715593585834426 0.738742730037102
Ni 3.0155360499523245 8.124595134503874 3.553366155567611 -0.7953784762532754 1.5013296136816532 1.35070744851499
Ni 0.27106622484143184 4.0664431757843955 10.455580851672373 -0.808440451643556 -0.28249584608122963 0.43111280789240597
Ni 4.523721418069338 6.240559808028048 8.709615620199038 0.7105613825068796 1.2810272104100326 1.2971328577226435
Ni 6.252987359333403 0.15225048749942285 1.5539085551994987 1.3507424155179835 -0.1934199770584798 -0.8958695290915022
Ni 4.434270871546841 2.7605301166000586 13.372970778905259 -2.62125227133646 -2.68630735196458 0.45594400800347284
Ni 3.9408043418040655 1.0161934508052473 1.9169145465413067 -0.19216862114988192 -0.33091666058677843 -0.5373150521827972
Ni 2.216843295574824 1.5621802962511748 7.208102177760437 -2.690186889524644 0.7274249910314375 -0.7911682948266697
Ni 2.673963874895446 0.7596934290087335 13.306146722621325 0.0043811597868311635 1.1476149813637526 -0.2671085649918819
Ni 3.7558100389026383 2.461341456069652 3.8661759687862083 -1.126337302931899 -0.541729379200409 2.588601575180974
Ni 1.6114917069157804 3.1340615019541413 13.461377040146425 0.6301532164614567 -0.3562075739430833 -1.450577065719134
Ni 4.306304190269762 7.775390217115423 10.51314730966302 0.17344404815718514 1.7656865840703269 -0.28816692832407786
Ni 3.994502492593621 4.1452375607771526 8.113817479748686 -0.2915466434295882 -0.32803831059771893 -0.008154510786334342
Ni 1.7005063617133886 4.557359275221966 3.681109326407033 -0.06738655697477426 0.11740814030853973 0.2758397742172927
Ni 0.09205291286300721 0.4141806072730151 0.10051013975506172 -0.8422239758519044 0.39971860985184066 2.335481096938068
Ni 5.578876169646075 5.814322621130434 11.159751876651429 1.7722022737016574 0.16188513967499218 0.031915617761674064
Ni 8.112659120675522 3.399658676792015 5.420857999940084 -0.7760419807081925 0.5806499675250065 0.09122248305210741
Ni 8.103598137373035 6.426481540131367 10.638719368740814 0.5016757057126328 -0.9749988284245015 -0.13008882110000175
Ni 8.892525062254611 7.156219933348186 0.7269709444783728 0.17245031678534814 -0.9688119828874991 1.625744010104697
Ni 0.8877602726396167 1.884295006652356 9.56512176005525 0.5580998501386324 0.42543272678849314 -0.5353988089966908
Ni 4.204008749301058 1.3026299598096376 11.168195192105456 0.5855474048266238 -0.5987425633606592 1.1897111392028543
Ni 8.713113883148575 7.882434095597815 7.851761229603635 1.0184417300994848 -0.1484413554652605 1.1083820040050587
Ni 8.846904819813536 8.798149866670066 10.103487919749229 -0.28931981098159854 0.3616968791924287 -0.32533171029983327
Ni -0.08853610132943217 5.203443554428114 8.490098692686379 0.33594008194329883 1.784726374310597 0.24785074520353445
Ni 5.360633529856814 4.033139193144448 5.067435134541428 0.5535394844614596 -0.11022242119337791 1.2024450418297548
P 6.536641580732117 7.055195070386074 1.3510909178961084 1.037913465670851 0.5553266582688694 -0.5984785110659951
Ni 6.20863769489892 1.585987403863746 5.7210306628537 -0.7814068445645318 2.1672131936651837 1.763415785758279
P 7.456345297372505 9.576633938738336 4.924000789035191 2.6821714754193353 -2.5979040835288223 -0.9667903244717801
Ni 4.80962929242865 8.947716374059214 13.446948096623387 -0.0392777145537001 1.1125384493755937 -0.39036699343361153
P 0.7121821584250007 4.714039164589627 5.636723638684895 -0.08933323644919454 0.8610729902376073 0.8797664528820526
P 4.564092411227703 3.1908294434019595 2.1478063932151743 1.8023669702104959 1.1330409402043196 -1.7940031716268328
P 3.1112560178796134 0.9199680339629274 5.501419137562446 -1.5871854331052084 1.5104876260318374 -3.646232316775095
Ni 0.8985101045187487 5.089703637108061 1.460887406249716 -0.7539783160399337 -0.20340459907501746 -0.33566677367725417
Ni 3.1322622893024703 7.749607685302822 12.426954040948786 -1.9286927247236394 -0.8789745531083766 1.2030129985180829
Ni 6.752120481499738 3.5940663860926474 3.392814249282051 -0.28779129015221405 -1.231317244779415 -0.7941536027072387
Ni 0.9957158140274686 2.6710610214935233 5.023157809584693 1.6068528296271487 -0.7498990037642376 1.2067590958240766
Ni 7.17235720146111 3.5125731821223845 11.531649131751777 -1.211066722060495 2.1298810328736284 -0.514486741434372
Ni 9.041229060486 3.2356242738533507 3.1449281899127115 0.4291073474266029 -0.2805415505683362 -1.052947220075522
Ni 3.34346574144937 5.831155461144777 10.917160510595693 -1.6161324551568619 -1.7018064975869143 -0.06483319442530125
Ni -0.19002838860929766 0.9785490995004449 6.821015487191499 0.8475271332323726 -0.9135378929055429 -1.4246796291270818
Ni 5.440169858211085 2.438294840402632 9.281319149984235 2.2103213377085673 0.5344300173255183 -0.9269222846322488
Ni 0.4323730584973315 7.945480732742443 12.33066092177473 1.032772802010176 -0.6960858145985237 -1.478523671530731
Ni 7.854499928036823 1.9549280146684622 10.106107907244574 -0.1680341899955235 -1.2624839001902062 -0.6377366852356694
Ni 2.313750372880535 6.125076323808438 8.05212488923882 -0.7013444918943018 -0.5117703709444734 0.2178961078229731
Ni 2.052539938167611 0.2023715438572803 11.142350522536328 0.042161206749082226 -0.4339865298957752 -1.5538947893728785
Ni 6.926180394110857 4.5195479866608235 9.218160293906177 -0.24184927620446092 -0.7245324999749909 1.4326649613254037
Ni 1.6152570694754622 7.969510423363468 6.646673636103005 0.496593663204035 1.4905098973583297 0.576692268428839
Ni 7.675858515168358 2.6188931288870902 7.604295295662753 -1.6175136517751048 -0.05348357374043693 1.5240530234210978
Ni 1.2949786688940275 0.7031907323126563 3.9718073725941183 1.163885436389002 -1.0144601197439174 -0.43136606155379253
Ni 5.765317262102454 0.8215974733766308 3.6581294856425495 -0.6324677235272462 -0.3203360568574548 -0.8293000687013847
Ni 7.211068096348088 6.123082351024369 7.64993130440026 -0.23970626171952908 -0.3056537722549317 -1.1626019416908882
Ni 3.424198453474081 1.528570261974603 9.017253160758683 -1.5589035554413797 -0.5893811767504172 1.8619384020162257
Ni 8.517556161637597 0.6705897410077434 2.7685931860813096 0.4894596232624151 -0.9943129553720811 1.5463624855515754
Ni 6.424589584559507 7.425934893842461 9.465054931458694 0.8285763031614828 0.3030258477137813 -0.4901080554796914
Ni 5.434670203043864 0.20925306853532005 8.843656962748511 0.6949398739195386 -0.14535448900982065 -0.456746192189794
Ni 6.716692685987458 8.191240196951844 6.65511602412783 -0.9592405371489802 1.038327156169502 -0.4836700131638315
Ni 8.828727207456451 7.557481451838843 5.559963105931889 0.5210173434640382 0.7616065220091528 -1.1988084735184321
P 8.440542440712473 5.788966706750704 3.1258574632342033 0.3364810420484334 -0.7616060077885206 -0.0893463490753171
Ni 8.693804807165181 3.3241844883420324 13.207586966477841 -0.40621887286420366 -0.13474637447667118 0.7272002766151412
P 2.020404516322048 3.785877293627982 9.038754679375351 -0.12484608464382368 0.34945945658597233 0.29788621249437086
Ni 5.703800883140947 7.45819088148427 4.1929120589004185 -2.574104152895748 0.411350280553498 2.4542544930252506
P 8.123027779152677 0.30865678525252443 11.935485193706887 -0.3932157757363164 0.698805527522532 0.32236902812708346
P 3.607940726952954 8.365791647039964 8.56806673826025 -1.5801051292196593 -0.44390276056822264 -0.6109085092992317
P 3.9337837027457416 6.255982955655514 4.1798816786138335 0.10317939830366747 -1.4914817743532958 0.3580276578709576
Ni 5.052513726112186 5.976483617081278 6.549456797443862 -0.12020241522422526 0.2310575849055956 -1.586529030468132
