# total energy = -340864.7333439551 ev
CRYSTAL
PRIMVEC
9.34870850051152 0.00000000000000 0.00000000000000
0.00000000000000 9.34870850051152 0.00000000000000
0.00000000000000 0.00000000000000 13.68277987243710
PRIMCOORD
 96 1
Ni 8.064485867477552 7.9461312163204925 8.552832490033722 -3.110931981029481 1.893055178025688 1.5315159074570464
Ni 9.151133014179043 8.727701954553709 11.19035186800587 -0.6328065949239038 1.2903328040816746 -0.19440522378988453
Ni 5.300456024946336 8.925296259992543 11.355886646966592 -1.3998538283326536 1.9494626102811394 0.5995761150055481
Ni 2.7229609655538893 8.372703442042884 3.4158788347936397 -0.22865771721485134 2.4896611546593186 -0.10690338412247395
Ni 7.089499696559627 7.7839030755994445 3.1233820486473998 0.3784378460961934 0.20220775055343884 0.4177253308419064
Ni 7.248885829859525 2.7155848344509725 1.281935125723226 -0.10431788278348486 -0.31904921972523115 0.07678342480864195
Ni 5.072272744895663 5.815448336817503 8.25144134250432 -1.1300795435831505 0.7860070623407044 -0.6157843493342944
Ni 2.4554102734951293 6.5428152624592 8.70925414782952 -0.3238756945795971 -0.269342082308091 0.20856326045782148
Ni 5.078405497751827 7.739562150604348 4.410479531271805 -0.15726049641878723 -1.5513648238621733 0.8530879151496018
Ni 1.0516268842027268 4.30813734824285 8.939986820721469 1.0105520429387629 0.67597567411221 -0.15706020748252306
Ni 1.9475136314682133 4.362369206960236 1.8600919874002906 1.6878883448439255 -2.2387019457337898 0.5483736239898039
Ni 6.995489082654776 5.693064392244273 9.316126502910537 1.0170978144770806 0.23028599684689371 0.4115271724509945
Ni 8.343217615048463 2.9758715799102826 5.864179415381585 -0.8515339403989206 0.11621591977265147 0.8795209125301499
Ni 6.537729564968723 5.956127704164377 13.074388702800205 -0.6670362055307351 -2.6369802235946778 0.5147772760915973
Ni 4.37011928640804 2.900380757786013 6.108621969467989 0.17657796580047655 -0.05999309272418055 0.45082956959504294
Ni 4.827327230285385 0.49629863411021374 5.553634947240187 -1.5236401042533954 -1.49117864129058 -0.4404369135068092
Ni 1.7378781893239863 1.1247244369197136 12.100845037622683 1.265710377547304 -0.3217169963653814 -0.974304116350322
Ni 1.5015147892288878 4.3518425610516385 13.25999609404365 1.3948928847829525 -1.020797374815855 -2.2066022369857676
Ni 0.19204491200069423 3.75204811326849 11.187068601537755 0.5863220782091193 0.217725900793696 -0.7318696570663525
Ni 2.956201896969173 3.1510757281989448 10.881121828296752 -1.1883721086764565 0.35920085224345233 0.4785555747554016
Ni 6.308069188955742 7.741226220739099 6.843907251312691 -1.7459333127027994 0.9450225937773855 0.5556524170394043
Ni 0.7600013977000758 1.4355409524820177 3.060906498666957 2.2179893957767867 0.08920699528397541 -0.14163975916239477
Ni 5.079218835401958 2.2065943935152594 11.975524663671221 0.0413083718304837 -0.9812455806651617 0.3061119428382728
Ni 0.7659733527679375 1.135980282100843 5.735506594518203 0.14768262292236503 0.5041673617862349 0.8515843340208819
P 6.40096730653455 6.071042030548467 5.517526495057799 -0.12903158348008104 -0.015310147994509114 -0.32241736486651573
P 0.9917297080602873 7.563843823341464 4.74625522911366 -0.04812333786978809 -0.7738007500824996 -0.499982634280926
P 5.144566308671141 7.511678029229584 13.062800043592123 0.14722008146364968 -0.002474429682421545 -0.06503168358935252
P 8.449512432082885 6.8294092739813825 1.8456426233538172 -0.32363529643401684 -0.8370699424547906 -1.7169564658544754
P 3.170689318888322 6.5693282001117606 1.886950827271873 0.44988546051421874 0.78606645482373 -0.7617584742059849
P 5.519262550248942 3.3265977325807614 0.15338706697703242 0.09151944546723594 0.4718449955044454 0.08752575092681056
P 8.12063421146249 0.20520041477385495 6.534335048868002 -0.5971237968103135 0.2337644423137974 0.18936149071839
P 1.2312997152128007 1.7916893561533729 9.8851104116875 -0.16723123447825394 -0.12893593844248116 0.8229314461708794
Ni 4.408318109838352 4.545744126584701 12.298315005236843 0.5411051153528488 -0.7285254231844679 -2.637781636450051
Ni 3.1533100695596508 6.536832088940992 12.669638232743752 -0.5493267319316927 0.2887760226629865 -0.14229230514472913
Ni 7.1572871827792035 2.5415866695745746 10.572656512952932 0.025460863275265828 -1.5726797832898656 -1.174834736311654
Ni 0.5437124796294287 8.52455451619329 7.134502510125175 3.2405328067494708 2.873817648406844 -0.5532160396837699
Ni 2.4018982653416527 2.0135903040099272 7.932865398785589 -0.014072676042982216 -1.443310871075024 -0.263317730490882
Ni 6.001094992637162 4.028639006564918 4.561195672195474 0.6431923090336019 1.3485397514397097 0.3614030021010938
Ni 3.6066009045242926 3.94895061426928 8.700606592353985 -0.3007722757929143 1.5165965671430526 -0.5905073199350604
Ni 8.02012624506521 2.0075510382399857 3.4591025891083844 -2.498105942992562 -0.4311773425817542 1.3986855190561653
Ni 2.774481698770837 2.013852067851349 4.679360544567504 1.16465728155802 -2.046180055009547 -1.0996050291433772
Ni 5.561789825771332 0.42943947465682153 0.5724326473876913 4.038377999375683 0.3848445209534856 1.24238455833717
Ni 0.48432293836517476 8.65913852551849 1.993814045790524 -0.6481619943340515 -1.3175052507314082 1.4820363126696798
Ni 2.7176041555133676 7.446900827186356 6.125219666755844 0.3757055347666949 -0.23696058065359188 0.23783449861811298
Ni 5.496498444753883 3.9996393124188514 10.106306466913939 -0.2872487873851827 0.3908835280587139 0.14142892870316934
Ni 5.910019873239684 0.7140852153021374 8.945842851802414 1.4407603367390283 -1.4326225381232425 0.48187564026757
Ni 0.6263550638496823 5.730767734117609 2.838793335124679 -1.0746481020877234 1.634357719915637 2.313010426639378
Ni 6.794155293767064 4.969782852270478 2.074925311538461 1.7126760933115666 0.07596195734861111 -0.058444260179821926
Ni 6.477542578858995 1.6162795362750226 6.56885609032634 1.038796896717069 -0.9858933638498183 0.35045807305381577
Ni 8.420335112472998 7.2872622787536585 6.080531904670863 -0.459707331700647 -0.470604438229125 -2.5264767808257713
Ni 5.38480007413583 0.11903243253216954 2.850766226257132 -0.33986024293331146 0.9973437717786049 0.9289442001582839
Ni 9.075988094273795 6.533027164531756 10.304584162953056 1.239195104865595 -1.5200102208102921 0.5316866502524263
Ni 8.912694200769815 4.617458070425602 0.7807050478148013 -0.7884570665430938 -1.2934122143379467 1.3276824483747263
Ni 6.2961495854624365 3.6409761061281243 7.4593860275513055 -0.9116072515417333 1.7823051664636145 0.6517908493358904
Ni 4.0612473022391535 4.959508621494679 0.6763725247201802 -0.9142829986016835 -0.15759885359481243 -0.2372837683209655
Ni 0.039298231564282575 0.38635127661709884 0.09346558419217525 -0.7347035269707218 0.16512627232010918 -1.6844857469202794
P 9.217134897051778 3.600711218092306 2.844745657904434 0.0512989073842923 1.3212441489485502 -0.8526099470719188
P 4.649496094873884 2.179651415266077 8.264138758554994 0.5487903998122484 0.9124076359558415 -0.941201163148766
P 3.0298229773690024 4.156613478894222 4.394498848753015 0.9862206652822499 0.40817548236994217 0.7320514340598554
P 0.9310079758173698 2.290807560784043 0.006480524816909478 -0.3854875538541232 1.522137808676256 -0.2625129752013995
P 2.777305008774741 0.16873484192209917 6.375107843614681 -0.8811396790804953 1.4742373854505515 -0.4555303175048219
P 5.619976188235909 7.749574617538724 9.49101933920208 1.1218597267765196 0.6192298846807336 -2.3818805101382146
P 5.7803813307756275 1.9966410952778777 4.354599495224325 -0.14752887095332012 -1.3703079963547367 -0.7503607738920045
P 3.9653389004839976 0.4657713609752798 13.236078357904614 -4.761281191277367 0.7029018090790927 -3.3976727184299937
Ni 6.964170908770405 7.4042146236173885 11.25691934775025 1.1733434964781082 -0.23891410483553693 -0.5246413133698707
Ni 4.429128335231371 6.478206337171172 10.604182228168717 -0.7004299504998324 -1.1315003351900772 0.44039037653959
Ni 8.254021586084049 5.29792252490972 7.221046310453474 -0.312676483429668 -0.46147676489624395 -0.17353069433372048
Ni 5.54448536611164 6.949212974974884 1.5474674315904526 -0.921834071476064 1.1718340018121174 -0.790309289260484
Ni 2.8802342907051703 6.282453727330912 3.916189934644502 -0.3252602336319495 -2.503023177788522 2.0746524514176268
Ni 8.227536694557353 3.5460586674869212 8.75069884289346 0.2317355848092267 -0.8269590792730338 0.20798476224653215
Ni 8.770677968089965 6.4672870455004405 13.200516805176624 0.3369623525602261 0.4211634099891779 -1.8962821696034178
Ni 7.930621708716261 2.921929531160185 12.626414478429007 -0.061780009421274255 -0.07648671950382957 2.0883726292171967
Ni 2.6613529757335868 8.599418974839873 1.0165262228098122 0.5830611480696605 0.24763143010387678 -0.8980732216110404
Ni 4.6946316601018685 5.114304538861077 2.7069597158761303 -1.0756462043349346 -0.7082864704297737 3.961695104700648
Ni 3.736819066922925 1.0711563365145038 9.942359098677267 -0.7681813470131932 0.1669620399772673 0.4447764214224275
Ni 1.397239293256862 6.366779079103162 0.6518695594213921 0.31848614813290954 1.9790243830986565 0.36464002098115267
Ni 3.1222256133908335 2.381218921869345 0.6751506485032585 -1.26371494438383 -0.3495784986623399 -1.6083456121225914
Ni 1.0749519122151174 5.599343588306713 5.88928724212823 0.21431353267803735 -0.22668439553856445 0.26170076371274925
Ni 7.434672716308518 8.20815682158353 0.18631695822787192 -0.5830230957428733 0.4881853845356818 0.45839992574313315
Ni 3.7785610509210508 8.769612215307035 8.121551319778327 1.0704242938143629 -0.6727029168982093 0.17738477797248803
Ni 8.78615942956833 9.076025489108282 4.307284746016506 -0.011771795823947467 -0.05506017419893744 0.4187010644916144
Ni 3.6167536020880022 5.195161519734491 6.391198840895212 -0.004370361153553764 0.02006746017383641 -0.3995496883741442
Ni 4.754192282733909 2.5126524163888635 2.1665174145227475 1.1795737936585362 0.4244281967833787 1.671588065022005
Ni 8.46444231975254 1.0608353621955944 8.867070632951751 0.5873260939936014 0.0036681928802065854 -0.011554280496502681
Ni 1.665967922602019 9.017923265021306 9.157597646191293 -1.310046480460518 1.0440082657146794 -0.19529919635906365
Ni 0.9776318554580088 3.333235315702524 4.766971032549596 -0.36960070742053763 1.712195297020406 -0.7728525272366175
Ni 8.284928416789043 5.271166520832981 4.629157979266286 -0.40488704142665755 -0.7160252338349282 -0.4784696999098147
Ni 2.8079874704728036 8.371927499227242 10.948700838314055 0.18514976662988758 -0.558363131102348 1.331608265791694
P 1.1169276139287982 7.623666209814926 12.400238366119522 0.9373344811045081 0.2765915647816527 0.47153852000762014
P 2.9459463636106187 1.0687630671072204 2.5209157399400266 0.4590265035835385 0.1535820191259355 0.10814137029463312
P 7.84964319463076 0.5785812930485126 1.6973898671520977 -0.29384135300103587 -0.5051181557352784 0.6053202165781768
P 7.513940416716157 4.8303655605876 11.283737053303895 0.1845512138139402 0.12006486120509645 0.07687804140497728
P 0.8385670100901877 3.174438151045824 7.091675141056013 -1.4563396792345242 1.1279483561727606 -1.1568429277199237
P 2.2130263050473333 5.288639257247874 10.813309100563897 0.4523418924745113 -0.19756973756079524 -0.09917824756407435
P 7.242902656341316 0.6646894435550159 11.818269101066324 0.6676285876990954 0.27940820829484136 -0.2344470702031188
P 0.25867596296370476 6.812441367832089 8.109510183072933 2.5262687785800235 -4.413355140616786 1.0554928693155112
