# total energy = -381174.3363254039 ev
CRYSTAL
PRIMVEC
9.18153740987348 0.00000000000000 0.00000000000000
0.00000000000000 9.18153740987348 0.00000000000000
0.00000000000000 0.00000000000000 13.43810808337360
PRIMCOORD
 96 1
Ni 7.8565588411880745 2.422364988144844 6.380158460417582 -0.5947632669979369 0.214484768148579 0.30228202756922135
Ni 7.315674478334674 3.389474675941049 9.4406200921325 0.7226514809021941 0.43947043582848183 -0.4792052925242586
Ni 3.3546215603173604 5.6985854013835215 7.889580240118685 0.4590259893629063 -0.138541065632413 0.10813931341210407
Ni 9.140789646088228 6.924513444373658 10.799911800838444 0.09708254137731022 -0.3953906719004481 0.4855289207494412
Ni 0.8226225896309508 2.262450152839842 10.305093965123804 1.3377709429589801 1.582591643086939 -0.8760751200733944
Ni 2.659340466081464 7.985853249568683 7.390582968621141 -0.33067163445550796 -0.3164164100880745 -0.8556952708654617
Ni 6.392360723500797 4.307499865285136 7.4878209576422785 0.43095031417261265 -0.7421175600466058 -2.3320011088092674
Ni 6.256933048198001 8.874121076495388 1.7714922354097635 1.4313889228264574 0.2597205000579269 0.637134018654664
Ni 4.76705417065839 3.777725162575218 9.093030043469751 0.8297950060599322 -0.40921806470184363 -0.22132107434412204
Ni 0.26255248641736545 7.8477721099836835 1.919929230925205 -0.15735537012543868 1.0625307499988992 0.7391031987003143
Ni 2.151500456001945 0.44601429230416756 10.393557158939052 0.04739468723387967 -1.269885077750284 -0.1823727181053827
Ni 3.8826517709386312 2.0152280792667527 10.324659821128568 -0.8621507966828185 0.31329020575426686 -0.5119372355396409
Ni 5.317037436984677 6.931427141967083 6.245334012115967 0.042947450095803454 0.037209776281077855 0.28145994861754753
Ni 9.011476874633003 6.570702904184288 0.0019014963766243308 1.3042679261055279 -0.8537592301850135 -0.7674550103701299
Ni 5.333490751841803 5.359850945454977 4.026150935689473 0.004110165513631631 1.6465406351350738 1.07547316909218
Ni 5.420834716259124 0.19909153684734102 9.90404716994255 -0.08345543751217885 0.09856118280536574 -0.8692447274151224
Ni 4.8488157603920445 0.6124617914042844 3.521308697541233 -0.07188161663165041 -0.3808102029831119 1.762846029297738
Ni 0.7572647344529565 7.327720655283642 4.467916012527191 -0.2527450971813583 0.06958459306735758 -0.37575361439581095
Ni 6.826610712051374 6.000749794211656 12.803211226833781 -0.22665868450695156 0.3737005885215241 0.5462612056324915
Ni 1.3719328492725127 0.9601592640535461 7.973501327427337 0.3338957978197605 0.9996518510864912 -0.17817770618742862
Ni 3.3849757226598034 2.284531750067179 6.51859767995762 -0.34513717506153463 0.5836193345659755 0.40225860266487495
Ni 0.818848059643359 1.6140683511766019 3.823759554333398 -0.49823274146935487 -2.1715740417370406 -0.09739184508761292
Ni 9.00167099278735 0.922634321073036 13.326853580775241 -1.648162229898897 -1.2923426354228515 0.21820823974675324
Ni 2.6433737727016973 1.933686846428507 12.4397775173912 -0.593861324008958 0.4290590106871707 -0.47939683970977437
P 7.703254712745311 8.151837081034712 0.3338204971609469 -0.6076061843988761 0.5707360508454041 -0.1310144182380647
Ni 4.970590489716855 0.4063307699023906 6.147961054496391 -1.9433588113762466 -1.8040602987525187 0.7178797705451636
P 6.522049937985677 4.041988169393188 5.238591300373183 0.805534847960987 -0.08210020903586505 1.0494842012275862
Ni 6.682772748573841 2.0231609275014386 0.27074976292654074 0.406309632805797 0.6185140895606315 0.6702058615079685
P 3.4736510099868814 0.2226146354321384 13.299641340499825 -2.313463969237029 -2.8468133519038585 -1.1404094647542489
P 3.18019071452736 2.0779930683087806 2.881654865243609 -2.1863673979961313 -0.614338103806071 0.733300475975608
P 1.8571403698861748 4.109757096268437 11.251835330554469 -0.0452933246201607 -0.4602200096710074 0.711555885209665
Ni 1.0271569417948678 6.369103889497951 7.544355355466647 -0.24384985157425743 -1.836303989277573 -1.3327313236525433
Ni 2.5606664846252514 7.377062236780403 0.7478711036324622 -0.18154276600491961 -0.10084972172922632 1.284965112011858
Ni 4.256670874744372 5.379728973728236 12.995309186713111 -0.5208862172028126 1.0455648115685219 -0.6036050336592831
Ni 6.594483085813728 6.4467796951292495 1.746698412061447 0.3590111048301494 1.4073856179333244 -0.03429697350965707
Ni 7.2079291380175015 0.19609743753098569 11.79572940133765 0.7366156563917702 -2.098396846222418 0.20867818876913094
Ni 8.20250080390392 1.032344510374263 8.92891006407738 0.047180000119912295 0.6412377564103925 0.43067212081056155
Ni 1.2673367762522114 8.353482003407592 12.457717323138601 -1.1703646163554424 1.443926650282152 -0.08286459800571537
Ni 7.002997225288119 0.5608312526564736 5.405304145901519 1.1733522382288566 -0.40121087812665096 -0.447118696402359
Ni 2.5044020239977574 0.2712694379382111 5.420690566123379 0.5422628831063757 0.8598712566200224 1.2307009513516545
Ni 8.906320727836874 5.58217268984697 2.7272636427834995 2.066869722148415 0.13611291580689464 -1.6101348428125304
Ni 1.5677015877678484 0.9198523152685107 1.3282324042981952 1.5597065109586492 0.2732910396535099 -0.03791297299568955
Ni 1.048338748365956 4.873661000349289 4.800172893884472 0.741538033394052 0.692517380520975 -0.9145591350812057
Ni 8.447372403925991 3.6050571719484816 4.231834816324435 -0.008766947559352645 -2.2068742597002315 -0.7337591607795815
Ni 4.946121692789266 7.655400540292554 0.3728695753346952 -0.24993899519113086 0.07456687677329739 -1.7120042640555226
Ni 6.762330769353416 8.735332958537622 7.788673308789006 -0.43388342865900753 -0.7826268330145617 -3.027660120283018
Ni 1.0498445204845768 4.986410278499684 9.47385266642121 -1.02181116079235 0.48798098183435956 -0.2635882105434492
Ni 8.167858863638331 7.189914961817903 6.244621524820814 -0.3322307514125117 0.8271020326088013 0.570659689081514
Ni 7.315270490693093 7.859331665455292 9.610773259690395 1.1608150249937943 -0.8596496275275195 1.6770634863142793
Ni 2.347572185228467 8.840195296139875 3.26965285960179 0.2779187682335085 -0.34052513021082004 -1.1092060425682508
Ni 6.456475398527198 7.678914457340042 4.021448152279976 -0.2772633940376967 0.5985289046879563 0.012455709264849514
Ni 4.243789177900315 4.443129534408722 5.834342693875699 1.2637056884124493 -1.2181493399388892 1.3614212353880681
Ni 4.3017614044672206 7.420968348190434 2.6529244078101697 -0.02052794475002271 1.325610396337046 1.2649141068982537
Ni 4.383697443409739 5.353322872428518 2.0140629421822833 -0.5890831858940242 -0.6925317786986782 -2.144577715653855
Ni 1.1836746082956646 3.265358654602528 2.3571384289503636 0.978476759670773 1.069536491892771 0.14012075141470706
Ni 2.1393716452172 7.219176521220615 9.84900477193084 0.05455520953806089 0.49364666476056923 -1.281644018058425
P 4.252906444447819 7.723729540943632 8.846292755066559 0.2097750213777355 -0.4843613828039013 0.4536567546311929
Ni 5.042518652992929 3.1326119881938626 2.981136821982984 -0.08878122060046646 -0.21929067417765458 -0.5411722211453583
P 6.01309896189181 2.3254171357026605 10.654646108309416 -0.10573507484598564 -0.04843572690388433 0.10180874320838595
Ni 8.270939983002703 4.3522506781275645 0.554732875576059 -1.03469187340976 0.10742351829200207 0.28173994175181155
P 7.901171930970874 5.6281446471514505 9.348367677869968 0.9086201438889513 -0.0033403772271426344 0.42487094074775217
P 2.1709744966336215 4.356189557632981 6.536980953957027 -0.10040312111011096 -0.4408814572433955 1.0588350463148666
P 1.9233208908070254 6.174611384688519 2.838356571603411 0.22073923369872306 0.33301828031081354 -0.16483368078035485
Ni 5.759468175277273 4.8674359180540145 11.18928059871681 0.7225694627113491 -0.3536477836357071 -1.8140269230469275
Ni 5.152513469950725 0.9306589846808084 12.17559806256274 -0.9637409961224951 -2.035750632146107 0.5725592200970719
Ni 2.485010617201859 3.394524521460814 8.682885262969341 0.7398827571788161 -0.8290974657722753 -0.5932985095269525
Ni 2.0452792508780107 6.16890046848253 12.1730446770372 -1.2833628005217446 -2.3415460721852255 -0.23239764387325781
Ni 3.033846191364563 4.277347696763483 3.6382732194700353 -0.1042878008764978 -0.15836709921940467 0.05364992411497212
Ni 5.685051815390551 7.47569949208738 11.167537800216163 -0.7036677407108397 -1.411255642411692 0.9733085852062722
Ni 3.048692737192673 6.202348808897994 5.248803924321609 -0.8822254559455065 1.75672269000882 -0.5763084027268591
Ni 5.293055261534447 2.3606558758933125 5.108872704968914 0.6683083873749393 0.42497429909483586 0.5756872242030925
Ni 6.912476448961999 4.452742603970893 2.5799155775928653 -0.040062158128208424 -2.1577569333482907 -0.6931200471019805
Ni 8.178408450005985 2.176051886765313 11.45446818634176 -1.8081367828147379 0.507302822091423 0.6066109103651424
Ni 3.620215890045086 0.6867082928507965 8.154512581006456 1.164982783218239 0.5619932716557676 1.4227181345253368
Ni 3.3795677971850004 7.858284970202103 11.713044148950745 2.492291393193314 0.8203058356225743 -0.05344346453112087
Ni 5.905362803111946 1.5824104105363281 7.930068983342432 0.09758159250091582 2.3418111529211543 0.17708344468198534
Ni 7.00429182204864 1.7933837748148114 2.7928960259270226 0.07143887266727696 -0.6112293829737602 1.3690059897138616
Ni 7.695450406032946 5.741123463734563 4.547455670232148 -1.0702656567493114 1.302894442796769 0.2031516025239469
Ni 0.3216292519225027 0.09565968275777845 5.9671517947380615 -1.4149652300527955 0.24133068469682956 -0.1627192055405133
Ni 3.5706172255036823 5.384659459262989 10.305792680112994 -0.198657057087703 -0.29893033748816905 1.0100090259510994
Ni 3.460108242456602 3.3388476792210753 1.1160094327920027 -0.7150083625346396 0.061277101642926726 -1.1469670633671085
Ni 0.2347012111452638 3.041577045778458 8.017551588973115 -0.4958393015365138 0.674754143000283 0.4811058519810811
Ni 1.5880570559811567 4.970764938925719 0.905713665966899 0.48892251981202245 1.284253173546498 -0.39888814353074525
Ni 4.373827290802925 1.06191824204547 1.394969326379951 1.1135085265983469 0.9797898220552416 -0.25800068915334273
Ni 4.780945836606398 3.0943892483778943 12.363422016824888 -0.3424709410832812 0.9777082569358645 0.3654113519295384
Ni 0.6332111475681343 3.0009671062622374 13.032827702617507 1.2928684260193346 1.0448379607048262 -0.3344002482600047
Ni 8.66456166896244 4.775547092668904 6.376596942095552 -0.6302388341967274 -0.19565143749215982 2.0663382751249766
Ni 0.1859949920302626 8.235003445976592 8.248001748344466 -0.8326473879070629 0.23272443108505728 0.7872067390757603
P 8.650495553805568 2.396133336053991 1.685111414256121 -0.4103238961715127 -0.6881948418862212 -1.4014995914661927
Ni 5.847216127336176 5.996177388631942 8.80674511941695 -1.2232110707325128 1.6499404048452422 0.7468136799706945
P 5.6368303814454475 4.111345502222837 0.6328328682310174 1.2548220127695744 0.07825795247163941 0.5567919299604862
Ni 1.082558337915347 2.516833825513689 5.871351634459462 0.08323329419904375 0.45789290419972756 0.39533950694753844
P 4.081000521417701 8.102137419582913 4.804553405334436 0.46562781095014005 -0.4674399244582143 -0.11483935114009898
P 8.338883359086816 8.958517767436629 3.9464634552338467 0.8404632844070558 -0.48732920718297357 -0.2611155806332406
P 9.151743220097464 9.134289117673694 10.69662685134582 0.15795957936834085 0.3469937686542992 -0.5380979530954088
Ni 8.624034363281996 4.487476359609569 11.264789561543264 0.051308934686621316 0.6848601210860334 0.8117679733548921
