# total energy = -381178.135066837 ev
CRYSTAL
PRIMVEC
9.14048318773997 0.00000000000000 0.00000000000000
0.00000000000000 9.14048318773997 0.00000000000000
0.00000000000000 0.00000000000000 13.37802107946746
PRIMCOORD
 96 1
Ni 8.065370435823812 6.381245544558152 7.847400074820253 0.34211510040575915 0.5385193569035435 0.9100615043211681
Ni 7.9097171472124055 0.8561113683291556 13.503908588153836 0.15673599137388491 -0.16527333942093472 -1.3522436826538582
Ni 5.449574371759787 -0.18375570424566315 10.168499647753702 -0.33416550654137933 -0.8826342613481508 -0.36437751134838536
Ni 3.2352557518016254 7.5555599846933195 13.052292851487039 0.16474497772129046 -0.03076170666288896 -0.15946136072484793
Ni 0.7284873714863137 4.8739067390892625 8.98789015683066 -0.5583785577213157 -0.8087245585428781 -0.2973853615985524
Ni 7.135088616473619 0.2636590663370559 2.268082942209161 0.1579644644643473 -0.5027743380934502 0.7297238143679432
Ni 8.928478844051495 7.5123072181357315 5.541872229086193 0.288391128519742 0.4205743702549273 1.940142104211162
Ni 4.589080141730638 5.758394737549025 4.4072018927366505 0.2686951927527114 -0.020703293985622408 0.765265716028295
Ni 7.7963842958709995 8.5914783685207 9.02702056545979 -1.3036439193682838 0.9148152169560696 0.23986232768141913
Ni 1.6237977020686851 3.847000871708582 5.909954917778249 1.1895936397883837 -0.09102039434363034 -0.04488117678340658
Ni 3.051029312670562 2.344278010261582 2.047733313425606 0.26117625866784694 1.1274151093771099 -0.009783304639008956
Ni 4.765080145971206 1.0289259141704583 3.069533306884252 0.500102447688242 -0.32193322614124553 -0.9066738187958577
Ni 5.4925255023713895 1.706482513201387 5.238739071951251 -1.0640443584299482 -0.8936411539816158 1.2347990326804283
Ni 2.419211691630794 8.31876291141753 6.7927437004089635 1.0104111464855243 0.5818293325450883 0.9184106476168119
Ni 1.055798934812747 1.9140628869382492 0.7857122806812498 -0.6353519870535767 -0.04958269602413396 0.10922817560090865
Ni 4.821467786903953 7.320704409052856 8.132967051319023 0.3215979542890139 0.6765063498046995 0.5345488022915698
Ni 3.072555150634028 0.6838891257999686 13.528390458387953 1.6730019146503963 1.0772341176473448 -0.6561419272157344
Ni 7.845359004919088 4.198379327331323 3.4463250479803795 -1.6768423714424088 0.05893019867730496 -1.1499940231188905
Ni 3.04777530064721 4.658712342837085 2.9443415926240335 -0.9960060268037878 0.8922051928660376 -0.3740705702664332
Ni 5.507195977926108 0.1992808149806724 12.505064918281281 0.032045201361002876 0.08149702823422739 0.7166114453557013
Ni 1.0447389501266349 9.17366316572114 12.684437760826953 -0.08361021792248827 -0.7574333644680697 0.3116282446708117
Ni 1.979179689338135 4.629243424962684 0.7704833216022984 0.7855836016500406 0.720501781549043 -0.31434950025671665
Ni 0.23999709744702435 8.271250679683305 1.3477423123999723 -0.0026364091815825564 0.7624778688705126 0.3604943742438953
Ni 7.471101919817555 0.6932407541738208 4.860876980271038 3.317818882226144 0.2705852106865727 0.41350177967886204
P 6.728784997231996 2.1294126714050248 3.4036362492369507 -0.12022144138761877 0.8530382928585889 0.11632364899510936
Ni 0.844547743018081 3.6044307282374746 2.5913498417144334 -0.12794966326981191 -0.03645695727545334 0.0032997537971943174
P 4.549282477827059 3.5108596015996825 13.305833402908783 -0.6042503805527658 1.7257563235342923 -1.2316543164038596
Ni 0.7318510693082056 7.782207406409711 8.752262210358811 1.7875736139514056 -0.07841016177878754 -0.6824000895813152
P 7.291034400547798 0.8907931037791678 11.126901249656253 0.4351381270017151 -0.023498083121940176 0.23883825729227898
P 6.143218221243242 6.336347491022464 10.114880659185767 1.289159866819496 0.3674749193267865 0.2094155811557877
P 8.093742495712814 7.577972449528317 3.635624455293916 0.3595178692632389 1.5384879678995054 -2.1166912736562318
Ni 0.967401321672756 4.916446547956342 11.655533783816203 0.5555806832612045 -0.53781230353419 -0.4278680757028631
Ni 6.124845849987799 1.926804720535307 9.51669636017163 0.8032907891218165 1.0766178242195845 0.15066767369261796
Ni 5.583409326944953 2.2104704765260506 0.9834355573226549 0.7880372053968557 -1.5970409857430494 1.0282702861541322
Ni 8.509049490917924 6.3369416224312225 10.20863368143947 -1.2365350415349285 -0.2592985820291599 -0.04310145917516448
Ni 2.602231586977918 0.029255944615569133 2.2322028894101 -0.8491065619043505 0.40314871857931217 0.1408825692813961
Ni 8.571789767682779 1.9834757164476164 9.32377183721635 -0.38319541538583685 0.427658016574586 0.45294327350393604
Ni 8.928195489071934 2.8243727504709595 4.908502553997085 0.09474797970686263 -0.8271256867578852 -0.33544771568791265
Ni 4.363154818187969 5.754308941553412 1.23588656314557 0.7573775715294698 -0.052195708166948816 -0.07390816014337594
Ni 7.948335688781682 3.962234943558015 10.716182777023397 0.9865919325787396 1.0108322931833431 -0.9804765637096209
Ni 7.925694711866393 7.906892737900002 11.752003357680413 -0.16389599945743386 2.0518135991462403 -0.06865333950233983
Ni 1.9207262991995513 2.7373553502959296 10.273905872053954 -0.37547953479881785 -0.45120366510501003 -0.5806245136037097
Ni 4.098464705344638 7.634433214326758 3.0594065655340508 1.1553761133664102 -0.29261905055816056 -0.1444170647972158
Ni 7.769721506342578 5.803905203459895 12.638832233890684 0.2561070716750557 -0.1558888128822412 -0.7337964417754201
Ni 3.866817439311467 3.191006672573966 4.4804327020835295 -0.05525197849476936 -0.11718702543666913 0.9793997857056748
Ni 1.4646801703200591 1.4055686653902357 8.172687021115303 -0.2902261248459517 -1.2899060009569012 -0.25962716901317223
Ni 0.27121733190477987 2.5275629796218446 11.879977435030261 -0.6275139790663967 -1.678582236951651 0.2951927248226078
Ni 6.202448552454816 3.878846315218015 5.178123957533109 0.23957025036229707 -0.11274055962954131 0.8790956520672731
Ni 8.850748174819515 6.149744526256369 2.1786104082434785 -0.26298528685212774 -0.9940417039885655 -1.110039851323456
Ni 7.0825125570401335 6.042215881754368 4.747471919112258 0.9461109417455578 -0.5954860040965745 3.065652797476707
Ni 3.810758855774339 1.610059555801556 8.96506637025114 -0.38521707380155595 -1.272056631480306 -1.5716755103950673
Ni 7.070328292918988 3.1298659803711537 12.540449556890271 -1.4397396087839978 -1.2345241817524868 0.9001753555557078
Ni 6.0355890314259115 8.212513934565159 4.513730568375296 -1.7432382823691397 -0.6882809738421243 -1.2454621688212293
Ni 2.339342149327284 6.8609106820565815 1.8708896425846022 -1.7734641711332166 -1.010990673138078 -0.7670089239716469
Ni 2.751221463328022 3.605728676853531 8.154130926147307 0.10327041535557697 0.34657390750806116 -0.8446613816488034
Ni 1.1059436257119293 0.683699003749166 5.447730736295994 -0.3303427903611795 0.4844423725534819 0.08399691183794566
P 4.832527771590065 8.380753668559025 1.143927817746315 0.2063983915960187 0.13549430838628923 -0.4182236106345636
Ni 5.593363313162453 6.758098526891798 12.318950055318687 0.10112817220159358 0.03056013217504414 -0.04413170021189174
P 1.9732840776666123 2.4239647429008584 4.045861224461518 -1.0835837140144564 -1.077334390670635 0.3073941519848061
Ni 7.9182543585321 2.7139100108580143 1.6356766740505624 0.13923577770659246 -1.0715974881868577 0.1357727588586565
P 8.74798172207079 0.17192883301809264 7.0312472428992026 -0.25228332705359136 -0.08779571675874558 0.39245472920057567
P 0.6894703048490098 6.60924575778987 13.34076375950215 0.4166457246244825 -0.3937834753143283 -0.29692024903667574
P 4.706626755832621 8.24995335380013 6.159749699179854 -1.1910231731460585 0.33237884695460174 0.05700315685792118
Ni 4.993701912061316 4.786496298136131 8.862952548003728 -1.3928750830219754 0.5462573489777495 -2.0597876184906525
Ni 6.646867986689073 4.6662623819699185 1.0178275394548575 -0.06716081411721338 0.4467654268279983 -0.3941362306680567
Ni 1.5322283412542472 6.174524376243186 6.8712458264240075 -1.6250199874544788 -0.7740231505059508 -2.1971140949896744
Ni 0.5232341647751408 0.2897752549694188 10.540382035316844 -0.5472497947980058 0.006467095781582411 -0.7627390929516993
Ni 3.6510654735833783 5.2529442969104965 12.372154065948815 -0.607900061490211 -0.873727188666508 -1.238459512251151
Ni 2.876564909609554 0.3169023810449917 10.995074458632688 -0.034142193099347656 -0.688694150120143 0.5184572960463458
Ni 3.1774604764542818 1.922983998552832 6.546280625138008 1.177769650570262 -0.5740574019091533 -0.812931140425058
Ni 7.18704312304871 3.9045127920763645 8.474481097459737 0.09269418250162745 1.2730521626243558 0.024894449248834546
Ni 6.968612995739604 7.6202197629326225 0.6180575376129307 -0.2866052402639128 0.1484650096143443 0.8094580942747931
Ni -0.16214760193329228 4.185189610056894 0.14830616820587128 -0.02046212450909379 -0.8923021234552181 1.3880704625444804
Ni 1.4027625370442554 7.886390634056243 3.8844558297650127 0.11966119800877455 -0.7608542172241606 -0.20805778157631263
Ni 6.871742154662401 8.040855659850132 6.758081159973695 0.3775024787661176 -0.41110062643653716 -0.11702376038592749
Ni 2.595348803119536 2.868685813081101 12.493359615480427 0.05126779703604074 0.21237877754916973 1.1743806794933709
Ni 8.571113371925115 4.883028941334502 6.331563362109481 -0.5431234313344582 -1.3911732698395203 0.2713100046677392
Ni 5.593134801082162 4.238186131718114 10.804865573239592 0.39866831421045534 -0.4391289933286631 3.0266432489827295
Ni 4.060696228714047 6.833288141790937 10.5367569196751 0.5605444550243829 0.531138233948124 -0.36020383958666996
Ni 0.41961856113605245 0.9896675387763666 2.9898136685054135 -0.056806981686715066 0.521208890649554 0.5452739020185577
Ni 0.4300323136590999 5.401733082629944 4.289729316548681 0.4489243821525301 0.4779796476472736 0.14273067823372837
Ni 3.3197869405430835 9.206843119779474 4.652207060935345 0.2924753258914447 0.5392019847928649 0.950562292648692
Ni 7.577094963139997 2.3036851243185876 6.915246284508311 -0.7695196062086425 -1.7608397975009868 -1.0959527771027706
Ni 2.726587861072591 6.145494201562945 8.667927542006405 0.28994716015295224 1.9100529981352654 0.3757088772008046
Ni 5.569643759228189 0.6290635934480939 7.501364231634729 -0.4346082226401741 0.9274593880826415 0.42952566591094415
Ni 4.246997557534158 2.1534978446677564 10.995395289593418 1.4435579540888235 0.850235276192155 2.2597824205531727
Ni 6.358248088797608 6.362626380255995 2.785585109962268 -0.9378900964976622 0.5101294929069409 -2.9317523159400993
Ni 1.856980569281415 6.913459320040431 11.059811016930968 -1.3070380326514974 1.4022722079661591 0.21308274559472978
P 2.8612271787803834 4.657405253737817 10.015936756516156 0.35069281477244124 -0.5305425093456542 2.835515667502852
Ni 3.901862051944982 5.487324567423953 6.777265206138333 -2.190270589705279 -0.6202552406214544 -1.614507260848613
P 2.403928803700894 5.8995055173706765 4.677330593090922 1.0587203751138736 0.8148175588144935 0.9867683102556037
Ni 6.055743796907628 5.581462404020869 6.801680350845006 1.738214089681671 0.018151731208362287 0.15578519742484137
P 5.2242980225251445 3.25297914874904 7.189442499891771 -0.24902985311330014 -0.545848286464789 -0.1096125555235209
P 0.2736688095021478 3.124674185906929 7.584950294412099 0.6843911518694149 1.363034088401143 0.09879463897241049
P 2.9720372567553723 8.394601500624695 9.166593001956917 -0.20896923764698852 -0.08550280695951082 -0.6360158458898209
Ni 5.386898078377414 4.009326713064502 2.915298621267296 0.2529872950991514 -0.5980468228452152 -0.6833555115160489
