# total energy = -340861.2699435077 ev
CRYSTAL
PRIMVEC
9.33686205383786 0.00000000000000 0.00000000000000

0.00000000000000 9.33686205383786 0.00000000000000

0.00000000000000 0.00000000000000 13.66544140026794

PRIMCOORD
 96 1
Ni 1.9947645306081594 7.3177935498199655 3.1134933220119607 0.9738942825064131 0.6027210883924329 0.5054649975517359
Ni 2.3074466998501535 4.758204893495147 11.134847428996727 3.090711797327864 0.6622516396578982 -3.0005298397251297
Ni 9.097959645782181 7.627478586381776 6.777225657716546 0.8286326103207149 0.6967453025593937 -0.31843215496652255
Ni 2.2479428787572804 7.289092036240883 5.551230328006534 -1.1907565497482333 -2.4781811790441775 -3.3662067866112286
Ni 8.9410256704285 5.947478345226456 4.064074566881704 0.23149364400174968 -2.669233941422061 0.5209245266399157
Ni 5.169316261224678 4.969787521737042 11.444246757583416 -1.0544777977874356 -0.5004868276108543 1.4017325334126054
Ni 6.440707413648253 8.816406574221599 13.48563117350443 0.3221126891419033 2.5610105529365828 1.041055867954575
Ni 0.8424099646423192 5.348976158520937 2.175319832963702 1.5334303508709397 -0.8219726818020361 -0.5665706066138049
Ni 7.1145487392833795 3.1653175741657336 2.06487596054202 0.10968866017709497 -1.8685970449833236 0.5925240932547731
Ni 4.4320496324852225 6.5807510057668805 3.6963656018432482 0.2241091786122205 0.05172442495748511 0.49947921228194625
Ni 8.55833571042009 4.478108372395962 0.7699437781291987 -0.99634592664171 0.08109285081727324 -1.0399978590037058
Ni 5.642648476869304 6.946055728857836 13.136588462840505 -3.1129685518435353 -1.3499700561283332 -3.2279917368596664
Ni 2.592790537355143 3.7578348323728155 0.9755508147345903 -0.49200321561987526 2.0974434811702136 -0.5656869184572708
Ni 7.038518672570801 7.847996591492631 3.8337986073656767 -0.38143909481636246 0.035014311291655824 0.8247296757218829
Ni 0.9260738496705319 4.471871348625362 12.844558498505982 -0.14830174456360265 -0.49832992916885144 2.4263495390848666
Ni 6.699543900128189 1.8227608600961698 7.05289837363233 -1.4614916557491087 -0.4153655723604782 -0.08831893625206726
Ni 7.037164827590654 6.964477357449746 7.89888435639462 -1.1766270523253863 1.284917289493058 1.8079825166250605
Ni 6.086924378181431 0.6988902588263954 9.366703476458202 -0.3313699460741132 -2.099892199821022 -0.8559768066616226
Ni 0.789909723684667 3.3308694730826853 8.580503288019134 0.06343374297461334 0.4932039207961958 0.3226613625565217
Ni 6.128202644782967 0.6826795991399924 2.7190949371407767 -1.5643710063138543 0.021304160794414922 -0.7579987500532366
Ni 2.1397940069984935 2.4058012034422336 2.879363105890389 -0.6730099066156666 0.68912403856871 -0.16685276809291266
Ni 1.4781839704943363 7.182922579211688 12.063181732941004 2.161528998796213 0.6239704846895124 -0.28540402086696004
Ni 8.747136395547814 8.615523989753818 12.709174934177637 -0.07973530834811429 0.3634868812133159 1.1034920229026093
Ni 3.860586997934885 2.7216579057411208 9.305823401916546 -1.294986243693286 -0.8613694384321037 0.17250739527552872
P 0.7423524174338355 0.45935306595998066 1.5543344827258387 -0.3940007335314569 -0.14625643199879973 -0.4061731072279327
P 1.544092878872587 6.276892171050661 7.379529814600789 0.5517011457011401 0.16002366098622117 0.8569062604544274
P 5.34293520885091 1.4466440508879144 0.4667973459783939 -0.04653028235105535 -2.4793751993522783 -0.057123998706501616
P 0.6295752632153376 2.0203942166116016 5.267426139034138 -1.009646757515674 0.8486342502536224 -0.10005550796270511
P 3.1410043856947087 8.32665081843852 12.506516478570383 1.1313370701393355 1.0963710955871118 0.4764585830170568
P 1.7376460267237184 4.564250260580938 4.280330294520584 -0.13434811059698798 1.1828228967234533 -1.440331733842042
P 5.811010771227799 1.972384072557066 10.886491570035503 -0.7961240961700482 1.3836435371213784 2.926833795592559
P 3.2497694903410097 9.240337453383818 2.753832731958921 -0.01619563592325598 0.04369307001257637 0.2412023866490814
Ni 8.091483276956298 0.9830034979287424 10.94301226374109 -0.2771492370573356 -1.4376261619854207 0.12585190020051873
Ni 7.948750668601245 3.3735482689740275 5.775534430630831 0.6797783356877519 -0.3366473924229686 0.5520772980936363
Ni 5.513949171998103 3.119828382832848 5.384074356209658 0.6425176515640805 0.1885230539774947 -1.7226900259041429
Ni 7.656198773684722 6.633578970578347 0.09654782080823086 2.181765894668378 -0.7319455046096104 0.16558778533756
Ni 7.575743034416358 5.899720296444086 6.010634746707142 0.2775382449656381 -0.8549025997608375 -1.6281330791621638
Ni 9.022097642584379 1.9852689420232776 12.946693497494344 0.40847398744696745 0.06229628693606046 -1.4546946874319333
Ni 2.7979960888974573 1.3863932808404784 0.9079145868989127 0.722629369415007 -1.2420634275523255 -0.2162513731306985
Ni 4.603642481072203 2.936424403901841 1.7006505786904074 0.7960644465767065 0.42974369545902114 2.23788639181103
Ni 0.5671536727687028 0.7658075482933062 7.075063150172794 -0.9925265528956198 0.08929801233588493 -0.10127523930241913
Ni 4.494886713287833 0.08501119420500568 7.6487526262939225 1.146173878041852 1.366609464457227 0.4558972139259374
Ni 0.9773827070456559 1.5599935547428463 10.222925460956583 0.0540669570477327 0.19934251319050186 1.115668510364143
Ni 0.820135013131058 4.128442893041169 6.143913782356007 0.6067258386764519 0.36656449169737515 0.778030729003447
Ni 9.242335541837273 6.2972745406482975 9.076313065078947 0.5999946906002054 0.15622922694079547 -0.12079916826795968
Ni 6.879334513491498 5.38492307695928 2.3062889289705812 -0.09984082084873773 1.593343225176488 -0.02264447687239326
Ni 2.5776274735775146 6.744631606397997 0.7460647537380135 0.6470340513771953 0.3730585840621511 -0.2217836158028374
Ni 3.2970513591648465 9.142197697616174 9.851183905249682 -0.4218887181909767 0.6146116691824318 -0.3501600821974228
Ni 3.9751036095313212 6.5327035142646155 7.182351163261448 0.7747260901102464 0.3629294660479492 -0.05704686561166305
Ni 7.78776449516906 0.7284199520588496 1.1533265332929652 1.797082581883105 0.5661831413673991 -1.0274187367871146
Ni 0.09168238205544627 3.3244363752115116 3.453967594480857 -1.4522074022337055 0.647813095635065 1.0964137758995893
Ni 1.5148871747491746 0.4695610571102769 12.787081710138555 0.05379442011263638 -0.4549644176990229 -0.14915226548935603
Ni 3.095701931600464 1.5819165065592697 11.404288723259072 0.1426646008824833 1.039656673614203 0.5256448149337206
Ni 1.0656067154414757 8.40534189080173 9.003257722577914 -1.3507663267773833 1.4308186521452841 0.4378339286663234
Ni 0.47313240679928115 2.5746303408973312 1.2423516444425537 -0.09005134556214167 0.15327297252594893 0.5778958018186371
Ni 6.788673584131417 8.751487373208144 6.113495219867622 0.7847544208805259 2.330950041836934 -0.059906703657961344
P 4.790687836156705 7.758260011463822 8.966961605503313 0.49734185422396926 -0.4434047378858815 -0.8638731786905638
P 4.648310028555069 2.9824831438125807 7.244391809741255 -0.08685932098740524 0.3816087876250073 1.3931031398723814
P 5.709556429474283 7.11202778656173 5.740468911958872 -2.2834023739649574 -2.7933498327680795 -0.4002919658568074
P 7.620261192108311 0.11284624699679503 7.9896227817087375 1.7889139300293837 -0.9626649894494971 -0.2920791188942905
P 0.5007872581557822 3.8881120669105305 10.836011825999943 -1.6597026264383286 -1.5804740825233041 -1.1432847294195148
P 3.674512676491315 4.542345982488378 2.9169430414806454 0.40327701662706034 0.1472897583593205 0.01577783165954702
P 6.771082936251458 7.513811629221155 1.805956375990889 3.354942783661635 0.38701196091844964 -1.3444007895706718
P 3.2334673294076732 5.272255164025388 12.924255150899272 1.3394606719565771 -0.8829489643750922 0.9579084486011179
Ni 6.857663656947239 8.193143029672319 11.018936823913839 0.16641310945233276 -0.9427129718076023 -0.1761727599422579
Ni 4.505007871622162 7.271305314260352 10.958440494397589 -0.26520877686600774 -0.17395775456881007 1.700270263448046
Ni 9.125419356724302 7.473700470361123 2.34966332107586 -1.1724423248200777 1.709076034665134 -2.1598768079047708
Ni 3.841670515660577 1.9223665031871426 4.095669573973525 1.2053933258248015 -1.1332623121865062 0.5219403694989398
Ni 8.292580609248516 1.1172022144779132 3.347363039685629 1.5807527901059872 -0.13060895526952992 1.488535290130462
Ni 9.01527239651206 6.1482582242129835 11.552531947526411 -3.1576047024956715 -3.49737881347308 0.3182004985716907
Ni 4.8394636028896665 5.639772723394238 0.9698366552321835 -1.4522773362396926 -2.4336180477218217 1.32553043502873
Ni 2.5248181824899123 8.512809171639478 7.140972058551045 -0.9138286846730843 2.0685661360142307 2.84788447348085
Ni 4.182783429485625 8.943471928254693 5.45093935924975 -1.1848126734599724 -1.8821300464727524 -0.9852007086581677
Ni 2.6764394834042644 4.479732986372137 8.159457499193916 0.8361032076661471 1.117835950329107 -1.0428358426731332
Ni 7.669466454490148 3.2500029118893106 11.149551119167299 1.308308928944121 0.09257256932209863 -1.4090504072302572
Ni 2.5597380461157315 6.7461628517548515 9.521314440563192 -0.666116264819627 -0.3627201782506205 -0.5816709525903531
Ni 7.173240253388165 5.500167963786416 9.985570292723686 -0.6837301212466483 -0.2980060259016868 -0.04919034568172174
Ni 4.526043821555041 3.202319558002397 13.035067829367271 -1.0417413240573736 -0.013558969631357293 -1.033158467484369
Ni 6.088474297262149 3.233934172504275 9.217518162821918 0.8096221306564831 1.1159094227303554 -0.973316555626072
Ni 1.5811041995711823 0.46743131890357925 4.210977951461798 -0.012633372493294371 -1.7412107104161496 0.07075470211605879
Ni 8.343952023598584 2.036248208172201 8.785812478728893 -1.1675117202876795 -0.5102143393112633 0.24385833621468966
Ni 4.877501978400786 0.10260837788831621 11.815960302704523 0.6582779997221309 0.9179355077526061 0.04342644661475102
Ni 5.872092521987187 4.8258317844688925 7.267171885483039 -0.34031969906823323 -0.16955448329479186 0.0991219404048422
Ni 6.823901564200993 2.6265059457917297 13.281975541042836 0.7461904445643988 0.9595025325611152 -0.029336544180588186
Ni 4.901105565364977 7.829537615452994 1.872315321114264 -4.422480757067139 2.1911704758117296 -0.5995054096686127
Ni 4.4798730393011175 5.550615028805214 9.433923280251712 1.1383114445746398 -1.3010517331610756 -1.9572509959773066
Ni 2.685300165377768 2.2427329097992037 6.484579460494509 -0.1658369252338886 -0.24227325111575695 0.3004704282817793
Ni 3.730608542978995 4.960712091939102 5.18447745762992 -0.6750927572866244 -1.005121873062127 0.6875520660958997
P 9.130461262167604 7.93300871938383 4.47577322322676 1.5359356337912968 2.4437618210240424 1.5554685616179018
P 0.49395360890772416 6.586791955436908 0.20925868330701133 -0.9105178751322965 -0.882626548038667 0.9452030852193075
P 2.1171241062275072 1.2279654075776707 8.468446939541789 1.0508425150276934 -0.4344331305148905 0.2556794972193338
P 7.207674600193518 4.402302390369752 4.114568316210161 -0.10519102941705755 -0.6813405379685492 0.027128223675359733
P 8.462894307750807 4.782004554559909 7.75962039224732 -1.1474841122128432 -0.7584582061881583 -0.08406838850582941
P 5.622135391204619 0.8277734998776576 4.755245108262692 2.3137115664714605 2.1943023365724916 0.6275641155780417
P 7.051328847141556 4.86794103178238 12.284015323985164 0.565889007165748 1.4930028389835126 1.6229345656803595
P 9.14767843557028 7.998394763493887 10.76023665561811 -0.28359293580015027 2.334270107349102 -2.3372338179631167
