# total energy = -381173.31958742015 ev
CRYSTAL
PRIMVEC
9.21359501607176 0.00000000000000 0.00000000000000
0.00000000000000 9.21359501607176 0.00000000000000
0.00000000000000 0.00000000000000 13.48502763047260
PRIMCOORD
 96 1
Ni 0.5461008238999243 2.5114785423938937 7.496043498743103 0.6393140570251182 2.1673782584881387 1.6398480536062467
Ni 3.847634069563362 2.8284814872828243 2.759926813338147 0.22074668989789079 1.2798789557382022 0.17374075346199755
Ni 3.349648480761938 8.309603003870063 5.658762389642577 0.18468979627433355 1.4492020397484782 -0.20795725144270635
Ni 2.483220446946171 1.990901218986073 12.235114062661442 1.005433747875591 -0.2918405205209232 0.26934233941840713
Ni 4.228256886987841 6.754034928610579 4.202190705758251 0.1916590285033151 -0.019134921057238016 -1.879282549721628
Ni 9.069273113997284 1.1571814469373152 5.937281991503778 -0.6200482668169709 -0.43955553934312036 -2.235956007557536
Ni 6.400656711198789 1.9749064183022627 11.36907852798688 0.1384924717826647 0.7428346407182884 -1.0710066486803944
Ni 8.714632634089133 1.817095965472593 12.130712976539096 -0.02473864039726062 0.842101077120795 0.01952855695123088
Ni 8.633737271183687 2.6105431143710423 9.703353633893544 -0.5279456951527554 -0.7231271349870321 0.44583134504950317
Ni 3.388760190959389 5.4790484577428495 2.2380430021786184 -0.6379698842923981 -0.8607006944998532 -0.1573646260968193
Ni 6.551510899906179 0.4867606661786792 13.083254953391249 -0.10651154800069398 0.8761864488402781 -0.35337601803155916
Ni 5.6829176712973855 7.057890073628659 11.949366395629475 1.2188296538353653 -0.689352095419116 0.2608070482538863
Ni 7.248427215415065 2.685560203753292 0.6020227379266453 -0.1152620404998144 -0.7064242204100544 -0.37937964118417244
Ni 5.258908035658584 9.05191470127361 10.952000279764226 0.21204247725567352 1.132477611501682 -1.833101166069559
Ni 2.1921353444095204 7.627529789686993 8.856561613451818 0.8464786373632002 1.9588610207769035 -1.7981909844559354
Ni 5.392689433083081 7.867120110529048 7.59143645316697 -0.8317693561774836 0.29332199016245614 -0.4780076726717316
Ni 1.8842170040564405 1.7925140943755848 3.087612921471823 -1.8098717632279735 0.41125874928095624 -0.10724328396039594
Ni 4.500371197699627 6.113349182556357 0.225041133192398 0.8022435788042248 -1.3192109205686053 -1.2479365985036508
Ni 2.7836481346748627 9.20792850310481 10.661694647353064 -0.19073420269620053 -0.2229709512427192 0.3956074158969445
Ni 7.843487239703027 3.469830612167251 5.095115195683754 1.3144199269378654 -0.0007996130831599132 -0.39539504277582227
Ni 4.696722117845183 5.4538124214105 5.9481779887898805 -0.7371113650812661 -0.8651353332324391 0.19640734182157785
Ni 8.051170881531236 4.444417036090882 1.783286679119343 -0.3981083279419273 0.25241162510133947 1.9215939088953293
Ni 0.2989747038186474 4.721276348157599 11.030091945752574 -0.12950183824828018 0.2768067661162523 -1.5060391033421805
Ni 7.965521303675993 4.527634224902043 8.561509136966754 -0.21275878659640776 0.5258111653082558 0.3571503974723268
P 4.872674138961962 1.2898203585986836 4.317164391986976 0.10079984232789738 0.05135675720542123 -0.7714926707746134
Ni 5.600520492429115 3.3607877169524483 4.980600346479254 -1.5500995839965044 -0.5216248951410501 0.08790524575341635
P 2.0618366858435944 1.2643908367741923 8.963888937302954 -0.5892780755136495 -0.17488000927276334 2.6041402942465215
Ni 5.6979266173307535 5.012748421678535 10.569793645382633 1.289889803006985 0.2601773850896874 -2.2576520044737314
P 3.2695362734199263 6.812974294955243 11.962621994560234 0.44207316355865156 0.9862201510616175 -1.0901204866917098
P 0.9488897078480847 5.310384390163451 3.763442082415595 -0.9900984030701012 -0.25378150886567263 -1.8657366927163932
P 5.417289731369818 6.353989853212902 2.288908495344006 0.879029574716028 -0.02544235133250457 0.4114844921385171
Ni 7.587321661700732 0.6007660035872031 1.8778034206716476 -0.8383521516013239 -0.0947415519489594 -0.642568559406674
Ni 4.9810260145619685 0.9706614325115894 6.670166338642536 0.277062076660168 0.13228454319973992 -1.4647513003369872
Ni 1.1933263795885756 4.188822700970152 1.540785783659767 -0.01173142950431528 -1.5508611447528775 0.9085638367297192
Ni 0.5497328229952918 6.323391504669737 1.2699484771961245 -0.7917133686968623 2.0887179283717576 0.6453769753897466
Ni 5.430032133066656 4.238124647087128 1.3492581804254864 0.4739386448086806 0.3494376022091014 1.1622286175118695
Ni 1.101780101020407 8.377249217361154 6.715057736898142 -0.7267336213913677 -1.8638276486191385 -0.3238044750220294
Ni 8.265442243687167 8.03964467435644 13.288496992580514 0.7318760848242557 -0.17705721942974023 1.323536801637469
Ni 9.553023698733911 6.519595007297469 9.334915795676634 -3.3946879247700568 0.7067142408466475 -0.6793800718080687
Ni 2.3269394508639163 1.0604202736761528 7.014506940852282 1.233400352560689 0.2699938569594769 -2.373256515914629
Ni 7.949977969140516 7.315824661844831 7.396604854814479 0.15833573176083698 0.06827101646225661 -0.5095584508948192
Ni 6.493050640494442 7.214502759126015 9.414005293988748 1.7218163650499378 -0.024633739388280156 1.4974727018294083
Ni 1.9160131199319188 3.0773591117477377 10.251277828217043 -0.17527595915960137 -0.051864807190091324 -0.8546305770463734
Ni 3.7429307775294784 4.063729723502355 8.864909130398555 0.0019890054055707682 0.9917189693926598 1.6132793019787828
Ni 0.4135033734154434 1.690510385636837 0.9084503186307388 0.011903179195489177 0.22783856374766565 0.2982117141545897
Ni 7.5121847955852505 7.372617260586195 2.3458420620867884 1.1937035481916989 -0.5887270881061861 0.8229054780289506
Ni 0.12519985516821847 9.040462202857725 3.2174333944643103 -0.5766349328283424 -0.8039549050683766 -1.4420422887752455
Ni 6.0798393380361855 5.635679570429934 7.698818137227803 -0.8094393252217156 -0.9858856505403343 2.0352955468865597
Ni 4.297727392261995 2.043750399125668 10.188531404474597 -0.4976907529229558 0.24862464725508152 0.046218150427275236
Ni 6.276116549422829 2.7623463033494193 2.936445470539059 1.6416146585883666 -0.9087998639999252 -0.5354180922704005
Ni 8.483739946798643 4.741656819996648 13.049380250514464 0.26950817557231005 -0.7263934644431296 -0.21572249721042205
Ni 8.773572000433797 0.407688673696807 8.227484996926169 -0.8890545630521979 -0.30294562929514923 -0.8261586948589256
Ni 6.17513554971398 0.9878355733379851 8.883761066849674 1.2828825184512165 0.4015281522567536 0.21660927069074953
Ni 2.709027229871763 0.8267045409193494 0.9298977247550325 -0.16027048688970463 -0.05133336016665353 0.40283118733889334
Ni 4.998375213690779 1.0564768550743837 1.776018995490662 0.3776174070774271 0.38780848867781603 -1.0785950025506135
Ni 5.607062144782517 8.440647963619968 3.335521275757049 -0.6422073194125133 -0.2419716607149381 0.013381820623544694
P 0.8392101532281835 8.61941013117025 1.0364271512909506 0.3274032481168813 -0.18473581902092057 0.5842268862429874
Ni 3.2999319228760844 9.247408757096819 3.2976690639774993 0.9387881828318992 0.15362572787967735 0.09009942519125774
P 3.279975276400777 6.76692474782524 7.061272384303214 0.03092857125805641 -0.21295084800255584 1.4530607513729363
Ni 6.083183872971798 7.3926384022255505 5.540552888897635 1.6119209881786758 0.3510985348512921 -1.063867980753084
P 1.0437252397826824 4.532471362205615 8.766953875243024 -0.060413725201366925 -0.7190516793660778 -0.848761776970422
P 7.2285811320781255 5.451122051710229 6.028872495327294 1.4414925869193624 0.39881126754622287 -1.4720149238779359
P 1.1341566733723136 3.6104761377653887 12.650749461928402 0.15886692167395863 -0.5444400932633526 0.8705539331448491
Ni 1.0299509154610829 3.2483357916379862 4.876024202054493 -0.5718567947134087 0.5571827376410017 -0.17075158892668657
Ni 5.87814453286954 3.9981749960453783 12.563932521603897 0.12155610103864226 -0.12555313801317733 0.9049357530588287
Ni 7.244658855115711 2.4890895068745045 7.0395080305155995 -0.4790289148473944 -0.437223291665518 1.4561990398916018
Ni 2.3220101776117055 5.819444719991339 10.066707410464529 1.0393831082378422 -2.3928259534061245 1.2929442735625924
Ni 6.967173018598245 6.145781036477447 0.35301612313363706 -0.9188402789550626 -0.07430539558179461 0.33734390426936095
Ni 5.796981975713038 8.220949794089172 1.0420769276615223 -0.7779857346981247 -1.665469867939409 -0.6469337783539052
Ni 3.754668897386146 4.332499499278528 11.54000084766743 -1.112159211659304 -0.08325669123781144 0.4361657969352811
Ni 1.0962150897225835 0.08345121412070573 12.447543627204071 0.34090359659616126 -0.22546826374327622 1.2655645959980593
Ni 7.016779013345731 0.667647488704588 4.257546905060326 0.8193445001505696 0.5708440371781782 1.5874155468381435
Ni 2.628951876909207 3.949978681312076 6.7634023905087535 -1.2108870019495213 0.8063236624108694 0.7743242266861375
Ni 0.14778145482026406 4.7425873930779066 6.627392224486667 -0.8619823894257541 0.25701595664257026 0.597758602180835
Ni 8.775847758365192 7.184834983664108 4.7681975013617315 -0.21691343219472967 -0.7927266404527251 0.12556882174246117
Ni 1.0008820236653329 7.06867919321434 11.778983071248465 -0.7657105168751974 0.30908079565860963 -0.5228348562887511
Ni 4.063812645856131 8.729835065614644 12.853240321691292 -0.3994908101117507 0.47228799657913495 0.15802257139579237
Ni 3.2590604160596195 3.716856304064511 0.5099282504640716 0.7993181776273137 -1.8746465936115133 -0.38120563864931767
Ni 1.9959686961612433 7.341143620530954 3.506633395491798 -1.2503729758592852 -0.6317629841507377 -0.08308339888474078
Ni 8.72305385979478 2.1190991779230197 3.3239646637192015 -0.11343295771087561 1.0999917230588345 -0.5828420900803188
Ni 3.2985867380259486 7.6093790078050185 1.316106744745522 -1.8085229625095627 1.8258190305858493 1.2731439510072138
Ni 2.1756061552236012 5.60625134843449 13.253232879598245 -0.779310109936503 -0.6187598870228505 0.26156732345867856
Ni 4.2502958059024 7.011490409893826 9.980727064553669 -0.08259617483567712 0.5123136450424531 -0.4730367018197014
Ni 3.2061098863765207 2.514445319940084 5.122962364800545 1.1331707809139646 -1.3540462830802356 -0.11650002667197357
Ni 0.3113163141389032 0.46150435993763 10.327710125770395 1.043857599069428 -0.1408432314030284 -0.21518462242908099
Ni 1.727456901041261 5.958652924790701 5.6047956004459865 -0.41827734669063443 3.010342454940177 2.294865380299235
Ni 6.696892213264385 5.066933573073403 3.8575810665784784 -0.5564474021368739 1.851774574109346 -0.8536157626286137
Ni 4.836575274285021 3.2945327562858115 7.0792213884576665 0.7490325419988841 -0.43724488893207275 0.7506507943285975
P 7.0813294589625375 0.28986153713871826 6.53756796679857 0.31414149801096863 -1.1364643640635717 0.8452907877026862
Ni 4.043376892447898 0.0490927975135642 8.584973399006765 -1.738317962249387 0.622765665748134 1.2448564169164305
P 1.4306225153095085 0.21009944640153652 4.739528479583076 1.946105263773132 -0.23869350418429863 0.8811016267537083
Ni 2.9986473708250454 4.7943125146441 4.388944745493521 1.3385913819777462 -2.574383117588747 -1.1341619411826402
P 6.067658965626048 3.4119139548524857 8.990885691613803 -0.2975069747780812 -0.7780780373016148 0.2236587213383632
P 7.902297615719595 6.348710463355861 11.02182550844064 -0.20565071479671682 -0.2423223591861375 0.32131513294127245
P 4.648774570173207 1.9130371287908643 12.959273135464043 0.2936791163915587 0.21121612469963622 0.1209611477671207
Ni 7.598811014496072 8.533557854228 11.188041523864689 0.30102912899872675 0.5825158170891517 -0.7749739444549943
