# total energy = -340865.06593767944 ev
CRYSTAL
PRIMVEC
9.29846375973253 0.00000000000000 0.00000000000000

0.00000000000000 9.29846375973253 0.00000000000000

0.00000000000000 0.00000000000000 13.60924161549086

PRIMCOORD
 96 1
Ni 4.716013454557578 2.559736898887061 0.5209520120975528 1.5004204716038223 0.6122120586020037 -0.09639014329597592
Ni 2.462642340143868 0.4714934832759626 13.099929614907518 0.5468890690244775 1.1423727591282067 2.1372467292100805
Ni 2.034643351023925 2.267783733265649 3.9107376663663653 0.7209684367728164 2.856521580330558 -0.49659160632150606
Ni 7.163238941761759 0.4913791779061286 10.532627485892755 -0.09916667759984857 -0.5144823705589978 0.6929513827346001
Ni 6.626689686527275 3.018374326147094 6.8769271541129084 -0.29892956615722066 2.8769389676446453 1.7525058237139948
Ni 1.8686564741684624 2.9831517453657095 12.59963971916538 -1.7099900618389712 -0.6952802879780929 0.83444536034775
Ni 2.053602918662057 4.88794204976555 3.0187202289995407 -0.2249969805338125 -0.872651439103826 1.3522825063115935
Ni 7.50516205171241 6.592127296673947 7.995687630643952 -1.6706781516132259 -1.0166033913391652 0.6727957337223316
Ni 6.520501230211696 5.376408948817209 4.143931979697987 -0.4392480354050306 0.2645832274668669 0.19242161770095248
Ni 9.201387813629026 5.92104786753633 1.4412590956547908 0.9272171901648483 1.230549513375455 0.7360158180242421
Ni 6.3847901514090815 7.432420169597107 5.715622486423696 -2.401221633668987 0.2962512479941092 -0.23023123234955833
Ni 4.483449577069932 6.649015298052117 10.936590875999553 -1.4337952182751048 -0.5165297400063298 1.4739458223520616
Ni 4.69659826219445 9.358066928245268 10.443704417115422 -0.8288850926511533 -0.6642897531338494 -0.12179161408821607
Ni 4.527859040061455 5.172242579699771 5.8388819923846125 -0.2644024789146285 -0.5145281361952686 -0.2201409379930918
Ni 7.5094021511940126 3.067581796446747 4.863330875844703 -0.4996039107852686 -1.8852220551345145 -2.2421564799412934
Ni -0.040505967898592066 7.918711228125312 8.738113242484179 0.5291114333260823 -0.617069386694305 -0.5681186678272151
Ni 6.020513534542261 1.744456893519848 8.647379762809768 0.02566320909405903 -0.07993816838753975 0.34631654008161644
Ni 1.7407189110821193 2.167657875331661 8.194464610157144 0.5650587979549687 -1.6925798367823237 3.5901174760593975
Ni 1.7941106900807224 0.6828140904222283 10.962597749333092 0.5531065106890991 0.4776978547407967 -0.5959763134694316
Ni 0.7756945853823901 6.36676972861227 4.010085242882349 -1.6493130556738884 3.2169136246686336 -0.09248977980030522
Ni 2.060902212725781 6.208584262864405 12.080134548031287 -1.1340022756763244 0.9438967077030582 -0.08030969279434556
Ni 2.8958391705142836 4.776592946054599 10.465901709840164 -0.031005447242578865 -0.35867814697076295 -0.4832946321022838
Ni 7.6061805621688405 1.8308582189212796 12.892592469642654 0.229198934430302 2.0466122574509593 -3.0106219338538085
Ni 5.718276267985208 8.781701651124331 3.61080362928649 1.1963245307543138 0.8558713914320099 1.3841978669629516
P 3.856379776981494 3.7414414662532223 4.124606982433481 -1.1681627236081171 0.2626070775771026 -1.205104333829473
P 1.0527069794094173 6.447006172530582 10.110618567136953 -0.020452097206764778 0.3035212992929611 -0.7307766811124898
P 9.138585989289673 6.798618281735247 13.123881527746686 0.34145741221710224 -0.033449023687064976 -0.5282745392470838
P 3.4769652610882495 4.165181758964011 13.063660956951395 1.2313555542165182 0.335778359554454 -0.6424600588532678
P 9.466858954417972 1.8409749475089636 5.073158149708632 -0.09285616200078846 0.646223639660758 0.9122657110613385
P 2.7839507559043586 6.786827829667982 2.458128865827267 0.8434341941099216 1.0996947606437062 1.269241273518698
P 0.7626823151750327 4.450021599797208 7.78689527579823 -0.8527207616181701 -0.874280747177133 -0.42168200149680923
P 6.785553940130747 1.2626197991400805 3.280616110466827 0.5639491098305578 1.2346748483977381 1.6906283694829078
Ni 6.615364157648783 5.726616989991782 12.583036382247947 0.5818241903387658 -1.1602288134730212 0.13018369480665323
Ni 8.902191144726542 2.0237176560877774 2.9850644393643186 -0.8432655297425412 -0.11800103669753226 0.2891629736887601
Ni 3.977408581482681 2.2606332146223322 11.826485474086443 -0.9261676658544115 -0.6488795892263663 1.798700319992186
Ni 0.04138002349348386 1.384225108395346 0.8386228688290894 1.9692418497905957 0.3189178363536895 -0.7946817072965668
Ni 2.355477545131868 5.639843726039333 0.7091092161328084 -1.1979319844507497 -1.4258556517130538 -0.11048981592215165
Ni 2.986973413977417 4.408438869793419 7.939427275570624 -0.1114876610590467 0.5278842457872005 -0.062021178897802856
Ni 1.8018284150143415 3.019629618756779 6.2490911606093755 -0.6856455931018062 0.11992473608280639 -2.3976238890154
Ni 6.887483700037172 0.6888450740269817 6.464879679599742 -0.06041938162832176 0.6868630104486751 -2.710598877522093
Ni 9.038934353008232 3.1273616200590806 11.16933607353082 0.8825594422461573 -1.3720614887107339 -0.30942686614411874
Ni 1.7521467230621406 7.983075194378939 0.9659392945352329 -1.143768868144785 0.4069189842550218 0.2899484457045329
Ni 4.653481285667713 5.131636188392404 0.9300295572808431 0.21337739401701317 -0.14883961934494366 0.09693316028363952
Ni 5.219246314084643 4.768828728802104 8.747816189433856 0.32901918645374945 0.36378307229749607 -0.9872632476141513
Ni 3.811598375438952 7.465299537507079 6.666827435260359 -0.5434175655361093 -0.000958250148211253 1.4394989535281013
Ni 5.298422733132555 4.225724056605932 11.084455046956672 -0.29531922309814296 -0.5760986007088982 1.1385150759450136
Ni 0.22911693696608926 0.33391806248637107 6.64588264560617 -0.5687406176819302 -0.2896250009268431 0.4211888639104746
Ni 8.62914175596061 4.468544139637894 3.2400338951652765 0.29183229299080704 0.10745462864025365 0.11802623350851285
Ni 3.080274199500229 3.3404452159371707 1.8584374624792486 -0.0817543956606721 -1.582305479305088 -0.33626481227256927
Ni 8.870064952382382 8.750849348317406 2.250805668258065 -0.2800013617941501 -0.720623908949204 -0.6025529382456849
Ni 2.690891730439708 0.7149467916910325 6.036488295308475 -0.462094600985901 -0.3871942521325848 -1.738628037290638
Ni 2.49813457637474 8.530810501535283 9.149710671350615 -0.9735505260137491 -1.3975940857641995 0.8482311012779328
Ni 3.7824848853580346 7.3034690739592385 13.404191157028485 1.3556293112966395 0.9924743595014457 0.4470083960767398
Ni 5.329423811359887 0.5144654037678026 13.221215057008909 -0.2738685094235348 0.5215112523813211 -2.1290737064809853
Ni 7.854207784915052 3.8011097083002507 9.115742453332537 0.051710026779781905 0.6085325528678874 0.28645045985360346
Ni 4.0438554036220085 1.0600341688644677 3.695004008312274 -0.657706443489377 0.5987587613105753 0.43077933581238714
P 5.729759870747882 1.9454431880260843 10.812365259652365 0.7270830343109864 1.563628728831191 0.22752900292704684
P 6.653218203678618 5.31170093940389 6.373112210753501 0.7050227120768374 -0.32691988072255956 0.5515671912264373
P 1.241930717239716 7.886575737317375 5.896952758355019 1.4724656382621093 -0.9239408334064217 -0.670081163004646
P 6.833441028574287 5.370801975160616 10.093661888596055 0.8566224106654216 0.8192622248494085 0.7731654304913459
P 4.102491516189963 6.933966720450619 8.924586494729702 -0.17807897582603524 0.07794042123122061 -2.1818867365169585
P 3.037891801611752 8.38039855150369 11.64212111342519 0.858139104420264 -1.7569952269439162 -0.6150862948260053
P 0.6966027823548352 3.6546217099818956 1.6434383830634172 0.4787144689307691 -0.4399237213158166 0.8230492026956664
P 3.8896682772975857 2.7312377647613624 7.150336393426952 0.572241174636021 -1.0992119074700166 0.7276913573189467
Ni 7.997087979288534 8.957665779610846 13.42166576000168 0.1855043217558289 -2.4853059630144165 0.4282843373046753
Ni 1.817291760272906 6.41559596189713 7.8961773310118994 -0.7782847539957821 0.8539037261826778 0.058720139549027904
Ni 6.266374215228794 3.439427362826779 2.541403117861017 -0.24177394288183524 -0.9562192338241532 -0.12385620992672865
Ni 8.75367608130514 5.442651204753476 11.303278584523344 0.22917785138437952 -0.16505068188716737 -0.5680214801277186
Ni 5.022425731349807 6.997391541862927 2.7162551500799887 -0.7077370256842069 -1.729886800762898 -2.1360020581697023
Ni 6.803983495333679 5.573015666885211 1.5238815253778821 0.4843212735945852 0.3531369054375596 -0.6000995916091859
Ni 6.376356444764753 7.467921704291754 10.034475306972594 0.432948575549564 0.15155264740073254 -1.2675479449766751
Ni -0.060231728951820385 0.6779398357111402 9.583981474287095 0.21866203945472018 1.88111806026847 -1.6667345935844455
Ni 4.208772957143296 0.3203999558496296 1.5226160044580441 0.5897244190224489 -1.0189145559708452 0.20320868101412748
Ni 8.391751975773508 7.729933816556233 11.120260641416778 0.6888000795703879 0.17037620786513885 0.6482828361826318
Ni 1.829249584688128 5.1980830105317315 5.565309100108123 1.9707048074893674 0.9177653007233291 0.929160172823832
Ni 5.563391756877626 8.575489619976294 8.033725786256541 -0.235159265778795 -1.6884334187141181 -0.31788039622811065
Ni 3.5158607350609343 7.934016499499694 4.453733546536365 -0.9414374475292883 -0.11834247919735101 -1.0368089197527628
Ni 8.055891464204446 8.802567403836429 4.524228919803521 0.09780682113784445 0.3612597916550101 -0.5666742220712048
Ni 5.056058274825589 2.4593320870398094 5.355631531510978 -0.05487351210942808 -0.5289445687309149 -0.269202214296117
Ni 3.7438497683710623 0.5699260909564423 7.975763812312307 0.809577907682109 1.8376826147926546 0.5446067007482039
Ni 6.806959003741821 1.255897009830434 1.229034677829552 -0.20773793634304868 -0.11350417726844324 1.549372476022493
Ni 8.8040551580405 2.427029223883915 7.643235870160366 0.14155876941281428 -0.515944299816505 -1.2261418712260626
Ni 3.9388292552783613 2.686409870899944 9.587656227171152 0.5339649047636418 -0.18885524050593283 -2.5730697980939623
Ni 8.924070429990165 4.503748123491727 5.834948742207599 -0.3078893464536697 0.4318584278091789 0.9360594710468266
Ni 0.12247657531102453 4.341071499740322 13.348529623022298 -1.2939359480519006 -0.3069637493156068 -0.6701554678860071
Ni 5.900321591780863 7.8905647782770405 12.314009508911273 0.8614640550284389 0.016090477803959388 -0.8328543617115463
Ni 1.2195214195408945 0.2605131999038782 3.8653648825277056 -0.07314454250447402 -2.814244931049534 0.13693438326692545
Ni 8.543335532240807 7.005797353115929 6.026893210538594 2.2292528845057475 -0.4060831186172877 -0.25245096297970715
P 6.087769323030053 8.0167542301736 0.8133180295105943 -0.704586138760051 -0.23497903144718887 0.7902856351114002
P 2.061236957421697 2.714853871589029 10.515642911960528 -1.533853040230655 1.1670563779178158 -1.15870337796743
P 6.9040535624850135 3.721700827657953 0.214620631940171 -0.8129897615771353 0.21642929346945952 0.40975413971097174
P 7.8106723775184195 6.732208653451021 3.004117921486582 1.2408033298929793 1.1938030498840408 1.4204637912735214
P 9.136475238012647 0.40796823845487973 11.706846789919684 -0.7531447643950449 1.1369929828735321 1.2627872903632382
P 2.2046006719115026 0.8089431023042476 1.7056739309588456 -1.5520579932744563 0.4255779941171058 1.1866165594379305
P 4.897221916613443 0.08942518582120645 5.780920018440378 -0.6713952538303791 -0.811471525160396 -0.548467726365507
P 7.463198084693827 0.066590948327847 8.251990486150309 3.138740775711633 -0.7373965004218526 2.847216243769232
