# total energy = -340858.0072219821 ev
CRYSTAL
PRIMVEC
9.32258891048665 0.00000000000000 0.00000000000000

0.00000000000000 9.32258891048665 0.00000000000000

0.00000000000000 0.00000000000000 13.64455121222838

PRIMCOORD
 96 1
Ni 5.738995089057295 2.372058181273124 10.652246521889689 -0.5885460824436316 -0.28458255340692923 0.5390618596705748
Ni 0.37636690037520504 6.393841705681783 6.537500004846089 -0.21438140980149528 0.9867171453026942 1.9336734657676826
Ni 8.325957591137158 6.385908182473101 10.639734675240602 -1.5526295495072098 1.8689654840663361 1.98041149325417
Ni 7.08479470936529 5.467278911101665 0.6562515307814194 0.3792893954632113 0.7364541911132413 1.944826911281341
Ni 7.163421424690816 6.927168375155664 8.289146416352432 -0.04092424901818758 1.317176663747396 -0.8989317129565938
Ni 4.211199886986801 1.5275341695794922 3.6261347132784407 -1.0276156832892689 -0.12748197960477398 -0.7119649477226254
Ni 2.468733428833677 2.986435439203267 4.894723719524598 1.5072637197779009 -0.8845471621001476 1.680381752054235
Ni 5.213741781626562 3.202598309520195 5.297237685168182 -0.3669959228078389 -1.6166569602017642 -0.13572905010491462
Ni 7.140851436808068 0.23159175505296664 5.925459919969316 -1.33000929673569 -2.308330504665205 2.4665759907050813
Ni 6.182703710816653 0.5896173938996633 8.50601314213617 0.2549045667265223 0.6646893025651134 -1.361360557353462
Ni 0.6931969508472315 2.4288047802992656 8.864687633174787 0.027380706005798002 -0.18225007648458935 -0.37837793939253545
Ni 3.4621578314662824 8.895558454271415 1.4368943661144744 1.5037626486031779 1.768374158204819 -0.34988497415916514
Ni 7.813448262820724 2.6555301439128294 12.657190472334747 -0.5745554245914943 -0.8737518712568565 0.01644323315768781
Ni 4.178682696679066 6.012146945713439 10.93760910557137 -0.7880688299657396 -1.6819182433034197 1.7131936563779333
Ni 6.909539359424032 6.7322889754443995 2.912456966735377 4.616237805750063 -1.2644693060513514 0.1992720649638826
Ni 9.121444784878184 8.275056255391677 9.360558004707608 -0.3213518997164788 -0.6641758532638046 -1.6260047199652512
Ni 9.229428332852523 5.296768758943274 12.701808383118241 0.2859866328433075 -0.6248955676069432 0.016912459484622486
Ni 8.804383534199841 1.1301774601510002 7.112563905113469 0.6348858460504356 1.2688064999741246 0.03335414998041353
Ni 0.845143031600866 3.6887713240122735 3.634198752732624 -3.0928033897495704 1.9229882181396944 0.7085476945109603
Ni 8.84270869743238 0.9188492844709958 3.0307550271398984 1.904879424354126 -1.6243281035937769 1.236272017681529
Ni 8.503245265472648 3.953271818109479 10.901177360157495 -0.9326563589025485 2.1647909573769364 -0.8473412424738117
Ni 7.099440496628321 1.6530814751627103 4.445503583169503 0.10423946413706563 1.8496179327776596 -1.2045348344792481
Ni 1.1264670697431796 8.956034088883305 1.1009968244336146 -1.0095338860868937 -0.055809650770452274 0.6161605017267905
Ni 8.347306319865572 5.1016190041520435 8.752611468645089 -0.47171798300827794 -1.3317355353981772 -2.204788580815796
P 7.460066205537181 0.4048063902699228 13.250346721005288 0.6757388755110556 0.01017822608458247 0.8923147218607083
P 0.3261889975333611 1.8083025814195293 1.3157342708978905 -0.7195275905612318 1.5990233062804011 2.3587475236651767
P 7.827292307432819 4.268123615203265 3.3687986288003566 -2.57520844170352 -1.8993402397034513 -0.3424442016104038
P 4.32847805615862 3.691568100701586 11.964033608620063 1.0026227607893572 -1.2451608355307267 -1.740097679857629
P 8.694759210567772 8.26653540907824 7.220300404480253 -0.3168020755622673 0.2733257495461874 -0.379606669593314
P 7.58693731875334 8.589954665430286 3.762143828197479 -1.2560833959805013 0.5987096532401948 0.4875750046451925
P 5.123527088218321 1.3117628479990675 6.61815345101247 0.2594973283035273 0.10984704013183018 -0.7573850277286376
P 2.042691113161808 -0.28154125446518347 3.1410440513651263 0.11412021358588734 0.7178481459762799 0.3977177773717279
Ni 3.767323458626085 4.5566950340064825 6.62314662966179 1.2878187794105693 -0.18323712298820702 -0.9726830358071312
Ni 4.558037486817352 8.447841119257376 6.849687406013858 0.8836452191111686 -0.3784597004730643 0.21759348898088976
Ni 4.555958549478297 3.193042655831712 8.617898193592099 -0.3756050046330886 -0.3372983957434062 -0.10042214727350447
Ni 2.7758474770870336 7.512375252216281 4.406780345388185 0.25351797079164085 2.5961693602259026 -0.3906487863400885
Ni 4.018921489596597 4.8319165054127176 0.061665196963745 -0.9285863025982329 0.3196356883563205 0.04461712448874251
Ni 2.082461277683825 2.6672206704741535 2.2627573514781196 2.5804082407369044 -1.733243633050273 -0.6900342090878051
Ni 7.837892091085311 7.963439396668529 0.9901810739318998 0.0972856585270518 0.4750804717226077 0.14855088445993125
Ni 8.67004502722322 5.485457959582193 4.886618660678971 0.13990657852137198 -2.3055609123398684 -1.4155157032396266
Ni 0.0879576946199676 8.23217234615556 12.661147911350126 1.0088564004038947 -0.6826088631580115 0.8274293340412331
Ni 3.5221393688630616 8.403139305173205 10.953805239379177 0.6045244601497589 1.7549560850267 0.5497705043373305
Ni 2.8629670709591037 1.8867055546099103 10.401405485143083 1.7567756547339421 -0.23530376177645926 1.6941106716045533
Ni 9.035313385436337 5.6302191210209855 2.4063121699049215 1.1038445211460215 0.7143918119965632 -0.8683319857928659
Ni 3.422341053999443 0.891741992539287 8.612358711229469 1.0987028290440821 -0.4725803310085732 -2.2569146120870744
Ni 3.166426664338426 1.8866589416650885 13.074945938676185 -0.02740847391993989 0.7967301051851634 -0.4597075888109632
Ni 2.608031553139346 6.914359137918614 1.378918117603932 -1.2706399536384374 -2.226772027065423 1.339892360177357
Ni 8.641051775544017 3.8143838877182423 0.9565675471619547 -1.0868235611079928 -2.3070850622938783 0.7662728171365706
Ni 1.5744174694813267 7.3093199419832615 10.657499800771115 -0.4161227622414769 -0.3384682476817913 -0.9266638887645396
Ni 6.140341866562539 7.484370194967303 12.404698405082554 2.641875089793134 -1.0603142019635545 -0.8664689644421981
Ni 2.310230771261399 4.017896004810516 9.744447302118166 0.5635194784923069 1.065450237638539 1.7930266666461767
Ni 1.983716415373181 6.433005901921117 12.749673351638023 0.566191111787199 1.5011681484031243 0.0955049124775452
Ni 4.138120112095077 7.1724923037531525 13.102944470112888 -1.3949443068461784 1.1890549936760941 0.9681388680798745
Ni 3.466343673911286 5.872643724450554 8.654083822657315 0.2975645674888939 -0.8749674888315125 0.5509539831224705
Ni 7.234040036095946 1.5568350666945183 1.6740498422613792 1.5576015488005044 0.2860033450138558 -3.7548861079297726
Ni 0.2320317812520851 7.662096030984119 3.3553181651578723 0.4219550526525378 0.03971017410542839 -0.06462853461366289
P 5.28260774630639 6.325423225272247 7.141504018035574 -1.1153116412453568 1.7588600480667964 -0.7360921797881322
P 5.536704231119355 6.922320628894188 1.067586530103093 -0.3312033385892619 1.5264099536890487 -0.4162415472075283
P 2.2553207222612386 9.245575056938817 12.87423432730881 0.13263447033999093 -0.9735731517215683 -1.2667053944707216
P 0.11579121623200113 1.7336939019376478 4.971528800966485 0.09806033190954724 0.806982636151107 0.9004193532457139
P 1.5346473049593092 5.830757332233624 4.586875051260849 -1.1784481646945253 -0.6049954862489064 0.6024467516851237
P 2.156631795484381 4.546710541225639 12.039897108576548 0.006253437108879553 -1.6702199810298848 -0.5395364853141482
P 5.844722570502255 9.274857308875914 10.419620891720573 -1.2052506295993501 -0.8578154025322582 1.4078317043318078
P 8.441865339731214 4.113368638394665 6.9299716776572495 -0.07643915409534577 -0.5986356054691496 -1.224015311801363
Ni 7.407085932452647 7.201168587407564 5.537231889654738 -0.13880048994138675 1.5474886287362188 0.6628337374136132
Ni 5.751394132379912 9.357548672989907 2.141226217220754 -0.533779528225713 -1.6888813048848137 0.32467119389769894
Ni 1.7922584058118423 4.553292289034486 7.629800718293737 -3.3891502827812796 1.3489791529699733 -0.16030391123080134
Ni 2.977094205060965 0.46191563800677854 5.584796670809868 1.0441707594344727 0.935860210551827 0.17959258425708424
Ni 0.6739280917167679 0.41972905842519553 10.821493463243408 1.9772608634403301 0.5226741623411708 -0.1463487346022899
Ni 7.907028410845105 8.931953841588328 11.217213126049755 -2.604443427309237 0.6437065296658592 -0.8003070239031443
Ni 6.178611094261293 5.103558102656633 9.6442686256248 -0.8829466503822472 -0.29583755749545826 1.9824966579179728
Ni 3.7039391762573093 5.544908109408004 4.256404188616151 0.18182301624949976 -3.327493429201431 -0.29775380068156465
Ni 1.4552561373387043 4.319276660850782 0.7488770456958488 1.2272839552503059 0.980671967549879 -0.9623873103080779
Ni 5.076755659384059 7.342508358696431 9.378077946148355 0.9734893337585104 2.0381255601361867 -0.4670689142720407
Ni 1.485918132442529 -0.11031326295653528 7.601611073783265 -0.1504740696245731 -0.6645877439902425 0.3180158933647104
Ni 5.656042692452299 2.7687156965292874 -0.0671962889963078 -0.7759962150719216 0.42524169382360955 0.3736028866013953
Ni 1.056836652768274 2.673084578932744 11.337244255742755 0.30859331449922983 2.5096216569416456 -0.6705717294878193
Ni 0.8412284764947255 8.97405465335144 5.276347627816814 -1.089775187537149 0.11892971915938874 -0.07270514097421027
Ni 7.347467976025478 2.9576006715364596 8.921899429390251 -0.13505130731159967 -0.6972381830354121 -1.238369523640506
Ni 5.993716187330873 2.7776653819350865 2.8487230872804377 -1.1515330854712362 2.679293639650908 0.0458283711880243
Ni 4.983595027863075 7.106805341910176 3.2098671321357175 -4.62516853258079 1.4960845632326298 -0.05737365282346248
Ni 6.195718045010917 5.284192586430334 5.073248501415661 -0.7371494174080531 -0.1265450696128014 -0.7665800639643443
Ni 5.247694650634811 5.02131422281293 2.0551563468660716 -0.28716574075307316 -1.1211539589587465 1.4540094884394508
Ni 0.5646981135978929 1.6104585984175948 13.059868515544105 0.5791633556771509 -2.4884627634758436 -0.73289655566897
Ni 2.600191255820308 6.781456309642505 6.649153856095703 0.867132566168126 0.23614425539988362 -0.8878286610648968
Ni 6.188875264711067 4.572618015957633 7.430494953342189 1.4051778116487283 -1.9893342496650963 -1.0135445499081834
Ni 5.430417394336533 0.3887417049665144 12.552728066212255 -0.7983804963043928 0.7736187159786806 -0.1377190839517499
Ni 5.136168518854012 8.894682130908762 4.572766245122166 0.5745109445068042 0.5213503013234247 0.39913676920644164
P 2.338366344755878 2.6162074636611017 7.25716844705766 1.176157825998452 -1.897843086332635 -0.18610184613051176
P 3.0150184969680356 4.858448593605324 2.120049024129283 0.9392640940270532 -0.6716809033915979 0.8827887846481441
P 7.130288943511433 5.2345031872502235 12.364747382334627 -0.38365101486601666 -0.6712286463455278 -4.227461296732023
P 0.44766792529252647 6.618189809109432 0.6365659519242483 -0.5254992904947917 1.2511756742662388 0.7783814274746467
P 3.1246894335449262 7.961313846384652 8.378205108729093 -0.973498332619575 1.201831833725788 1.6661090441853048
P 4.324152374879151 1.6116985027498563 1.2326224580216043 0.940306933469271 0.24002893516627047 1.8154364017999445
P 0.6729650682767482 5.6073974232362 9.689186723772943 3.384477045675326 -0.2309971639813054 0.40964718181946225
P 8.432580041122698 1.937439083754031 10.429130864723131 -0.1819045202197125 -1.7770850557152555 0.2927193235814507
