# total energy = -340859.1157402901 ev
CRYSTAL
PRIMVEC
9.37046107069037 0.00000000000000 0.00000000000000

0.00000000000000 9.37046107069037 0.00000000000000

0.00000000000000 0.00000000000000 13.71461695767593

PRIMCOORD
 96 1
Ni 5.611566151415584 1.1796098509946484 6.934439106249317 3.6654328009629458 -0.5912660524779558 0.3491375544701794
Ni 9.057206469948186 3.7646482921536704 13.078601644783909 0.7588901515192543 0.4968638861462863 0.8004391786056343
Ni 7.306898063395509 1.5159250660467507 4.9114652779008665 0.4667066458366156 -0.3042370944130632 0.41479427323804047
Ni 7.95512781310642 2.907719635484457 10.764849293564328 -0.024663307074634946 -0.12308102232360092 0.20682416627952765
Ni 8.99344985343668 7.7827862947525634 2.9594502023735556 -2.232020419948556 -0.4606344715006067 2.1473719905695403
Ni 5.977313984407522 6.380946591143732 5.304882208076105 -1.4406322958015965 0.25591963825459796 2.330824057782031
Ni 2.7030781381307234 1.3621464308953186 1.1837525317941395 0.8203271757788131 0.5496344929800986 -0.7646594499028637
Ni 6.8601144838439705 3.0359731349249333 13.114423980066368 0.6946336555330295 -1.6594943670822646 -1.5339440572825649
Ni 8.132819864680158 1.7806593296686055 8.236587412532417 -0.8218412984304942 -0.17121207350287287 -1.0940969548409545
Ni 6.228264299927021 5.313163821490694 9.373392060721919 0.7452288519820779 -0.8839136422812067 0.7253989617403442
Ni 6.063381668513665 9.278817872137655 12.381267868396744 1.2977542933567263 -0.07495974133634187 0.010000562856137615
Ni 0.5839155907710629 8.911636358615695 1.4120431985705277 2.6659352160661314 -0.18423008302909563 -0.8418930748750467
Ni 2.47177767928739 9.425371881873101 3.1562954761914908 -0.826493452490525 -2.325024420381119 0.2318209454341814
Ni 1.149849266920494 7.20968890118352 5.005423827198711 -1.4480075052197448 0.042720421686661916 0.5742101254369336
Ni 4.785063381550143 1.7865439791643765 11.999521847372751 0.09754071196065137 0.756826069901374 -1.3992815007689516
Ni 7.308940823889263 6.159213372961516 3.570531696573265 0.9216705493150064 0.8919072020096446 -1.5490150926830741
Ni 2.244797002956079 5.4404334225282165 11.257149887328776 -0.8926646490009594 2.740712151967706 0.9816628707082384
Ni 0.45508580798028453 1.742990076526886 0.8514806706551349 -1.2492213787533455 1.1076896059237247 -0.22316429820044792
Ni 0.6226324614504052 6.258081106767059 0.8546029082538465 -0.08983948666165173 -0.6356713180662085 1.8039425422277318
Ni 6.313722904069429 7.809332810710397 9.516915663376261 0.9092696045474922 -1.2154800206368424 0.7183446259967241
Ni 8.679173962610777 4.092942392606441 8.272025558914674 0.4609718002353674 -0.31916260537464386 -1.1226832511190794
Ni 6.582776950203307 5.295950284669466 13.600209292311057 1.4325446336974554 1.2134015408412586 0.26104127575187946
Ni 3.259730372678942 3.56414853855333 11.76420614599926 0.014213572496220682 -0.46935282521021104 -0.35896996717956886
Ni 6.603916710175377 8.16948647849696 7.222336212368937 1.2370523474909791 0.5859523535745264 -1.8221901755840104
P 7.03677578470985 3.1838390091976527 6.7087384348879455 0.9846150113580268 -0.5790296583127641 -0.38024250340509996
P 1.6817166321752184 7.250881447653917 2.7745906851958133 1.0567455107756898 -0.017066211453667386 -0.36122739575517787
P 1.471265449013558 7.601683395381914 7.244087863443035 -0.22198364762878545 -2.118201025432539 0.497245437855421
P 1.2575158635867518 4.617313389076744 4.970903985992547 0.5492184884886024 0.3623255139153631 1.0905244069983477
P 8.438343744950247 4.959963035751683 10.066117444398865 -0.41808734216701543 1.0111788778894844 1.085914419030162
P 1.786768870227909 3.012706280310284 13.093907355749502 -0.7773794685726935 0.7892014009082859 2.0449456683818137
P 0.8241966994181339 2.2769939068851706 8.622036639735914 0.7543639815141265 3.2677638745512816 -2.488912706529068
P 5.836241694345685 6.2299322419815555 7.551268441214481 -0.6612913326271579 -0.30615796558485986 -0.29081053659451206
Ni 5.466764417883497 2.6874950615201065 4.9060201030250825 -0.572323192826866 1.3827904450924637 -0.07922957235628936
Ni 4.731108267224267 6.153253759777901 1.3340950189040124 0.3588619808467948 1.4290954988065903 0.004933175635559246
Ni 9.25616009748674 2.6479610866432624 3.576264544601152 0.5400121393989861 -0.029801913852780935 -0.43502602690388303
Ni 0.09468476002383526 2.398257042434173 6.20694743824242 0.2843128446853104 0.516496058554917 0.5769781751003741
Ni 2.7733659659456578 5.608792494965348 0.34386686955630896 0.217226078339142 -0.6776985703405877 -1.0819538917205171
Ni 4.534337957094176 9.077699668112599 10.505492737499198 -1.1326743008935203 -0.37793108166310396 0.09608263935788615
Ni 0.3891261960922554 5.268213720167106 3.0723211530683985 -0.47149198304040085 0.3508414245351635 0.7348040571043281
Ni 1.2024550348651737 1.239074796377074 12.156239059087675 -0.893037973179978 -0.7964267150121317 0.7172164259295519
Ni 7.943789555319982 0.17006074815119615 0.8105814196134278 -2.262658970770019 0.19568383339199202 -0.6834503852227003
Ni 3.6169136043346786 4.754703087973234 9.530095216745375 0.9340506681469138 -1.8645012776473953 -1.2264264923460169
Ni 6.707188560641767 7.81737266623169 1.6636382018054874 -0.9156186866939715 -0.5525645221427 0.7255987364559762
Ni 1.2203245039550394 5.905442548686878 9.03878320661437 -0.13259847489573295 0.12820934468910178 -0.3911658351858231
Ni 1.0156455247573832 3.3876465355241194 10.773037202369112 -0.41586668036661284 0.2439382975230057 -0.5167678241590649
Ni 3.256713084243213 6.3467725199477485 4.723520067922236 -0.03017343825958674 -0.0372650549990455 1.2193312760621322
Ni 3.6302290293880075 6.16000049168388 7.425244174441273 -0.09107335906875284 1.9663424167556136 0.06194301736169977
Ni 8.288172737276318 7.205172338990906 13.558105937033352 -1.1030590491302488 1.133847238155699 -1.0180956596139756
Ni 7.289094187532507 3.9517857683957796 4.018876394924158 0.6024302966248916 -1.2674911235968107 1.2121031337448094
Ni 2.7469693773635133 8.207455586390058 0.5873198792452885 -0.46802742153056814 -0.687102894373623 -0.3717498925530565
Ni 2.1384422708270954 9.257799928158333 8.509220037714758 1.7281093971475012 -0.6038994249712503 0.867680725362112
Ni 9.29544106991711 5.803857381196983 11.754674513089869 -0.08243573799841286 0.5478342065465662 0.6827348472129144
Ni 8.6931172085498 6.746338346618409 7.436038008444743 0.41202468091270333 0.6737994923964977 -0.2707335633389789
Ni 2.75917908802114 1.4937639258278037 10.39448650853948 1.3315884682973518 0.5180101812065983 -0.5879133339556392
Ni 3.7868937665214424 1.9111523692834274 6.430015947114361 -4.217221878392202 -0.45944327940598295 0.26259679316445744
Ni 1.725017532366235 8.474410649264296 11.140698483493274 1.6615059981956544 -0.9606050215966746 -0.312912510699874
P 8.313772836675119 0.6371388720943594 2.8686448131956586 0.9874637936607316 0.5271206281482986 0.08943170970027178
P 3.7563273228029623 0.009932688639358844 12.699008018647143 -0.08766767582131355 0.22344660532755709 0.08073803858101579
P 7.770398545336306 7.710305779068185 5.229877290203572 1.3716290291590054 -0.14411701705829374 0.09740727170658063
P 1.567134635305332 1.6988364643866418 4.708817814643789 -0.8840018311196388 -0.8296173428314874 0.7358116724332361
P 8.384454223851234 1.3078446095131633 12.854970908253138 -0.14895711875941442 0.7484784692676271 -1.9545590509674402
P 1.431328544314551 7.102434604800404 12.793954214532338 0.24152403165455827 -0.3188638431873025 -0.40491609489238006
P 3.2052224011552157 6.8717151145378645 9.745031102532316 -1.628897211021698 1.5941718917253704 -1.185409426503707
P 3.8065061413536854 2.6734393700493158 8.631925287208665 -0.8006178702753437 -0.274166757390244 -0.48173011582864134
Ni 4.5009416341595765 9.140931538809197 1.7235154474710563 0.04161896109236703 -0.677393380395343 0.059467045017381454
Ni 1.603126575931537 3.761677856022844 1.6975133552961914 -0.21782026027971516 -1.1921871115471727 -2.2850635637174643
Ni 4.857665713227267 3.8588963886958134 0.12196966830693438 -2.642080520935721 0.5933597017821911 1.4778852666157836
Ni 2.5698301829876264 4.213765116489359 7.208978620241195 -4.133424741269887 -0.8604870358271502 4.173000189569665
Ni 2.858252971968254 4.586428349684927 3.342800446317414 0.03503847966137191 -0.6006706336213075 -0.914352161276722
Ni 3.5554433803024206 3.895488038824772 5.53805863320774 1.1198555518622972 1.4163790796811864 -5.21375986644006
Ni 4.629897918173592 6.281797743508773 11.057423196759329 1.4389237977509217 -0.22256060317817797 1.8643380125966538
Ni 9.248570024092514 0.3621467648371215 4.8202485254859235 0.47442432619584746 -1.6534962405173008 -1.8698777114679601
Ni 1.9203073096614025 0.06420920977686662 6.3082299398426445 0.6152547020830694 2.7051584232328123 -2.591789485990652
Ni 7.034967285740609 0.774894956015188 9.915599729668656 -1.0332713389131496 -1.0115457743106 1.021595445237118
Ni 5.087504380157639 4.062357207966001 7.254922927474818 1.0606242770048058 0.2200488924999178 0.9271300297676807
Ni 5.783129921508056 2.796595338716385 9.446326106717756 -0.0794440023599406 0.3464543512110614 0.47567619632507757
Ni 3.7145069554468693 8.413943064556955 5.822211303119541 2.773779881055952 -0.5958053351092062 -0.3357066257762541
Ni 7.330371068151729 2.5488590913132065 1.6880088967236426 1.4365480984298937 0.24801323892332772 -0.6137817170819687
Ni 6.954793621591218 6.5304148142441205 11.451677846146227 0.620764319047389 0.13757510217471788 0.45023153099972785
Ni 6.243285148878806 0.9515890534944994 2.6940169023625535 -1.6474294654979305 -1.3183514007817876 1.4269578836382972
Ni 4.662628938378574 7.575764700309776 3.4363073393959973 0.9377669406562366 0.6251089691693299 -0.14845549653264756
Ni 5.235791925174482 1.6173321947780162 0.546236967168363 0.07388579154587274 -0.5245693224813547 0.935630353929208
Ni 3.365757138673608 1.9802970008587375 3.866643885834513 2.3311009655925012 1.6839021065026676 -0.9598642867759082
Ni 0.6031681399016541 0.8217688129780794 9.874648004045458 -2.74252760790989 -1.8064002597396052 1.6355530257753188
Ni 8.624759695696856 4.748715363406677 5.911260667909688 0.02270515490699961 0.2610438468550408 -0.41745999299566167
Ni 6.036151108904252 4.452374534897505 2.2513638220112324 -0.9342825816520619 -0.0706945383020847 -1.4445838242501765
Ni 8.709206290053366 8.700304352121867 11.3418785325608 -0.8293625465082038 -0.10919063749475388 0.28612315842117175
Ni 9.260067579715619 9.321687731123566 6.9969232141596684 -2.778504026004499 -0.9143891851622445 2.7989185851051084
P 4.97643630615545 0.5085883290408008 4.514865202130542 -0.15043498885652157 -0.621358243877646 0.2660574980195482
P 5.099058158546629 9.169492703877843 8.397363907944108 -0.9408005852762377 0.7761561376885536 0.6830631770866107
P 4.878187022774623 5.058071762217803 3.9612199485109745 0.9936820066563017 0.06874178545108806 0.24227685066018276
P 8.297121527512722 4.449019909866475 1.6446976890255476 0.39712513809305156 0.8644215949948661 -0.3887837081068918
P 5.268925875201626 4.085895805949085 11.82492111087649 2.1636244478726607 0.7961418367818612 -2.1604594198811182
P 5.967493741299929 7.462485197516182 13.346776741677814 0.2951047930944918 -1.8373581415737004 0.7746484427947756
P 4.028361175528648 3.0836500403938554 1.9547165794279961 -0.7898819719150784 -0.38621029095276066 0.26248700705947053
P 8.463475321300022 8.631703207283426 9.033474840468903 -0.6738889667865103 -0.27236955628050513 0.37619481569828755
