# total energy = -340868.59314229136 ev
CRYSTAL
PRIMVEC
9.24519626539668 0.00000000000000 0.00000000000000

0.00000000000000 9.24519626539668 0.00000000000000

0.00000000000000 0.00000000000000 13.53127925317049

PRIMCOORD
 96 1
Ni 3.597305868063464 6.915924539810031 0.646724591970469 0.1274351855272386 -0.6214626306659943 -1.2795354563558545
Ni 3.0347634107155907 7.849975964010287 2.6039455852813163 -0.5041876735012091 0.282890510416487 2.6246396997514543
Ni 0.8165190930783929 0.9462735736671801 5.692257172783912 -0.3970891426487935 0.10387745281195658 0.9264458592164624
Ni 5.2539895681965 0.3326883877210583 10.787270968545858 0.4208106546354494 1.8724914949417235 0.39025000823977307
Ni 0.67088321433962 5.8020448029916745 5.186119657870002 0.7457209611271479 -0.3236779767464942 1.9084563430721069
Ni 8.384505476664684 8.74368135169492 12.529978446398168 1.42385224812978 0.5329272075277468 -0.8047573463650141
Ni 2.724679527870953 4.4935721751144655 8.939128498888982 0.46794874577383283 2.221277836720071 -1.7666517761970737
Ni 4.228013157498801 6.392452281892731 11.89891983950463 0.4831043704683487 0.8644311080765629 -1.2320183846114974
Ni 4.109628419280984 2.508702497843118 6.2389755521986645 -2.5774499294395286 1.4568302457176974 0.40337343299560857
Ni 6.4319200247628485 3.8076155927787245 3.7538741913897082 -1.0090253218815914 -0.5915943823516521 -0.2581027619488458
Ni 5.015019735048969 2.7408401309482464 12.369497556011106 -0.10910784797296048 -0.38291696491346955 -0.02092492307812525
Ni 8.737228204699525 5.47939669841818 0.8157600624647511 0.47295108408443065 -0.17546107858721394 1.4355667083532309
Ni 0.8035591769492452 9.156645778615145 10.313107964926466 0.5882007832890709 -0.8105032477098557 -1.0783011254592785
Ni 3.635164946782868 0.5257475007189716 8.97194154948505 0.1404269698012162 0.5007537081189957 -1.2995702635195423
Ni 7.449002556650275 9.228388501658507 5.622638995843045 0.41293613698337917 -0.561468252390233 0.4902306971004848
Ni 9.235886355832239 7.084926727597747 9.587330473223153 0.6832346696674685 -0.6789095599295534 -0.24683618789609102
Ni 0.6182484629439404 8.059703241360634 7.30357561934717 0.04297958888531953 0.4618500890752627 0.3588511822135175
Ni 0.0921783048751991 1.5898224407194281 11.620093965243704 0.45513333917671944 1.5383259884003442 0.29665336852853424
Ni 7.150401207571083 7.391534416645437 2.4545737227304527 0.2819314889373274 -0.6250115243595171 0.9163733054718088
Ni 8.730701096133982 5.789369638907596 7.204526284605241 -1.3558532543819874 2.038026572664477 -0.7622323285186099
Ni 0.13934822075658332 9.010192624526239 2.2884773001299186 0.17666101243258608 -1.3475519336051438 1.436666883395945
Ni 2.21334621265416 6.8937545591582285 10.334622461162834 0.2532320641201058 -1.0525101325381034 -0.7480190131327054
Ni 5.928722482262313 8.083629809303446 9.002630978498253 -0.22099017336726454 -0.016726311615745386 0.10472385997265189
Ni 0.17744859909859398 3.6323359167247147 12.607593718111268 0.6143561015282001 1.8055409970631031 0.7809090789925067
P 0.6880552418886847 5.191584493384298 10.885237690804749 0.7159684124550637 0.45764942073035375 0.7130396688440429
P 4.82615886567657 0.4777963657529012 6.951356754508959 0.9021887864413107 0.2141978330357795 0.7091503610919658
P 5.656238812641561 6.8770762250899 4.351361641593162 -0.5379236323010737 1.4969692798304284 -0.21001387686141898
P 3.9229216806391394 8.088677686466033 10.296803136787386 0.3719054442943143 -1.7616610078507013 -0.250149311429724
P 1.856758992579095 0.4167346179585071 3.946830682709042 0.5005050824432993 -0.6557922571857996 -1.0420693968207537
P 1.5675784984974783 0.7393614585805844 8.436414480153287 -0.7718356559363287 -0.3079176285884439 -0.9562318322296436
P 7.331939881498851 8.734325213071225 0.8047323923557146 0.22322703311758327 -0.20098030590424096 0.9220325606401153
P 1.2524744740790588 7.328408216524293 1.1095381926506804 -0.11237134921558066 -0.1217497051066871 0.5401625489339213
Ni 3.0368898058573404 0.39735206398165007 5.882885723682843 -0.5060494093002962 -0.5683611228553244 -0.15041596269312807
Ni 1.4271347219830806 2.157727111903017 2.5825124467721117 -0.15705403683493596 -1.543246565630413 1.473211001068566
Ni 3.2006222317720248 3.700204902531586 3.2272909249280666 -0.7854460476309119 -0.23992814792234807 3.1417952462672405
Ni 6.8630789979394295 0.8345499993607989 7.812473749866847 -1.2450039982378882 -1.7426163325144246 0.29852950250532456
Ni 4.964319078712656 5.069261301556111 5.441806654910189 0.7853342046433959 0.1821760287135443 -1.1911931230650195
Ni 6.859593558946215 3.7131944032887936 7.9497075942368305 -0.23085035399079595 1.0287305136200025 -1.3182935509606586
Ni 0.06848748943723294 3.9828767784401973 8.164124035134547 2.147292286371541 -1.576407625763414 0.21311539860487813
Ni 5.310921486817767 7.647117867487418 6.394746939606566 -0.4849154555351584 1.4552019660856552 -1.468656034708032
Ni 5.971176423527149 2.3984905131266325 9.633878187395668 0.11118658487886013 0.16508024957352213 1.0033673522648656
Ni 6.0449900705346495 8.42937241415559 12.587242267565475 -0.25746975635053726 0.1816263268576614 -0.8022672329533086
Ni 5.140097995365162 4.723139643656958 9.69566198501863 -0.16810746643562016 -0.24641915496333044 -0.12196696332381575
Ni 8.446096974205261 2.153622244759814 6.653587473093929 0.5389006515023622 1.2715377828623584 -0.6598862247495151
Ni 2.8042251965649085 7.236963980232811 5.6961410797362975 -0.26857203691128584 -0.06773596989439302 -0.23673432357539873
Ni 6.141944443802143 6.484164628875998 0.09935442621878907 -0.31185681574185004 -1.7937224071616205 1.311536177632167
Ni 0.3663519963738279 8.106826006741048 4.8807730135933305 -0.015997403869520838 0.29056911000766733 -0.478680273258724
Ni 7.6827765894949245 0.8440975135472526 10.225939631909155 -0.9466745275585116 -2.3042943869226185 1.288739748562942
Ni 6.5397467488420675 4.523961135248942 11.763498978122895 -0.8507381839705025 1.6736426335581887 0.43687953517285405
Ni 0.5743448749042083 4.45348500409436 3.3830502935808195 0.5603894175037575 -2.1428733313682384 -0.4107974933738215
Ni 2.2073923062572627 2.7090089201958887 7.680056652752739 0.03415633416673472 -1.65914932503802 -2.2159888204069897
Ni 2.5675204365031536 2.2076604169490484 11.822928024256278 -0.4249874117209584 -1.1332566557595516 2.0000333812501556
Ni 2.6982937377207263 2.5907813503146353 0.6766401980559991 -2.026489518559155 0.12157024210602935 -1.3401314727713565
Ni 3.70588145304043 6.87168627566538 8.148657746297015 0.06238653265702159 0.1895016158406801 0.719939738397986
Ni 8.263384160351398 3.9573600367392077 10.18132693731563 0.042574897247733126 -0.3235751326200428 0.8831919336238337
Ni 5.880129730675211 5.855241662320477 7.595296693363364 0.7457638985499414 0.18931135420674494 0.05472593078797027
P 1.3402483674519565 9.39515335194925 12.406884205201193 1.173156834388599 -0.7782207335270662 1.2052580857985178
P 4.594770093469188 4.250515965216268 7.560033665756149 -0.9354897145862857 -0.9702451157895999 0.3710181565933546
P 0.4461611531614349 3.528022367227516 1.375251605044028 1.0969264538699495 0.858392872302283 -1.4932000425959833
P 7.739468133013211 0.45352217843039433 3.5868440039660583 0.20211313395710354 -0.04612893314757861 0.1551848448366811
P 1.7026415707836235 6.138551456771613 7.791513965406589 -0.915543867591978 0.43745829049445945 -0.30995059985807266
P 6.766401980559991 5.140911572636788 1.839090497990413 1.0907717471224634 -0.24367167412518032 -0.04971845027104986
P 4.549625800090227 4.822451541972912 13.245714730434294 1.0603784795425866 0.20462304486315083 -1.1401793510213136
P 4.683135679403269 2.2454917600796462 4.189108447081433 0.35309808177982416 0.8395402583721542 -0.35263759720363785
Ni 5.14320438131137 8.600011001682825 1.5178578329656218 0.08798983504742265 0.6857116704530514 -0.22431383842385885
Ni 8.666761318741212 2.561695962854014 4.020846799514823 -1.2035192487305402 -1.055810143445614 0.9417557501006556
Ni 2.2455379860609885 0.19499875517503928 0.9780761243111058 -0.8260494229745708 -0.4398000512537587 -0.8472558818488569
Ni 8.962783258061501 1.4037351302275713 0.8635780666045554 0.3705607573409618 0.2216856567723924 -2.1490812599511635
Ni 1.6867490783981156 2.6798865519501938 9.78009743801898 -1.4913987277211864 -1.1027219775058041 1.741895652298316
Ni 3.7342549603883786 1.4009523261507606 2.415292732824958 0.18200530746363494 -0.8795175700960401 1.06102048400196
Ni 7.274721361793262 5.983213669068703 9.369706873739903 -0.5588112743833602 -0.16344708484547335 0.9831762220289713
Ni 1.4592710242122984 3.2254455837528795 5.581314817562217 -1.3731179549997061 -0.24273013614751743 -1.7339218900642204
Ni 4.355864976695536 3.7387758613636626 1.445884904535174 3.355650351251621 0.1974067296203697 -0.4902294115489041
Ni 6.186644967760218 2.1209404759507566 5.924549200666724 1.9820665123590897 0.1933076198503316 -1.5498576431890274
Ni 2.4102411575838634 4.800993441433782 13.265240584953311 -1.1451557211899825 0.09610757905855061 0.257257383229415
Ni 7.6468590019919 3.150282138090181 1.6417369913257933 -1.1424144109994196 1.1766540489085802 0.2785540878246622
Ni 8.217953265888113 6.406736110127524 12.365072805077016 -0.9712211065496241 -0.7532504367349737 -2.2705805396099414
Ni 2.8129896426274223 4.8480607356365875 6.281070779848283 -0.21205764676432512 0.33921155360571903 1.012416092730695
Ni 3.5882825565054333 8.57490104861765 12.538394348561363 -0.8031444933519394 1.3909025326766369 -0.5802421905636265
Ni 1.2277990452385 6.909776484291495 12.47387767092144 0.8648705096068265 0.6175776937892913 0.4130500368534242
Ni 2.190612275029981 5.527268324696341 1.9145950913954184 0.13303067733714508 -0.33651678038237526 1.0680480802727026
Ni 4.942204569238464 5.884188371837071 2.5066426681145018 -1.207036003634547 0.7106171754454794 0.7892096284384021
Ni 6.16857060905535 1.6042911728795908 2.6622383967933025 0.19577227934074026 0.09908851606374548 0.32413717577109985
Ni 6.4590361854182845 1.378125936563897 0.3870039157983465 0.009340303564319398 0.5686789112060594 -1.4459490800288195
Ni 5.078071973599966 9.303348553003298 4.117229819652923 0.1265756657404207 -1.6488628555103475 1.001710790498049
Ni 0.29521945628418444 6.57967675152561 3.124399286616959 -0.870080078832224 2.097074013645937 -2.183980128710877
Ni 3.059975060939721 4.502521525102349 11.127866772635343 -0.11704998563817261 -0.8121623805798336 -0.08554420172040751
Ni 7.459412647648578 5.7844511944927675 4.4692194036236765 1.2914208949395307 0.4872857555395479 0.06496020692146877
P 7.3508832886529545 7.611671784994086 7.369039929604612 1.131149893829194 0.45203310298484084 -0.12140466306244253
P 4.235668180009098 1.1005851445842896 0.27446953777922006 0.6100603023663235 -0.25074940690756814 -0.6269874171389653
P 7.581199618093194 4.040992082183829 5.75182212330244 0.49884492113205703 -0.4594232248013249 0.09944229985873843
P 8.130669367917445 2.1726581038766035 8.79120443407376 1.9015231062873836 1.3733267285764026 -0.6883740477765629
P 7.503900532092477 7.8385489014224525 10.679683695049992 -0.704790027240741 0.128223742866805 0.2150632663598683
P 2.641518987436024 5.613951284909559 4.133900757564237 -0.07356903163640233 0.42490359375790043 0.00948917043735785
P 4.014402897715696 2.2732550844738753 10.325881128090991 -0.6991965923133635 0.9081851132340617 0.04050515920289798
P 7.555146655008632 2.7250216001328864 11.954072982363844 -1.7243090495648044 -1.3442434380572013 0.8780911220621587
