# total energy = -340871.9350361546 ev
CRYSTAL
PRIMVEC
9.20818522999116 0.00000000000000 0.00000000000000
0.00000000000000 9.20818522999116 0.00000000000000
0.00000000000000 0.00000000000000 13.47710986171883
PRIMCOORD
 96 1
Ni 4.596026172537806 5.0155695013963015 2.9073094851811057 -0.544832700716081 -1.1148712112738282 0.5223561168801197
Ni 9.065559506558227 4.518806332412102 7.056385086772396 0.5163183953264721 2.1153525002401508 1.047240142388416
Ni 7.294116484394785 6.450849310649048 6.890320993669247 -0.39133655643573245 0.6399354926592011 -0.21739834225094817
Ni 3.526191604767152 0.3004916247085764 3.4934417736926138 -0.07063771692222028 1.3734177456283119 -0.7056379770633331
Ni 6.590150734620149 6.3711432605503004 10.872644650731512 -0.9672652072256697 -1.514086399126689 1.8642811912167894
Ni 6.042401844818394 7.136739393101152 12.941718314497514 -0.5645661745892664 0.06707005417561998 0.5393943033093291
Ni 7.797795000378079 3.5986876459440746 3.610005426232472 -0.4633855518831826 -0.3791107037935019 0.28991142181901036
Ni -0.13527008054073714 5.204493834792328 2.5005968414205304 0.8148458409492676 0.0958494403011575 0.6133536284056147
Ni 3.726976080553103 3.5828864003376224 0.7546660168545462 0.4522349345830018 0.8249824151626372 -0.5774772262239797
Ni 6.705741081996487 9.08871809204787 7.546750408759298 0.959218425661793 -0.09750625917829014 -0.054980727111253694
Ni -0.21499178455412973 2.937889867849537 5.554509841345416 0.7845968122567392 -1.069762748970964 -1.7783171283501438
Ni 7.592157811052152 5.296676975681718 9.041388941527703 0.26250603322286403 -0.8636122117196933 -1.1726762952077545
Ni 3.1938129559265342 2.949823675720144 2.9522960734155594 -0.42537050609199006 0.22914905502897312 -1.6366483157220264
Ni 4.240000904398022 5.608595037262699 5.796612364427818 -1.0036303761182652 0.019293815232605482 1.3447951967956129
Ni 8.457285216190497 0.8572958437232604 8.883962126034609 -0.012955788829719624 0.6722275199236875 2.901535426037087
Ni 8.347744646415231 8.580564398113099 2.8841683952431247 0.4577430088854245 1.614975458734283 0.5960501041301606
Ni 0.7658613282813087 4.270452372475258 10.832334899701907 0.6751063841333792 0.25354368182325365 -0.21426519593860519
Ni 8.521595180826548 0.8972612086306754 0.6164244549867681 -0.5247469857097995 0.7174149150936031 0.49683483268056366
Ni 7.991866709236813 3.533042494470649 0.9951847321022695 0.40999093831212613 -0.2896417130973915 -0.2849944441333673
Ni 7.263674224502634 0.3372037378253389 10.941081723922816 0.8285799027059085 1.0923874283490154 0.8939702551862604
Ni 5.0544096260862865 9.076508038624702 11.364316614182027 -1.1530659771759948 -1.3829243995671667 -0.15859361340791395
Ni 1.5930160197647087 9.218958661894991 2.085528690513513 0.962095490099272 -1.4168246518590375 -0.2615177011676657
Ni 4.025763270202383 1.5146083237629948 12.691986810071903 -1.098867122536088 -0.18463194645320458 1.3844092116428093
Ni 3.2686478761151343 7.064722177548667 7.611776770194988 0.2826611680145003 0.5731040368569484 0.6000245153968763
P 8.442883614717017 5.640206736660689 5.174360969919044 0.10073376497665233 -0.6833426560002424 -0.5997681764116961
P 2.7017275449656903 2.4968085940764193 11.079518499314403 -0.7995490626911972 0.07452239668860713 -0.21405307992779912
P 8.96280536919086 6.28283676558184 10.53567664244436 -1.265116452717047 -0.5981797488786537 -0.6138634781624975
P 3.0417397792420595 2.1785737175268913 7.0690942238271886 0.03429620217870868 -0.35323332180610784 -0.6409981295957605
P 5.638632137011094 0.5244153487954909 9.440202804122071 0.7787375252624847 0.4795503345685032 -1.4883493993719012
P 7.9208992267840586 1.7039194009326055 2.5862440125363424 -1.4992377641496308 -0.8250562058233661 -0.38699139209315936
P 3.850052682403826 1.4457679320649548 1.3997325315492801 -0.19159963602028937 -0.6901290827944566 0.83858020845173
P 0.24626830601501304 -0.2487480702584965 11.097995643506657 0.31432944565205867 1.634908193102468 -0.352102036415142
Ni 3.621275323958426 8.086084859030064 5.475103057261943 0.5063576845693344 -1.2831067186468805 -1.1193896679694721
Ni 7.468123557952552 4.116500726033373 11.119005959415889 -0.08270261850655435 -1.3546890588705573 -0.16977045596033988
Ni 2.5403541013450166 0.13808962681386983 11.34567740593227 0.29201612686683903 0.49654738334713194 -1.801465027221517
Ni 4.878947659285036 2.994658328900689 11.25833224548672 0.4559571206295953 0.8464480412355809 -0.5686300602459949
Ni 2.4480144213091752 3.730254194443486 8.805282788572878 -1.6233809091891591 0.0667509802733044 0.6486571888029152
Ni 2.0586831477156977 0.2284265265936483 6.534362945280586 -0.923101625334578 -0.2033855729116239 -0.26128167389745965
Ni 4.415831198602688 4.564801216913401 9.287871798255207 2.1834504814596523 0.4911526946941218 0.5721450153777887
Ni 4.0001737238502075 8.529339264483324 0.40246582879921405 -0.9127251671962603 0.7349994609445858 -1.003660458025252
Ni 3.9920705209751044 2.048498895011306 9.004380324851194 0.0027554512579500935 -1.2189240133213848 1.3758973175170564
Ni 2.32834484794003 4.161639249321735 6.176370808806571 -0.5834005336869501 -1.2751545536793394 -0.04868152436610326
Ni 0.22096789667451874 7.013865371322306 8.073745891015703 -0.11273670297479937 0.11332368582652097 0.23089329141358944
Ni 1.329928963691313 0.20635082367004184 13.196219658797334 -0.2394218977098909 -0.5359765358770319 0.34752110191267893
Ni 4.1054140711906175 7.612332944574142 2.4649906313325176 -1.234206650512068 -1.6914770906364485 0.35375268464468757
Ni 1.6586335466828783 2.6712484523331974 13.48870016248166 -0.3303913842109278 -0.054377546309616026 -0.7832649808191929
Ni 2.477968647391803 6.267182850936755 9.83682143539209 -0.32054765864762863 -1.4853347809152935 -0.2666863898527988
Ni 2.5920028114887175 5.073360070991927 12.393658188039874 -0.6711846804814698 -1.3366723105781624 0.5138455083059472
Ni 5.638475597864645 1.853202497536221 3.2788726448339016 0.355909068866058 1.1279283015681025 -0.6511969245056334
Ni 8.937068491877321 7.786091397134605 5.329010596790399 -1.0667694706705952 0.444793390703292 0.808574149007943
Ni 6.252311632023922 4.754103085897927 5.09225895006109 1.4279544432236115 -0.23010653384623597 0.43445627044334206
Ni 6.3966315168665355 2.7062855965829358 9.39128155840065 0.041030435578748685 -0.4363385750677195 0.43136888976727
Ni 2.2605081484162928 5.394320570326717 2.2381709330362622 0.4641496837427168 -0.646217469013171 -1.452813925469453
Ni 4.400435113139991 -0.06931277159291845 7.546157401639801 -0.8374121562855578 0.6196590017983522 0.9943093558276553
Ni 8.312099761949861 5.533981113516147 12.747553602969418 1.1446157895261126 0.5814665498890308 0.5158303999464601
Ni 4.275931242601039 6.00494294789121 0.5445389164810042 -0.6138585930664912 -0.263621634884546 0.44364205070766827
P 0.7989398915633941 4.564294766733707 0.6745566482490604 -0.23486718845967294 -0.1375535049081631 -0.9648303725319318
P 8.614855679370923 3.1425970304818445 9.351618221964033 0.49818003385454845 0.19402341497043357 -0.2140854758276313
P 7.067134722041028 8.033754743190048 1.1583694257292305 -0.0007407348207664662 0.11469125559800893 0.40160837067538574
P 6.2364919700472985 2.4636775441393475 5.305210200800307 3.254819912796104 0.5234845740576082 0.2909555468128086
P 7.095670887620512 2.193951386619418 12.374412160392994 -0.39185849037747356 0.9120913902670034 0.6775695009618911
P 3.1359579290353103 6.160800688645762 4.092769391431421 -1.3275832037927007 1.5405438219872694 -0.04770939026082106
P 0.9388941758570463 0.03487968428477885 4.309763956241614 1.2353834444289884 0.7266600878409549 -0.5821764314718619
P 1.871259748488583 5.556145215016573 7.870659368958415 -1.0109456788327555 -0.6604806638004044 -0.5857199258487461
Ni 1.5255016067189584 6.446143928070437 5.837111804070184 0.754576611745565 -0.35635901191928304 -0.26820051250448007
Ni 2.485832437454688 1.9918869731066042 4.80818828181521 -2.3403615649588208 -1.4342325629228398 1.8347631271530145
Ni 7.770124404196617 0.6799397532499533 5.344077950045549 -0.5868884922355505 0.5774489440892056 -0.0020404274687964856
Ni 4.732666431019243 1.0088947988758399 5.398040677101197 -0.020593507880635502 -1.4902358177613366 1.110925853472835
Ni 1.7647762961616515 0.5299623594909029 8.9047845949681 0.8319560182669931 -1.4724766940057028 1.0549174564280153
Ni 4.35052674997742 3.272515313850979 4.899037156685733 -0.33319645775989065 1.7895975863599694 0.38360962010512
Ni 7.688825338078105 2.447968380383749 7.388407378850211 -0.9796913488041644 -0.007193689534961804 -1.0471324131659578
Ni 8.233820980539342 8.031010704034616 12.725531307519308 -0.21587187830409274 0.2681202940858479 -1.6007816837324045
Ni 6.271381783335671 0.4100552149465555 13.321300882541138 -0.12221610322014435 -1.6970036768816321 -0.42527923192976436
Ni 5.963681070523778 8.838117334950201 3.1406117457774445 0.5735041005088446 -0.435579842524824 0.04072061764781374
Ni 0.9110311286073004 2.345241867571638 7.776979897992655 -0.9024276419249943 -0.12206517946457689 -0.9933315652954184
Ni 5.308058292447205 2.9285527681729966 7.264067414005779 -0.4800226462192314 0.11982754838330978 -0.6813999304515749
Ni 1.154402539594464 7.193968263406571 3.354708494741278 0.46749983116187227 -0.04536120174361866 0.6829305081634883
Ni 6.042613633075357 4.427847880139063 12.981071335096756 -0.27117656441366844 0.32163754927769767 -0.0077932707921736745
Ni 1.3091184653984327 7.1050356118523075 11.710557264850124 -2.040641384579505 0.5681600625881118 0.6762528390329966
Ni 7.431060612984038 7.764488994924385 9.478450842511068 1.9004812952864303 1.3213271955806598 -1.3069213045679748
Ni 7.158489126272737 6.473243616776607 2.73473428440411 -0.15747209820896108 -0.5524619351265647 -0.671396796492276
Ni 3.582398366528099 7.11909651047763 11.798454916400791 2.030734409878438 0.19311401578228676 1.0959543197646673
Ni 5.83754735122472 2.3536397323694733 0.864105296593873 0.19426844110170413 0.9425131970919702 0.635938455684666
Ni 5.47148516134191 6.7568280928499815 8.785660146156008 -1.0936128161156844 0.5780572670971657 -0.6768675897988601
Ni -0.17210374170062623 2.173306635658074 11.498279132440643 0.6230261184983722 -1.2587588859301353 0.08879459033690514
Ni 5.417534404926872 6.7678226658418845 4.147055325783565 0.27214407053326034 1.2781884554096568 1.207733543922204
Ni 0.8325193801141222 2.0399813238073614 2.4087774238420114 -0.5340294394529901 2.056721320860503 0.27023219822252814
Ni 0.18010381290277408 7.381704740926588 1.0564292919234086 0.5862544581959774 -1.0025101464708928 1.1985297659357488
P 9.088800965713638 -0.11089785625684562 7.256035114155831 0.920570374272292 -0.6225172971827537 -1.7441299409454736
P 1.1804340788307346 3.669664336581915 4.041300240896884 0.6558567918751479 0.2668511975654372 -0.6615692688788928
P 4.640952907569205 5.187707313381743 11.472443727546692 0.46673184264759615 0.7242062269838236 -0.2559111536141657
P 6.134557361152528 4.66402861939308 1.630757607974013 1.386878242008592 -0.0052987865050941 -0.6048448196036551
P 2.1360779433580235 7.111803627890037 0.2537564021264157 1.8769621291185674 0.31669048968506747 0.7549301384302418
P 3.6748761693402203 8.041830321509895 9.805594638130668 -0.09937905072097078 0.7576462518098243 -1.2307066077786095
P 5.6189634536687985 5.066030355663993 7.395577792576169 0.31835347920978724 0.11633470473870289 0.5718853339584989
P 6.090219949966591 8.136849583405573 5.700197141673204 -0.6847914726316271 0.5696934685135028 -0.5235799619848919
