# total energy = -340867.8763717188 ev
CRYSTAL
PRIMVEC
9.23341127724375 0.00000000000000 0.00000000000000

0.00000000000000 9.23341127724375 0.00000000000000

0.00000000000000 0.00000000000000 13.51403073175973

PRIMCOORD
 96 1
Ni 8.130979093540407 2.627117937950995 0.5814694720057602 -2.4782590834699643 0.5609128941073952 0.6898264639523732
Ni 1.4683986629913386 4.075304663186247 3.824741268891231 -1.173748702336327 -1.8207112770456386 0.6831305399894364
Ni 8.373900916484608 7.492239386755242 11.755383033288746 -1.6489009078371344 1.0450989276756968 1.1236710689536455
Ni 3.459851620184017 7.02983013923365 10.245824591889324 -0.10008430431811151 2.898593055579311 2.338799876898656
Ni 2.763153789463287 7.598072749277056 1.9288578140058101 0.40109672114628986 -1.1868464160605494 -0.7625516595312416
Ni 4.265697608152206 8.067305487891268 8.257275542610891 -0.4008763776053677 -0.8947001913737493 -0.9426479228976218
Ni 8.224615119481232 3.156053915272767 6.285065014967635 -1.4479350001105966 -0.10594873351868851 0.5054099759440843
Ni 0.057274851485152406 1.5011495735536204 4.738195281070006 -0.435865749196359 -0.010798890387716887 -1.416947807700463
Ni 0.641157937254933 3.849806287727535 13.226235937054671 0.7533195994100123 -1.6657346915650213 0.6467247476668926
Ni 3.003564124481651 1.563438167478953 7.774243470521819 0.15830487852290157 0.5940405298992995 0.9205768020301952
Ni 3.6168657826062347 4.222688377422262 2.8929081511375414 1.051287572984912 0.2912021156059759 0.7679028965408259
Ni 6.546922718199719 5.305619810855217 5.826520873496611 0.13635357106279097 -0.7250590619024223 0.9296335129158247
Ni 8.347521059851836 0.46869166070077867 1.4909087968677939 -1.6028575924248265 1.0493888133003024 2.6094249396842284
Ni 3.129794092989392 4.882267893944974 11.43181659437303 0.4469641731023657 -0.8043791370899889 1.3608897883646305
Ni 7.098508253911477 6.1626558321353 1.1712397809428683 -1.3671002880507166 -0.7028742982752669 -1.0085249852064049
Ni 0.40518887316424224 4.947095676030618 6.155506401617011 0.6950648295331772 1.3960095148858989 -0.04626597294607516
Ni 8.106962990249599 3.0061771799338994 11.581335073346006 0.4880601718117272 -1.1595891230064934 0.4448299003681823
Ni 3.907441242260877 9.177872521919912 12.069570172810847 1.9002756070335274 -0.17240480825939342 -0.07119333231537416
Ni 6.517034165199972 8.192510547723392 2.4890544292750487 0.8018165185691353 -0.4868237283014648 -0.4309922231541416
Ni 9.082712983082901 5.343347530211711 11.593822339047847 -0.633187118191774 -1.4875605849220188 0.5013607455753752
Ni 5.659591873814237 0.6198232166614148 1.292030346740646 0.3548695718579501 2.0564140740327295 -1.7028017716206478
Ni 2.8534657872669746 4.601415216591454 0.7265993104965673 0.10173958053334738 -0.2324434095095287 -0.32706617649243674
Ni 4.450384304816081 9.274315504954316 3.0957135711722557 -1.693533973165477 -0.1069946582846996 0.7171755453892874
Ni 6.651287968294299 2.525264175782251 4.574296687039319 -1.1250118992522562 -0.431644769136476 -0.2941123472742354
P 0.36694131274074604 1.7127054976593454 12.934319786051384 0.514004916701947 -0.8068232277551073 -1.1116552754396918
P 8.361740513549584 8.849301573975506 4.047317269612711 -0.026018792661264868 -0.7267793870276387 0.1801224886186253
P 4.6720969815630555 4.349592384968923 4.805940821187137 0.0826455400163738 1.6261008792234832 0.4085493207695932
P 7.2654021666301825 4.351937671487902 13.040769940460867 -0.6752760769420241 1.4051443873076315 0.0805151239369323
P 3.18989436839111 9.308571461589803 9.905163414937235 -0.35044418909674485 -0.03103167249482398 -1.4555110126856416
P 3.693881667861379 3.2107526449516386 12.950901146408798 0.5191198693310092 -0.2861866646692555 0.17241714955456758
P 1.259834364209036 6.081540312177689 3.4693758841380613 0.9748517613236759 2.7945693069974773 -0.3409323929515677
P 2.5416257809461538 2.18519763053025 3.26012461954075 -0.9891589219749674 -0.6966460579773679 -0.44277173228757294
Ni 7.75967591721082 2.3408083144056766 9.329816618091849 -0.1813512188194038 -1.0470275121569774 -0.9230070087382427
Ni 1.598035760339644 4.1252389525352235 8.720022732993092 0.9781188621107219 -2.1013836967648842 -3.153920825886181
Ni 1.9584065774626513 0.9357231540152877 11.531455261124833 -1.067721035950587 0.6690889742947057 0.29346828593233326
Ni 6.8033714889797645 7.968655719510265 9.541081689735574 -0.7086091438765151 0.25808604977829747 -0.8410356119707579
Ni 1.87778966172561 8.473464792603323 7.946791001097103 -0.618063118066142 -0.29294866598343744 0.42405692948688906
Ni 3.7101878725563293 2.4021366335358367 4.981515064049513 0.5747438864532166 -0.9489913486171464 -0.3297925742846643
Ni 5.421896161774534 0.6204455485959787 8.940504595988177 -0.28428739076401366 2.317713488542002 1.3641275785756377
Ni 5.676239714734393 8.019153246960256 13.412878270272563 0.49340626661498904 -1.2545944701398006 -0.4167190010645791
Ni 6.9483083491703885 6.756059488494529 4.206715498882175 1.6024189622255114 0.2335358712427591 -1.3375323445856127
Ni 3.7338346393874553 2.131551509761471 1.4378249908588805 0.06950643153125449 0.5107668693806235 -0.2512533431271802
Ni 4.815242559924222 0.7334661986232008 6.382487662961345 -1.883283186240589 1.1619596801211989 -0.7741478490092732
Ni 8.920075673062028 5.385017916275308 2.2998045806518053 -0.9574891016755123 -2.79681850804297 0.1973928456632988
Ni 4.912378048820531 5.8272798599212585 9.327871138290474 1.8438288368997082 -1.7132317087047202 -1.0527746990533997
Ni 0.8412616610870751 7.624932743307414 5.534806934205001 0.8778083007144173 -0.46563963802468195 -0.7230289188462709
Ni 0.9619645094756784 9.039657585295497 0.3871375536972951 1.3651992143732616 -0.8596169745173713 -0.7417537489492838
Ni 6.2773809699239544 9.381330744147114 4.540430380368798 1.0274958698819532 -0.4837615444363733 0.6991629108619507
Ni 1.9026552388736861 -0.10572625494850703 3.2515569370172823 -0.967985630331462 1.9268487295363654 1.2152923301060683
Ni 7.054095544634742 5.841323878800658 10.424061750626004 1.2941894588236034 -1.1386657425902649 -0.016237030684152682
Ni 2.7846953384742266 6.107707800346144 4.916553397497234 0.4960244209641264 -0.4050976147755668 0.6013406631051386
Ni 6.391044265391023 8.738925372999606 7.13865143371429 1.4039328834980338 -1.2091684765965176 0.7349917476351019
Ni 5.204504721605837 3.069001311725771 8.647587543179153 0.9550828062268648 -1.8756994603560602 0.16891402149731555
Ni 8.798434710065834 6.182867769891386 8.305399159966278 0.16440687765558135 0.47222294766915446 0.7006932314635481
Ni 0.84386732981013 2.0272416601358434 1.8322597096583384 1.8136690254868766 0.27619638622576304 0.012109638779340435
Ni 5.456678422865066 3.294084183667341 6.513208762818817 0.2439994897782443 -1.179285572994156 -0.5050464219570786
P 1.6180076293969365 6.267805922206705 7.469569514859973 1.2373799060337272 0.030992848837088558 -0.5336178058368681
P 8.061248369952487 7.945212087731964 0.4561176009309124 -1.0284232667922288 -1.0018475731862293 -0.7640732383820905
P 8.383826833838556 4.647573040640185 4.407574515774366 -1.3809207388735767 -0.21427522324093418 0.019264247546250696
P 8.982253466049455 4.2343040090792545 9.71296626136573 -1.8509081123439928 -0.13606792150157213 -0.09709513978280053
P 5.739054613114773 7.260499225127906 11.247620191859383 -1.6012622229132487 0.6186231043346702 1.4706689513730027
P 6.30098156969762 1.4636988565418878 10.855158653095776 0.5740239775680565 -0.003274299875897587 0.25102734315930314
P 1.1294308937068906 6.953506759840409 12.114031819168488 2.3321144944586805 0.16790434928587858 0.16088318077303906
P 8.73794663138145 8.53057344268162 8.773849828627116 1.871076359761752 -0.9101514929318133 -2.4912197573956907
Ni 7.122524357202285 4.38417151100663 8.37946958695546 -0.016374327592965348 0.8411883354985384 -0.6963984607429361
Ni 1.6712197798255892 5.794196546545263 10.054479682198533 -2.408556990988136 1.6150235383633993 -0.14173463286904622
Ni 6.2705759456543175 4.510770815974053 3.0533876128927235 0.3023609604362728 0.9272961230318998 1.7397973750083908
Ni 5.87579220390046 2.49699146979361 12.840194389301482 -0.26154495486117535 -1.0702659138596278 -0.3258852688104581
Ni 1.1453400617076834 3.2198290884483187 11.056206954923553 1.4262616289022212 -0.21913126578165487 -0.5980815327378927
Ni 8.977664460537909 0.6987273345666816 7.137124227453506 -0.5398334477292768 -0.5259530902027587 -0.07452702467429746
Ni 7.913652287252155 7.47457587057096 6.192332016670732 0.40321453882024105 -0.792352544942758 0.22434417744116203
Ni 1.2059481747414638 8.145290881353077 10.325570796922662 0.5030124222461853 0.3247591256258149 -0.3956668083799702
Ni 4.947289577671952 7.4158421400700645 5.590537959288683 0.8290835818152044 -0.26354861555476544 1.726495515693162
Ni 8.278769077882073 3.001108037024767 2.947234774333284 1.0059819070695772 0.22105367961534833 0.23886268277231118
Ni 9.271730149736547 7.594831821843348 2.415659888007085 0.2922866069194063 1.4509737869369206 0.1392064671305538
Ni 5.219232012935647 5.468017052177297 12.408934978789452 1.0456905385131088 0.23752365224591349 0.8135857432899213
Ni 1.8846131528182313 0.506131297618721 5.933767871317858 1.1577677535270383 0.34937255329912087 -0.8445557093088745
Ni 4.170076398740592 5.3208826400515665 6.977550563365694 0.7370961955726144 1.5155642692237963 0.4738172887394679
Ni 4.064492338329063 2.562271689042366 11.016800601357804 -0.38260997519601203 -2.524098510401582 0.12960365393346712
Ni 8.46567179330404 0.16482285852103984 10.509348002554573 -1.3984546339922819 3.061249269092373 2.6574780864377137
Ni 1.0346499247410532 5.778989117817866 0.41263192616797933 -0.3970958275170129 3.9020683941769505 0.9242064283629824
Ni 4.73412703996661 6.635600402169316 3.431847606469795 -0.5225736322075645 -0.40582497985989463 -1.6083859784422236
Ni 5.354519958117084 4.0060263767614375 0.9915012694975798 0.10959404358075962 -0.011283029112987019 -0.4690077831659665
Ni 0.8407898337598316 1.3916043796120037 9.313396842435546 0.7209213855849649 0.046210694228107516 -0.7813842188567124
Ni 2.61043316338487 3.8629269654577305 6.340540274552986 -1.059613576352104 -0.6478557759475424 0.26289067025579244
Ni 3.3377489866132195 7.14173908651723 13.079406227508178 -0.9924103390327296 -0.9960299380631878 -0.06067777749603099
Ni 6.065621910765405 3.763649325095267 10.774331215576716 -0.4231724699994067 0.41569210246196153 -0.4631865484984991
Ni 7.420394211935642 0.5315665762558561 12.77385417441344 -0.019989812858365572 0.04175702933212808 -0.7022441208904358
P 3.69917241264632 3.971059447441064 9.526459659296771 -2.607503040071167 2.159683718057358 -0.3083035511729529
P 3.0517255988241554 0.30857784204068156 0.5789746042206098 0.9254577842715803 -1.5519214676965918 -0.09309887413921385
P 3.318497323652307 8.462994103971345 4.869943136285392 -0.7209046734144166 0.15447187793005657 -0.18497750271808142
P 6.9192692700279075 1.6080355449855284 7.14366517615447 -1.3187445224551484 0.5633605843169395 0.3943660872906756
P 6.513322333780169 6.472270586286538 7.881544945470869 -0.33660702610333637 -0.2865592175173258 -1.1210140909467727
P 4.5267169176208135 5.94041685093328 1.29049390706837 -0.07457330453120059 1.944191334579871 0.23562283567877487
P 6.3311009579846695 2.427233045971214 2.279803164677738 -0.08453195840580927 -0.6010640124049842 -0.06732922137427759
P 0.9399428230671522 2.459670020542766 6.6000092942320805 2.186726838218079 0.34256221524550684 0.8880567179153028
