# total energy = -381170.66743547004 ev
CRYSTAL
PRIMVEC
9.25828132355725 0.00000000000000 0.00000000000000

0.00000000000000 9.25828132355725 0.00000000000000

0.00000000000000 0.00000000000000 13.55043055844033

PRIMCOORD
 96 1
Ni 1.2110572515662326 0.2529760539032109 10.769977096392175 0.07103700924316798 0.054926991055182825 -2.817155676938426
Ni 2.8323674611427005 6.608644468864602 5.285996227765214 0.5443297929377334 0.22969078646505603 0.5586338682652314
Ni 1.6958208569421112 8.650465812057808 6.752030247809175 -0.34405242663778807 0.3475766377409627 -1.7341322063028135
Ni 7.086751370033734 5.968767619705923 10.588577740531772 0.5594779614330816 0.9054255482110536 -0.5471772896888577
Ni 5.113459824529456 5.8297545269878395 5.941687147098503 0.3169607126273187 -1.985566297982232 -0.0724922536324558
Ni 5.70839697658167 8.380790596294085 11.35624942303814 1.6286521848904274 1.1725914488034324 1.376637023896558
Ni 6.497387703283969 4.820472256620268 12.546912532703647 -0.8053327592525099 -0.20842930598311846 -1.3476678903577177
Ni 4.436272102000554 6.552992940371203 11.892927914601655 2.168499516576775 -2.709767896980366 0.33243386856225327
Ni 0.6261199690741112 0.23341423148535956 4.744262714648314 -0.5146263523360298 0.1592361320879193 0.8506965320992897
Ni 8.300660172219825 7.822905085737559 3.116083786224856 1.9817818912391354 -1.536492020515399 -0.7541575219302753
Ni 8.852898131224034 5.78298169019718 12.930552561308746 -1.120335319712193 -0.3852926642344977 0.19152944490398627
Ni 5.662392577133375 5.321150847436199 8.587381735390311 -0.8705199945831201 -0.3282617394624347 -0.07591901992581764
Ni 1.2308144237181067 3.5527820987499052 8.069850295245395 0.02295069525890241 0.1334381971882089 -0.021936652172091255
Ni 7.489255146651693 3.9981332009156025 3.723928833972545 0.7532746051046898 -0.2646212797936539 1.2147254018590048
Ni 0.30290411293818104 2.7058252732458805 4.358048883860356 1.171671508092324 0.45015054125014736 0.7209581523601712
Ni 3.6185899617562414 0.6713587086644122 7.702864062922766 -0.3633601258274645 -0.9688119828874991 1.449299227447975
Ni -0.1290909927203493 3.2215670876283995 2.016629559957382 0.3663976271022077 0.17685024562525672 -0.3586773756398145
Ni 2.655876845992197 7.586059735227136 8.384776286365023 -0.7122683378956572 -0.18380070880116087 1.2685517036508411
Ni 5.126634358724449 0.9775819154247332 5.96401904726136 0.7587461697422223 -0.38546929902167804 -0.7590547021215767
Ni 0.7344927800505693 4.628835093372077 10.6802189856634 -1.2063950276164384 -0.3347280639130687 -0.3961920847558209
Ni 6.22372216830869 5.695370574886409 2.976893860335217 -0.3762830045367197 1.4561411900704728 -1.2955128056207172
Ni 2.639184164928547 3.0326796339064996 3.5649687743373053 0.09563243919434497 0.5674897759939646 0.04134333883347718
Ni 4.11676881663918 7.630527259990703 2.102159413646905 -0.12133138662234588 -0.03211153582256405 -1.3445643117317294
Ni 4.981603383204718 7.286332138580102 4.340975687438017 0.5058900009042965 0.7966928241893247 -0.5359338555645544
P 3.6247096856514567 0.7356759883921857 10.137483726517056 -0.13705111135044784 0.14671485969245698 -0.3090273167128549
Ni 2.9982203111561363 5.620359980334168 9.891800420741319 -0.31803183420431036 -1.4109918472273442 0.05271507100552857
P 7.80246280077442 8.041928244873867 12.040939130850386 -0.152051441414022 -0.37858825563112863 -0.19987833108931385
Ni 2.1189057927417085 4.586848787979036 1.722408788987918 -0.7022333222571584 -1.4136118013486945 -1.267447929063701
P 4.254032094204168 5.131633830590434 3.58461762459875 -0.3487356910460704 -0.8133000937287026 0.391551500660016
P 3.3505349452083455 7.415031506004282 13.363068908200711 -0.9606070784792036 0.7037929534347943 1.9024713291332656
P 0.7500392858975359 6.206011076309378 9.1515952811698 0.5389510451243235 -0.21528052457699698 -0.8624958387270629
Ni 4.801363164154726 7.530056392046871 7.316487286385102 0.6255820521510065 1.5546517221435612 0.5258073086535139
Ni 7.949697247227678 7.92463507992912 0.7891990380300484 2.466014975995289 2.122499395697577 -1.911269901261502
Ni 1.5848603563609442 0.9725824435587482 2.673418511444941 -0.015855221864701726 0.8927404965442174 1.074155221611705
Ni 4.809501193358801 9.279575280142154 13.706802041377768 -0.14470528546159597 -0.4170002797504238 -0.8105222738732492
Ni 2.841070245502008 0.8753714164371632 12.307246183901436 0.9694403605001175 0.07637153408220396 -0.7093743041773138
Ni 0.8610895918066661 7.086668045502635 1.2727673992987074 0.29699558235930146 -1.376982580161435 -0.19589646362343036
Ni 4.746952245346589 2.9813239479053535 13.280424860771609 2.1049235915973425 -1.3611834083456493 2.0378882473143998
Ni 0.548304115308178 7.0784281752049925 4.947289415469718 0.6287614783202525 -0.10692472427871264 -0.9935076858619666
Ni 7.153522094288333 3.2228632470010625 10.412733353411355 -0.5355343061332906 0.5722596865787821 0.9665203586398451
Ni 6.697301769954736 8.210910393944161 9.190728184286737 0.1893956863904351 -0.5934728303212876 -1.0405514175143304
Ni 6.164459910134301 6.822149692385862 0.4893334929926383 -2.539782239685426 -1.842826363777123 -0.843536781126057
Ni 2.815748846328917 7.758643355697185 11.057449506170682 -2.982671728497786 1.9014989379176672 1.0566550079444126
Ni 0.310152421315736 7.014342352508051 11.059238206104958 -0.32760893636978416 0.5122591376554338 -0.6158031183873717
Ni 4.068542429694891 5.319484356814204 0.5291431764677288 0.3932080624268325 0.3607447996918045 -0.046129704478527
Ni 2.280907197762089 9.003326684702783 0.8955063264633562 0.6395318294628792 -1.6119371861285916 -0.585497782535611
Ni 8.570529811889449 8.02409679521852 6.519030787323067 -0.7653204805256304 2.0159292265448054 0.25897436592052175
Ni 4.07980049967459 1.0087915814622062 2.1352772114465624 -0.04648811625921026 0.061850971868525735 0.9742521800664641
Ni 1.2907710529849932 1.0076435545892763 8.382418202134899 0.7194432583775415 0.5343896510058861 0.7351706964151274
Ni 5.746504062137956 1.2466831177519924 8.856547745686203 -0.410222594706958 -1.0964590273152277 -0.515882336230318
Ni 0.619072565399319 8.597175145278902 12.685384941797704 -0.153025118181201 -0.45596869059382117 1.4289517741398747
Ni 6.458141849135987 4.257781698103656 1.0920864860620096 0.9315417856821312 -0.6630893050678451 1.4108059564687834
Ni 3.0661205457211995 8.833659422821226 4.3931174015158705 0.26764926798670036 -0.42210854751126664 -0.5939582545981384
Ni 5.362637205642641 3.243398114776534 4.956354198625247 -1.1454128315061112 0.9511467043972521 0.37162570827036645
Ni 7.168390893949022 0.7715462732025048 13.057208626064734 -0.8259967153597646 -0.5131271420826841 -1.4248128122708366
Ni 8.289929824270423 3.093534316453017 13.193335912522397 -1.4126275830585542 1.7244931405511528 1.3155237015250052
P 0.7010796430795696 1.912677578269827 6.506428414908292 -0.21788428074843122 0.3333080436370905 -1.0078300160219094
Ni 3.636004788756089 2.922154272543298 7.244575438561647 0.07994253926291393 1.073115981713913 -0.22130744749736725
P 5.201182039215026 0.07464952158414266 3.7169101309695765 -1.1449487473854991 1.3628150304118012 1.174406390524984
Ni 2.4889963267618644 6.295760854585041 3.063305102398151 -0.03882391484573314 -0.6488844743223728 0.256513563084855
P 7.443528495640397 1.7066160128601455 1.338420649008447 -1.0695758297711386 1.727240878499619 0.2197928106250537
P 8.158610363257218 5.883424783297311 1.4512105859613154 -0.4734557916349911 -1.0963564402990926 0.9416174247505782
P 6.642576069584666 9.087067838458031 7.132417842217014 -0.046100136792172224 -0.10754230325805349 -0.09221030088667345
Ni 1.8776905334891654 5.768890586160089 12.462967696761263 1.5616484651763687 0.1375434776058341 0.7478017549155767
Ni 0.031016167959696927 0.930188773791442 0.7532843134698095 1.3946841112062562 0.07133551432019328 -0.26346762580518496
Ni 7.581217654142117 6.4750104375430695 7.775724884572633 0.24649680227880133 -0.9729859117595308 0.19872262021831583
Ni 4.488877655968197 7.4340294990950255 9.753315050053535 2.059924915399465 -0.18436763704822443 -2.5302457609499003
Ni 3.2652106253622017 5.531443447369501 7.212487161635133 1.3385353319288302 -0.7379336038722452 2.7650018777530057
Ni 6.133490959408895 2.312977883954259 2.9963797648469552 1.345897428720856 -2.545942859970183 -0.19209405915820466
Ni 4.4650931314798346 3.3392028089787797 2.0872406192675568 -1.6811325141773306 1.9007126945709458 -0.21315730758640708
Ni 8.470586665975915 1.0095322439608705 3.0548087777103463 -0.40492586508439293 0.634233042957785 -0.27858005596659124
Ni 2.071114545015385 4.3304036560977055 5.740070482508932 -0.7257972256200274 -1.371542125872154 -1.099518640077158
Ni 9.23872774334081 8.318065740938438 9.003989577639087 -0.18708040799369716 -0.6128028981084672 -0.6511030792402465
Ni 7.861604701292776 4.0094745954264015 8.312971834603875 0.5815148866284631 0.288093137663349 1.68937701357431
Ni 7.3707676634278485 0.822129818548793 10.424332128140438 2.4134492860834307 -0.6644224220569719 0.9678493618639138
Ni 1.1271309321863177 6.1500910576602115 7.005653455570594 -1.1971202871827318 0.6640498692089015 1.1269826498253817
Ni 0.37610841682180474 5.123153244980727 3.754079352636928 -0.007101901152103898 -0.7098486727105711 -0.589464994713475
Ni 6.207418335056839 2.8934906338449835 7.299427051556489 -1.396286936917002 0.0981030122220246 -0.28523689916147654
Ni 5.466181822955931 1.608885596161372 11.3499898990963 -1.8145488569886683 0.08587484558694888 0.6593406366586902
Ni 8.851055733258606 4.534928346822658 6.434408245194408 0.8547779012575151 -0.2627027226147024 -2.387225319389895
Ni 2.4336966129553304 1.9949466653089802 0.7445713450011456 -0.10144621766264465 2.558658250654322 -0.07357700205620231
Ni 3.3908455016981582 3.5661140237258655 11.830758556120008 -0.4489588349348913 2.1296766301723067 -0.51093579085832
Ni 6.2546448276279305 8.528052817591043 2.109056833165718 0.2577296948801432 1.112797616574251 0.19186805919032762
Ni 2.0356738444542914 2.6891140756197642 10.436622496477652 -0.26998305832619957 -1.8863476840985252 -2.119148219837157
Ni 7.62259291297376 2.0367478050773546 5.5315156619631205 0.18274090007807883 -0.22528134454345075 0.22763853192171765
Ni 8.240981291389938 1.3995280826326335 8.071612146164092 -1.19289390780621 -0.42234688877431775 -1.3046633617717338
Ni 2.744710054425764 1.5559374857880974 5.425294475545282 -0.8148155019319645 0.9257197796837153 0.9729835977666856
Ni 7.17905643392979 9.103306863741249 4.517821820587879 -1.2980455993449 -0.2549336201922448 2.467543753934989
P 1.4145450147930554 8.071684360757711 3.072655040615666 -0.8382567636740401 1.5391762522157817 0.43201526510201727
Ni 4.499802427823497 3.0747955552368063 9.551684498042114 -0.3770882740468344 0.7754560262977355 0.17556829358903955
P 9.043128035724763 2.2955815735168783 9.790999032157458 1.2605632861287257 0.8626580753365402 0.5089053906918527
Ni 0.3056982622143926 1.9714121144139176 11.916465242981088 0.6993644853497956 -0.4973662797040015 -0.09580907398152533
P 6.775765703407 4.6101703984057325 6.069698624227049 0.7570330437058574 -0.5066793295748113 -0.05285622456908317
P 1.5510305967344458 3.655336079971231 13.107249636130751 -0.7043123162733741 0.1968169185551707 0.17459564526312513
P 5.160501151475882 4.857366507334991 10.712902570073217 0.07979315816924323 -0.9112670945934952 -0.508774521540943
Ni 7.432761114566062 6.44717078587452 4.847233318525138 -0.021788556630001187 -0.4231801833088905 1.056968425419773
