# total energy = -340863.26921326894 ev
CRYSTAL
PRIMVEC
9.37194350744769 0.00000000000000 0.00000000000000

0.00000000000000 9.37194350744769 0.00000000000000

0.00000000000000 0.00000000000000 13.71678665372056

PRIMCOORD
 96 1
Ni 6.647950425323693 0.7955402106147483 5.796411916859444 1.3081194386411341 1.308622603529798 -0.13680505677791277
Ni 3.816011602914162 3.2046235159348653 9.86865150982826 0.13420387170963985 0.9135628326062072 0.1026644063404619
Ni 7.1870527143559775 -0.020489879431032514 1.8839592695794143 0.7346338500750509 -0.6615936943589251 -1.6420913411144689
Ni 2.024892677120914 7.452981602823043 1.7879418370464524 -0.2926295920811218 -0.6498900327687517 -1.2538761039165374
Ni 6.868303553980527 7.402260646192779 5.065568104583581 -1.5028648193792569 -0.22432206595397494 0.07822761345433624
Ni 3.1299197566407337 6.74725553553328 5.694358952901891 -1.6813315175620138 0.13871538642674822 -1.3051667837707135
Ni 6.380362702909184 0.5168636049990332 11.281850574621364 -0.07449257189193623 -0.6210491972776595 0.15391909075038007
Ni 9.096876672795 3.7764151428692863 11.154558967610354 0.4610633315079091 -2.464483884062743 1.7245365921945783
Ni 0.7254989930655459 8.722898651107254 10.752396701119542 -0.48380191075600554 -0.041576537890205816 0.5542028290770714
Ni 6.110338275261144 4.4252160271264875 8.065374362114012 2.161557023820671 -0.17222765925158082 0.1890861255698163
Ni 4.215546913724365 5.6693508596513 11.656388101318502 1.3936104185261031 -0.4014870146061731 0.2659883353445096
Ni 7.334061015483534 6.957355758322874 7.793645177996821 0.6326880670681684 0.27238189757567927 -0.10717592105757025
Ni 0.6236297191948277 3.0874835978044732 2.6650479437706838 0.1940424411338271 0.5295251238247333 -1.0482914664710654
Ni 5.249403456538674 2.6568615513803406 3.9867843404288883 0.07833277157363283 -0.41777521024323533 1.3177199378453757
Ni 7.922056732220935 5.651403588412025 11.797547372691264 -1.0457712711523732 -0.502656067348031 1.0444985750875366
Ni 1.7292266128615654 1.8402841398513359 9.988015390081406 -1.187895426150354 0.32745338462852636 1.0919706525265709
Ni 6.132896542557717 9.233669555828138 3.865335202812429 -1.3467281521522676 0.20130323646129847 -0.9865489951559461
Ni 6.261348396137615 1.2758494883335367 13.714344994069789 -0.5171457763237739 -1.0093107143324942 -3.344457310749279
Ni 8.503717015351157 1.0355716084209852 10.272871855047086 -0.1439002730617973 -0.14297210482057313 -0.5004508321665961
Ni 7.844513274135419 0.5452812111879262 8.17135042149755 -0.7279435825390689 -0.41949579247876784 -1.6701531323476912
Ni 6.450446094202813 4.193166713348705 2.706390396834817 0.9746291037899085 0.15417517262524416 0.2501930201834659
Ni 8.47604166706417 8.003283363986364 3.387263945131207 1.3353607908555907 -0.5362922673452377 -0.37104412473528353
Ni 7.898954892218421 2.0837297365674776 1.0753751884107112 2.661666156377132 1.9028521095114517 0.5276747008795558
Ni 0.417004612945978 6.651268093218578 9.267280155747414 -1.1418176579556851 1.5308083398670602 -0.8322352400703087
P 6.181452580307422 6.274553464114711 13.026777066741431 -0.4771183280882428 0.6503518028965186 -0.748192305485776
P 8.560304808428306 5.048825128046262 2.4726157083128304 -2.06132128152636 -1.8181134344114753 -0.7547313921558743
P 0.3496006602149123 6.437700251442806 12.385462490717094 0.22095057837858076 1.2017048212296206 -0.6135017239477047
P 8.526453349568639 4.835444725134608 9.521383526277292 -1.9878980314392023 0.7593241537328793 -1.2919988789301877
P 7.084598631229212 5.475342263346217 5.992082158694932 0.017916732379420756 -0.12635455086855013 2.289985426499114
P 4.356397848165654 0.6566208336681939 10.354431190796323 0.5246490266793544 1.1419284725019367 -1.4592938767668415
P 4.538925814043525 5.391725786063285 9.379757532132878 -0.49536004790725013 -0.6001042195948761 -0.3489696614337474
P 0.5277434938667483 7.366038085702023 7.159517945217079 0.41776981092659665 -0.9552797527290193 -0.1879404420011473
Ni 3.814371512853132 8.566855796729222 4.087588961551417 -2.3367730762766143 -0.6987713318504869 1.096283420969312
Ni 8.526275282647727 8.439790990743795 5.915089770869923 0.5653015100933941 1.6961629261478917 1.3290417906160983
Ni 4.851077126402029 7.679979439212852 9.58481002631178 0.32367026343701033 -0.16076002493161345 -1.6417768951978435
Ni 5.92139052828724 3.9536854486086543 10.88414654151359 0.6120284818362879 -0.7594372822719759 1.0997713795179125
Ni 4.082634015178464 3.88434244082829 7.269457399382388 -2.0934765261026658 0.5593085257347529 1.1445517690573965
Ni 5.139920416007492 2.3298275932108856 1.4224857233158192 -0.41148346369725264 1.2231149114742805 1.7433203005599849
Ni 2.977878722011616 8.707566152022421 7.230981823744935 0.962267239790446 -0.42455340950733333 0.14511460508487267
Ni 6.139222604221691 1.9880984280945984 9.397411461549808 -0.3866394080703793 0.04160996223130253 -0.411498118985272
Ni 3.0627604116273415 3.3516130731760096 3.5760617410138167 -0.8186839837484352 0.24398791981401854 -0.04624077613509456
Ni 4.585401280401522 3.680755718566789 13.481666822902891 1.3648323179521462 2.9606111491533205 -0.6428310690394413
Ni 1.329963088404333 8.885183219660407 5.517111139826217 0.7942214798306966 -2.3346362324392698 -2.8099190499806705
Ni 4.121621298914958 5.950902777442582 0.5159048552090709 1.958078119864292 -1.6814631580438721 0.09342360446848426
Ni 1.637953257979424 1.241904310041811 6.688127008653014 -0.24595609928398288 1.6300079275873736 -0.20475905622038285
Ni 1.091709548224253 5.427254822756806 3.0512441678159465 0.5301051646979194 -1.188025009749683 -0.1768312194618632
Ni 4.457136865685741 7.7609155407389 2.0632511034682923 0.8774606875670113 1.2245477872660653 -0.5763811649463234
Ni 8.83856717415432 2.7184727060158473 8.785231445369615 0.15056508667648263 0.163852290703692 -0.2958722673881356
Ni 0.02316088324471054 4.635344365745698 7.489790846958488 -0.08136924440711148 0.7220117904356661 -0.7052682524287402
Ni 8.994863070998912 6.428750045681183 0.8040180704387945 -0.11282720580607665 -0.11779637688589391 -0.05517073163487272
Ni 3.7936407744817084 8.253842265595775 11.450663638811738 -1.0396391901127062 0.4983762090257546 2.0762447356054112
Ni 5.582707244712867 5.591554359099225 4.558279813958003 -1.6387103404573777 -1.0442538060665822 -1.7611521865350832
Ni 9.08958530098082 5.660400653889677 5.373070933111965 0.8221434030519453 0.8617098524906579 -0.9007420266924553
Ni 0.0570048445498126 3.7083842071377466 13.71640213560348 -0.12189908620035779 0.16584206744021118 -0.06882200386972019
Ni 9.001882656460122 1.3434493146776056 3.765642094154118 -1.3716010041345474 -0.5038238624038872 1.1112582971115894
Ni 1.405716505337524 0.05516513209849682 2.6926052055732757 0.03197192492090623 0.6304316669338239 1.8082784505989247
P 4.926118275651573 8.632787417182643 5.823653344175999 0.2735754036631482 -1.3869366060503532 0.6356952293256085
P 2.5280441920154124 1.2783892849423324 4.3995490862685225 -0.8874666497397877 -0.2803448611764978 -1.2321626234988456
P 8.638298119787704 1.5319097206048033 6.179741263478026 1.1942601920261173 -0.02254960316574181 0.11346046851470136
P 2.891741192006301 4.44059538592735 1.5641932533661251 -0.42767138631102475 -0.2779707045173664 0.2876899886876594
P 2.4006794838473975 8.091135959598356 9.60921269203127 0.5481933896581977 0.6103595787742971 -0.02978134502749065
P 3.712901483762985 4.640770720861907 5.29971392205652 -0.11719139631204334 0.3019678387629122 -0.7895713826531952
P 5.744701283026638 2.7185664254479063 6.356467996511452 0.40684133693955093 0.28774706717783993 1.037409272340923
P 6.943485282378159 1.9279586685424164 2.932100528228136 0.13749359820450513 0.1504280468779861 0.7108817419607757
Ni 6.950720422533104 4.725849221284957 0.5230069137704926 0.7678769283988969 -0.8675794238975574 -0.5432643277876966
Ni 1.8896555366599528 5.728234778813893 13.588178020243486 0.41787882570063517 -0.5171288070429094 0.5208304242642127
Ni 0.6988489353652833 3.184520697758236 5.360863039891976 -0.38232612540700606 -0.2727094561184271 0.030351615708663855
Ni 0.756664453002405 9.281888203622433 8.340985405107082 0.4232915120757742 -0.7400262247352158 0.620180421519461
Ni 2.8226699705789073 6.549769948298812 8.263157039948107 0.19654489584070667 -1.7088436069393538 0.10376998069981481
Ni 3.9292059329548756 0.9075733568922518 2.620482479438046 -0.9441198794574578 0.14571135812860714 -0.04665112419963579
Ni 7.857427811873133 8.221434085989815 12.35992207109241 0.16855689526821294 -2.2390179343123116 -0.23062255425070605
Ni 8.669263020139958 0.9093493401297675 12.447380107895434 0.7954275843236559 1.4192240053291494 2.129438288909255
Ni 7.4035071146391624 3.4982558685185365 5.187743567798496 0.6955877919161827 -0.5518101604751786 -0.41073732955984743
Ni 1.50796440571376 8.430878272754995 13.00200420926531 -0.7360582412264032 -0.1809439560786561 0.6705267351824968
Ni 2.104254292188372 3.8810060290469943 12.050635761771943 0.05946473102453631 0.08753809222198473 -1.9951853091292346
Ni 4.994608436600201 6.538842262520747 6.876005416907126 1.4523953498747955 0.08949007374203298 0.8138816772637855
Ni 6.604286541927461 6.024032050278125 9.950321434507327 0.30674751953974266 0.991225574696009 -0.587615343099246
Ni 5.47569839718804 0.24674920669621717 7.591226199858774 -1.3189437829501478 -0.1368906745131836 2.095986694119029
Ni 3.804999569647244 1.9784640704789456 5.9662811990491225 -0.280275184280827 -0.6656130999309634 -0.3750948977658895
Ni 1.3040777812696707 4.545017577127352 9.548844257064864 2.204276674176384 -1.5223090441467977 0.06381349491153526
Ni 2.115528739865055 6.391627778642662 11.095453870588102 -1.0300520606449035 0.22414543116679464 -0.33573747901418954
Ni 3.4084351648333073 0.4419742812294249 -0.0027712836059810247 0.34254113219958426 2.4124301007902966 0.13030993597187235
Ni 5.830716977770276 8.37471221712211 0.04790187611393376 -0.6675023465338762 -0.850990923411257 -0.4884000716496492
Ni 2.6652213247199925 2.747713168818217 0.1353599129169582 -1.0485015255993426 -0.8724107838479297 1.8063676067294567
Ni 0.9436328455712257 1.2364310952095725 0.7562680198047961 -0.896592780410772 -0.3218715196653747 -0.5553346286886695
Ni 3.484825873904499 5.964520210920736 3.1423507021090233 0.22134087183846396 -0.9334721699356245 0.969759434402433
Ni 4.503593588157328 1.9627004620066424 12.107011748932642 -0.25759728306733704 -0.7161000529369216 -1.2016901659416013
Ni 3.3562334411765127 1.315595899469707 8.421214862115404 0.8158290307981434 0.5105100161748112 0.2740865389716118
P 1.4503456988839618 1.489361098450073 12.241930243324601 0.40074473712350983 -0.01436166803831075 0.09613020476636992
P 6.442151924465603 7.26050063326052 2.6426621202291 0.2645024948276025 -0.06486533321481733 1.113360945276889
P 7.420329752693731 2.718144688003641 12.287140497349807 -0.5016386818271102 0.3643769971277531 0.3600804266349283
P 7.688948388860887 8.265688401808017 9.713364034072622 -0.02999166126608383 0.22675561509613204 0.6109720155473155
P 3.567523900753253 7.843276177632242 0.07185468855954183 -0.6781541698207676 -0.3990516656918031 -1.077744738735176
P 1.6497431625324308 7.173594603912323 3.975138763801252 0.6054770538710154 1.8358069950364964 0.8904254752577956
P 1.6040080796876983 3.0358535626832377 7.709451389012408 0.5658800083046834 1.5943840077361766 1.0956020786315712
P 9.24828041528612 8.55031431697083 1.1504622601819638 0.5225952294741193 1.3159178516396304 0.38081714496164737
