# total energy = -340868.045548974 ev
CRYSTAL
PRIMVEC
9.33567934791062 0.00000000000000 0.00000000000000

0.00000000000000 9.33567934791062 0.00000000000000

0.00000000000000 0.00000000000000 13.66371039059731

PRIMCOORD
 96 1
Ni 6.994916362863437 3.537783647826726 0.46724514360234376 1.044075628617505 -0.107641290729763 -0.6297971186736186
Ni 1.6200110795368396 8.275566167038559 9.260976049418218 2.0239868067419593 1.1858002341842224 0.08110673477434419
Ni 2.345962831439197 5.783920061356022 3.7685336311316036 1.7646820540652124 -0.32573717326836804 1.7043968840219097
Ni 6.165226543457588 7.507127739001536 10.996608582538931 0.28668931533728687 0.745765184101522 0.8568013594454471
Ni 7.122936532020688 3.5122692365157975 7.936689413428408 -1.4959855757609204 2.641797185367347 -1.1275598624850902
Ni 7.828135069014815 8.899861707903701 7.663510635200036 1.3622115924998475 0.6632312299623481 -1.0730324208611715
Ni 8.658095623118072 0.29170169937071116 3.3941747615062883 -0.5024951162901347 -1.437236639856486 1.3445247167430456
Ni 6.395435057367648 2.1154462401148444 2.407231027030622 -0.7001980369946844 -0.3043797906385145 -0.37418498435711045
Ni 0.5651708172228551 3.3283376845041177 10.606509757747048 0.6733014697141565 0.5186992368538228 -0.47030799003462875
Ni 2.9565629308871686 8.246914967509381 6.952614533177347 0.47820744738736354 0.1358267520250435 0.8240552753626776
Ni 5.096123230429796 2.648196110539092 4.562914044587875 0.5033009000208816 -0.8507461543903025 1.0458216647743344
Ni 8.98608604118864 4.72419910594531 1.1678029144557227 0.6473261286963174 0.13637413988808125 1.1960759050786174
Ni 8.455072607099494 7.808147379802704 5.727554030923532 -1.1541509827100573 0.3446772047059806 -1.6606120256264756
Ni 6.679389076552871 9.069425649594299 1.6968829293782048 -1.303377810191091 0.12699809798982 -0.312942592606861
Ni 0.3577030843271712 7.221736025216283 10.851595610063656 -0.8577704082269357 0.38146840539240107 0.6130641221896539
Ni 4.478624064037522 5.997557744648848 11.39661349655219 -0.7571091483594314 -0.8689660198324389 0.16184940134105028
Ni 4.170051858746584 7.473164537995623 9.033789494871987 -1.588692099557722 -0.8370892257285002 0.6912009757023967
Ni 5.636743078437326 6.007145487208791 0.5050546444472988 -1.0512567197469767 -0.40156157659785036 0.3411357672116254
Ni 0.12315721385104474 4.723302880740096 8.246814142173793 -0.37905953884059235 0.3248331733968599 -0.1354886519593344
Ni 0.5280120132196021 7.189864016355869 7.642523094743359 -1.098708999691669 -1.280628175199401 0.03483741939415936
Ni 3.0347305730044054 3.3242393213261088 3.6209374762158864 0.811713723078189 -2.387280598107863 -0.9158950802838097
Ni 8.438249713143295 8.839226471363459 12.98974808917976 0.28993918973315225 0.43835560549774827 -0.47309866540588846
Ni 3.0218660070378993 0.8567548870353819 12.48843985280384 0.8046262201037885 -0.39558581863038966 -0.15417260152208287
Ni 8.35387384434411 3.764463274991258 5.45302251277604 -1.8129059220686068 -0.1453164366830336 0.6575249236061902
P 6.8851847893000775 3.6998043607067745 3.712607311190422 0.5623174877644057 1.7097522347965521 -0.05653007387624457
P 5.384278305264457 3.7384447370023963 6.442657723571114 1.1667858978652486 0.19258411142074575 0.8570337871712271
P 7.748072284015719 3.802674210042715 10.100679318356487 0.3098166453833696 -0.8540999013538838 -0.8690642359732
P 7.161362187694228 0.12416360007106601 10.90879158237889 -0.3459959235174041 -0.20195038312699412 0.02845902667164131
P 1.0925545392308855 8.121322074949584 3.2631942484680656 -0.24138776318701008 0.12614706284343438 -0.5983558694452018
P 5.631216356338507 4.418707674797295 12.677900927618104 0.5230567424915702 0.9712612157589401 0.019446795870701993
P 3.8806644742547536 1.004845832949811 3.4871973363999427 0.7578352278921787 -0.07902851208907678 -0.110900421097009
P 5.740425131865491 9.152279802680464 7.28912469210498 -2.0282887765514226 0.9631861520602896 -0.6316498556116412
Ni 6.139637446712891 0.5073568229431915 4.25205086361611 0.14461169730652515 -1.0131714828394809 -0.22625116465588777
Ni 9.149105671745334 2.5627933170255983 3.2896338255897932 -1.61855597699669 0.5944097403132602 0.7981748080514899
Ni 4.9463696000461095 3.838103112686321 1.400052207843489 -1.7779893126970796 0.09165160016972604 0.14636210433872857
Ni 5.5332010601974755 3.727839405407367 10.636023574036244 -0.4459043643792837 -1.3063849724485308 1.2116899574667905
Ni 3.2973338938112544 4.1215903479104945 5.94573632286113 1.265502375301556 0.5783251760465716 0.4984852237997931
Ni 1.0042483494796683 0.4043730783207551 11.310996915984537 -0.05297115288039265 0.6021842420523564 0.601347605083674
Ni 7.0988971580266735 5.788102445647019 2.4941051235893417 -1.690662565154953 -2.4092869271756245 0.48595263855042115
Ni 6.9185971852319526 1.5002623221693736 6.495263342413395 -1.61739640947095 0.7849297701161255 0.0027464523968855925
Ni 4.095833208939821 0.6769188974979444 5.76355801140715 1.9137245334495818 0.5150498130266936 1.3912010377536623
Ni 0.7261692732282062 5.6891629172631095 12.749443971760135 0.9025713665917101 -2.6901943457238118 -1.3197343971722433
Ni 2.202370749341357 5.670930335744542 10.04484915591128 -0.9712272771972111 0.17046928179957738 1.132371939161753
Ni 1.422878877106699 7.464893126205838 5.354261295865251 0.007823866919792978 -0.852856515865086 -0.8852868684796494
Ni 1.910453395780641 8.73685141302623 0.5108464998359926 1.9329574135372645 2.34948538163696 1.4622167068405914
Ni 6.248575487542466 5.360677708193829 9.324676189446707 -0.16565694801259856 1.383879050170952 0.01958409277951466
Ni 0.8476983446231127 9.377503063886525 6.685530086344429 -0.5861557278345841 1.9819335863256513 0.5964607093050179
Ni 2.270549214692149 3.4396469878558213 8.345152452815872 -0.2434407890612969 -1.0836068539429078 -0.2849790175143996
Ni 2.567358464164656 5.781959568719616 7.70060782372043 -0.4091193343404502 0.6186855821414894 -0.4391490479333211
Ni -0.03243028247782834 5.6986759743892845 3.570600427424303 -0.3194649671064111 -0.23492889493554375 0.5049862581431045
Ni 7.951748797579765 6.387415708916829 -0.3934755399661091 -1.2796375291513573 1.4372073292804473 3.6893407179287947
Ni 2.0464088922757226 3.112347410047604 0.3870301870319469 0.1628595877731195 0.9314690234626667 1.0251921614494408
Ni 8.32329949489541 7.4923213517570675 1.9305596481188583 2.9602175132593276 0.756830183666432 -0.6798279579787646
Ni 7.369958604207728 6.017031971503806 7.289534528422782 2.2947093143373447 -0.49678521038955087 -0.6843546422045247
Ni 7.884167815699116 5.628919779250148 11.365528485450104 -0.4310436452173674 -1.804728271353821 -3.0108001113028857
Ni -0.13912682672644722 3.234037988693033 13.056317083432857 -0.044707627320019774 -0.6458441448341523 -0.33589971562366666
P 2.514947961018094 2.070644315533378 6.12146554710926 -1.1105345315716875 0.5220239303516815 0.6143046794649742
P 8.334222239583953 6.501880471845223 9.337191601010348 0.2129361927145365 0.3065708847525624 -0.7346611037685605
P 1.0789711259643646 1.2741241643996584 -0.12671037336254842 -1.4854818480161192 0.5101554610488698 -0.08738896823863014
P 3.9805375705607604 4.978129580755872 9.14297586476884 0.9961816331497039 -0.291084359081189 0.19074063045410375
P 4.766760467513743 1.4484026240968488 0.7116438899282889 0.6060889764234013 0.6357813612815115 -0.1990650911593991
P 1.3058934807886418 3.9140675345074074 2.7527865255554587 -1.3094152746344223 1.239259382444627 -1.8324635324855605
P 3.4057678079628975 6.44879779979475 5.828145974529553 -0.8308357886196208 -0.9428181299268988 -1.3326595898743434
P 6.185130211556709 7.883019527154936 13.45364452464554 1.865453871368652 1.0341812523219285 -1.1059520544073276
Ni 8.054964067046882 2.0073950888112617 11.325412138269645 -0.25232677869701703 -0.17033944108993243 0.3247843224367955
Ni 4.319002620717265 8.672024456515768 0.47837980820920245 1.088267492643371 0.1258570424068413 -1.943687655470575
Ni 2.1403631679556305 0.3980892326371157 4.6028390103443035 -1.2064598194161027 -0.3503518864932547 -0.4964424823381514
Ni 6.676523023032031 1.0382395575232441 13.229408978301059 -1.1504527079228637 0.3236910893726167 0.10987120850154626
Ni 3.0545035415944333 2.5315748057106533 10.523119736673596 -0.243065150889433 -0.11347383825114007 0.18920053966049352
Ni 8.270692942485208 1.4087446587661405 1.2738552968380943 2.361243807724469 0.5690627769080393 -1.3160042407058499
Ni 1.5449708899586303 6.368669665041108 1.7377367952171203 -1.0500555003500238 1.2093808497176397 -0.8969043981139199
Ni 1.3716540052212005 1.0297907678282603 2.343503813532392 0.7436208840650097 0.011662781049908947 -0.8252942899761011
Ni 2.501765981958075 7.627184573783294 12.171004353660505 0.24925893840497068 -0.3945962010236107 -0.9038157805217725
Ni 4.735980733122183 7.849177689978895 5.017655913009565 1.344477151334562 -0.184892656313759 -0.27331263692006474
Ni 4.146600632543491 0.7111827073747725 8.72680715575238 -0.5443693879264173 -0.8074361787487577 0.16491081387519343
Ni 4.74761298943152 2.9520818048610997 8.479534887362218 -0.06140282858751361 0.7239866547738499 -0.5733999708308124
Ni 4.8045512970002555 4.681226974491156 3.6295459060255495 0.8296798206383066 2.797481852658582 -0.28902979054500544
Ni 6.319685356168645 7.594014905511165 8.595225424972327 0.8089898963891228 0.2638661467951842 1.0259285253948331
Ni 8.80080081568992 2.199943472743903 7.97941508295113 3.087706691952953 -1.0800242787979721 -0.5277906576321297
Ni 5.274686766889414 1.4230562550118975 11.31515035966995 -0.3464939461997452 -1.1317291633714317 -1.0090533469060492
Ni 4.122113145946869 2.963891439075635 12.877021629722313 -0.42437728894078525 0.20375735442874587 -0.46313564065590557
Ni 8.92461992919773 0.3535552420492913 9.446774737274094 -0.4247755528204684 -0.476830878754811 0.8227972345858603
Ni 5.075080609465714 6.099129934573074 7.175811951992455 -0.765777622667707 -1.2299067375851334 -0.4628975565031705
Ni 6.746671316698449 1.6327636173526936 9.14240172049675 -0.36034550737085685 -1.553503467471731 0.9431387464911113
Ni 6.717319941227698 6.045664499674541 4.968343921796445 0.1400904123974039 -0.08752909336092023 -0.5891351221778821
Ni 3.057406937832157 5.591390348781822 13.608878198731936 0.6800189909436483 -0.5970582336797007 -0.8467277772595289
Ni 3.3968802413445274 8.371891705240593 2.3547897161426303 -1.6271812567718558 -0.44188752991040675 2.9955490986810864
Ni 1.2451648874561891 3.746921533735043 5.037482094971153 -0.5861210179419067 0.09226686515622175 0.27422460721137293
P 6.905620591114795 7.857701165107647 3.550036726804258 -0.2530243189846739 -0.4798665802573413 1.5323664283827996
P 0.5994710362486452 7.4455962772560795 0.01109545475413063 -2.80964342772178 -1.501665142644201 -0.5967900676199787
P 3.7033425831315245 8.748474333656345 10.67126202882374 0.2087941455217049 0.7889167797883316 0.6887332308881945
P 1.5730619487345487 1.2287340920272707 9.159454272161787 0.5200261831953624 0.845538384937118 0.2125448708133888
P 3.7009433135717336 5.976608480476978 1.9653611931188146 1.5014609970531947 -0.08820606482328679 0.46451915126699356
P -0.07941208815739283 5.784620237297594 5.775992202561569 -0.3569452234400562 -0.47239495447064445 1.2690165591024016
P 2.2295935899497246 4.342239126298276 11.872151524006528 0.41049564586268655 -1.1987817340455547 -0.059794089339497015
P 8.77040384414642 1.4265011206444378 5.538298341052128 0.9207588361340143 0.002703514974092118 -1.0207963463745904
