# total energy = -340898.0480399935 ev
CRYSTAL
PRIMVEC
9.00722572292938 0.00000000000000 0.00000000000000

0.00000000000000 9.00722572292938 0.00000000000000

0.00000000000000 0.00000000000000 13.18298530983988

PRIMCOORD
 96 1
Ni 6.305994816422583 2.139171093046578 11.338000408914633 0.888964831551869 -0.6223596885589668 0.1385194683658582
Ni 4.643729308182158 0.3901993270196968 5.979868390181373 -0.4183699064044407 -0.5152431599844223 -0.5657293416594322
Ni 2.7599761173462447 1.6685345374021359 4.724966378458569 -0.00884999419146218 -0.7253274850724605 0.7454468815301549
Ni 3.230585651313265 4.323909741451049 4.918505540097346 0.6651191910136803 -0.2533385077909831 -0.2412880043843522
Ni 5.232072290673198 4.411054651134307 2.6647958615205116 -0.8080542719487309 0.4720242013947871 0.6055657569300796
Ni 7.36826199197764 6.109538214344902 2.474340773998071 -0.07644352497071996 -0.5259196658616621 0.8528364612604281
Ni 5.381961535328403 4.576067027919559 11.66462223257523 -1.6863526249256893 0.04373677876631822 -1.0053884964599524
Ni 5.5694469405022575 7.936626947628631 12.330731801239223 -0.8630925917707974 -0.23372536154574586 -0.10256927552349433
Ni 1.7882045394746717 6.4394188523024924 0.4579516795403661 0.9888935841287226 -0.3646755022047784 -0.28059862905851674
Ni 2.9227727165829607 1.5955850155907958 0.41947100944746485 -0.6684328287679456 -0.18245473629622772 0.15231960747374412
Ni 0.4669264793345159 -0.0714372085983356 4.7861092286820215 0.13381640646323406 0.10524245148028327 -0.3164004692484744
Ni 8.664428807290307 2.253761019763935 1.2244530848820543 -0.0991057424549261 -0.3316345125894095 0.46499146291772175
Ni 6.875692841493018 0.7624652674575467 4.681779432881482 -0.7488222257602909 -0.49040861743924574 -0.06551299410114524
Ni 0.8127201831254305 7.3747742162361405 2.4972920860770285 0.19718227231438945 0.6946801925002488 0.2674597776837136
Ni 7.467962974435934 3.848913688515992 3.7154923548038252 1.035566048484597 -0.018843100848432066 0.5208044561222838
Ni 7.507234478954695 4.012376822462429 12.53000586354935 1.1489650676337437 -0.6514157253846588 0.045449133471734626
Ni 7.888690491883483 8.767489484974632 6.8241588997605325 0.3703370713659299 0.9233947310949646 0.8434822737390377
Ni 6.939121725626302 0.5475924914947603 0.2491903062876667 -0.11483703714725385 1.0289649982283116 -0.40548250891881144
Ni 1.8076151110888756 6.526716884824471 9.309323657010943 0.2383057818275767 -0.38278635287287627 -1.1023769354615596
Ni 0.02060222758847739 4.693467209088717 1.3073069521908325 0.4595926604996536 0.009012745021571573 0.43407549006515567
Ni 6.4090645013327165 1.8668196063186495 6.8318186445868525 -0.4942220776480649 0.45670171210510374 0.8456204031279629
Ni 3.4965059788149566 4.452199658620936 0.687381933852515 0.5101125236260763 -0.3335952358602061 -1.074707494570749
Ni 5.844230378198091 5.517844543853638 4.9933591894442975 0.6538027375595966 0.017740611812872672 -0.6344955525905525
Ni 5.409739819717362 2.8423652118033784 9.151654871426182 -0.7941417756326968 0.20737772479015254 0.1443180773255063
P 0.21198505936904447 5.4488131652683665 12.415854588728799 0.511697351614693 0.21167300973139674 0.15748983882077394
P 4.041398104012762 6.2403231330633435 12.595406429411797 -0.704624191086838 -0.7604767792800838 -0.17659673485355393
P 2.5027387555225546 8.38390776675538 1.436510202057555 0.06710630673019409 0.531262161120498 0.9533552820127968
P 6.405011249719541 7.789629022457491 5.697765680794727 -1.1215349964472492 -0.7075616764486071 0.3060684911948471
P 4.724578167026285 1.1010703043318506 12.513988313896663 0.7644244510739222 -0.6065394336972586 0.519595523415847
P 4.095342379371215 6.140351933830838 8.038931919067744 -0.7176329446416801 0.19707711419509286 0.2063433699883672
P 4.774559263029635 0.9925872767116776 3.7232439733333766 -0.0035056991604133178 0.3539966823346936 -0.07988777476557854
P 0.3125561398403001 5.535958074951626 3.465134712051564 -0.4431993067432948 -1.074975146409839 0.41660998629054063
Ni 1.5456489557164819 1.0780658496206315 2.5990917521483663 -0.22378521961389847 -0.07527650124581228 -0.16534095943407653
Ni 1.7986619286366627 6.463125870626661 4.7808093770171505 -0.015190334587193193 -0.035937080216241334 -0.3374709167655285
Ni 5.8926352096852055 5.6530970465723795 9.202171897365051 0.3734902722829309 0.32465988104378923 0.7405486728975891
Ni 8.536210947926875 2.3079574974449857 9.992465889676076 0.6640164448678048 0.4699171823541133 1.8312453438077427
Ni 2.3267105415752747 5.346689239067975 7.078814790667921 -0.061904193703964355 -0.2566035516955 0.0013673126611718387
Ni 0.6796177052068336 8.987626083699062 8.933871860805137 -0.8314952765804905 -0.5815750504424371 0.47844193199567275
Ni 1.4291314826764154 1.041280339424618 11.406222037899848 0.16647790125199718 0.5218598939699916 -0.8403051615626366
Ni 4.228559249057562 6.80423851916565 1.7359491189550407 -0.8697846590789923 -0.1395934181563273 -0.21182958991391906
Ni 5.533949463596652 7.818947542459455 7.930857819499212 0.11159230495771105 0.44999601795015404 -0.3782936072088453
Ni 5.240322909512459 2.887644535935445 4.84913729126689 -0.17394207083952626 -0.043825738935698716 -0.15524809397444875
Ni 0.6867406193750528 7.294808065521106 6.786522206725753 0.2189831702395648 -0.17143678791916925 0.8528230915239893
Ni 5.189990531702636 4.382087412938818 7.195339469488633 -0.47275748001638573 -0.35457440921503447 -0.4966348008546157
Ni 7.963135213178794 7.32507234423281 9.017729133068821 0.26788735213943543 -0.39668805055563294 -0.03916895688997771
Ni 4.354669417582142 0.4661194319022038 10.430575551486081 0.6792394324651464 -0.30333695119629694 -0.4663811441763968
Ni 8.14881016596543 6.859137560459652 4.723911632316563 -0.11278195439043802 0.4254039304330868 0.2496096368761701
Ni 7.0943612624108985 6.098693514473208 7.079092213222778 0.7462356959800374 -0.25055066063320075 -0.5413992495544998
Ni 2.273036482991033 5.031418321369428 2.559700451526372 0.23464890180127973 0.7510945667342355 0.749078050524839
Ni 2.4642959157780426 4.937932324718003 11.461709251039052 -0.19803047924729766 1.1291817143592295 0.5253473382979598
Ni 1.05222411878019 3.3482380348050205 3.8134945744749085 -0.7604916916784193 -0.35540487553612987 -0.413103772909495
Ni 3.594477573918296 2.6276599702406034 2.6431091639448647 0.29169910984705244 0.2622586930987483 -0.10880677179277391
Ni 0.9796078643237108 3.546874385528009 8.138370791255053 0.25423787967680084 -0.6898562887490443 0.5984003495298921
Ni 3.332862700352377 2.789618897477263 7.105206863005173 0.8543073893789997 0.09315749529129118 0.094568773816521
Ni 3.9658274794915687 6.876719665235023 5.817032159151107 0.5202436985228072 0.7847809032430871 1.6329305005508072
Ni 0.8609583809351147 7.262048785260846 11.408937716480676 -0.5270550650176857 0.4902687494272718 0.2420691055247508
P 0.14537212091296764 5.613186029021318 8.15923963272742 -0.2202000733658014 0.4932856818767246 -0.7111162265690849
P 8.310057522363334 1.6893772579196618 8.026447904099166 0.8283461894285477 -1.0828481214000125 -1.819826817558156
P 1.8317724907033976 3.131650283048571 10.298904321748225 0.1617799815556956 0.40092008635910953 0.2762133555066275
P 4.07257211253098 6.057899788793055 3.8669254379623603 -0.8389100809873229 -0.40364622704102093 -1.7531090045156323
P 7.0429119886009985 4.07079768904699 10.291587752225155 -1.0039754181625098 0.0966074015131046 0.7105413279022215
P 6.160347975122501 7.887708704270514 10.145190609015344 -0.13817339788034913 -0.884526079054225 0.5175255282606958
P 2.349363714480018 8.48493281140731 5.830175503048762 0.1332600197391318 0.2946538216000022 -0.3270417510124045
P 6.979762328467735 3.894111947615795 1.5319813912768563 0.26477348910080206 0.06459331050035326 0.09027117488243162
Ni 5.3847807970060115 2.9170080920664447 0.4629389804697326 -0.7321198254039455 -0.3260418489929804 -0.32546283656105884
Ni 1.3657836635753962 1.1118879825261239 6.989777462842599 -0.21988022813253746 0.510193770485973 -1.0322729795556222
Ni 6.669949789608264 0.7189873884868911 9.072187721020857 -0.502063942289987 0.07204668145460495 0.37596624462724926
Ni 2.523068064169078 1.4909030372612002 9.079623185924582 0.6349197846121646 0.7250960857879448 0.5944822454224085
Ni 6.446408459528767 1.9311041769036026 2.467393500733089 -0.04779115134134995 -0.23993200457709002 0.41074067199395714
Ni 3.9466871246515756 6.94148161878775 10.39537711447727 1.0683332156132892 -0.34292628345314485 0.19577022245821124
Ni 8.209969229195336 7.020520025244659 0.40017302815584904 0.7108213210364854 0.491564842530876 -0.5914794540403426
Ni 7.506874189922412 3.8012744712224764 8.19927675143978 0.49851504859646406 0.4041859015945749 -0.6557385211297286
Ni 2.8893649160645927 8.388654574755696 12.459318956860741 1.4520323101084218 -0.5984530571446983 -0.43178412292781765
Ni 0.13124608867976292 4.96748503259095 10.309423860768284 -0.15255897717805983 -1.1181588808861647 -0.4440002053780353
Ni 8.539660715410978 2.3227653766717844 5.742033493468662 0.776234813445289 0.1279422070706442 -0.29972480836500637
Ni 3.753437094961206 2.7787922120571826 11.533754447379364 -0.48944085420933775 0.21602948692787957 -0.8468450195636834
Ni 0.9965234343893606 3.221929707312685 12.48274494973973 -0.10975782285213356 0.3586074416338275 -0.1972252097371829
Ni 3.146512205630212 8.398544508691844 7.974401451218259 -0.4733123240785913 -0.8249312502097276 -0.19720181269841522
Ni 5.772271651225527 7.659825891352017 3.558443266354591 -0.3440205449585882 0.5811392484565991 0.18391178045772844
Ni 3.267524284347999 8.246097211907434 3.72619744267551 -0.17410250767679047 0.48487997431153274 -0.40293300302408025
Ni 3.572797181400714 4.461053761589271 9.368923569453647 -0.22580327848519174 -0.2728878906778203 -0.3307791065676497
Ni 7.198673944482405 6.239746670611692 11.412998173874495 0.3806132564809574 0.15387898154106402 -0.6393297407544022
Ni 0.6652953154510349 9.0072077926036 0.3432374531068723 -0.5154568186571251 -0.13579229924268227 0.17272105394823156
Ni 4.744709316705054 0.23466885684153233 1.5460605859358643 -0.51674622689251 0.15857664412704947 -0.0021152465707899052
Ni 5.953379940527986 5.604845337923984 0.540592075597517 0.12108250383633341 0.6621886476304466 -0.49313270123862807
Ni 8.029788684151004 8.782009132975604 10.97446607317414 0.0967495835179237 0.38343092843541066 0.7620122420880038
Ni 0.028432208982550486 4.847553820970011 6.0133401420029715 -0.040590519827852674 -0.13022097580249184 -0.4471762891131718
Ni 7.87863842788281 8.814390109751969 2.3762592907398856 0.7760160125662635 -0.15796343602308277 0.6257553445040771
P 8.541264001604633 1.5340566561028017 3.5351226580175443 0.28398708591477545 0.9087021620797963 -0.1271377088914778
P 1.7406644016650343 3.1319204998227828 1.4432340961225218 0.49817334898632915 0.14298496033637956 0.555917754885649
P 4.533129582497327 1.121831959817113 8.08491380681276 0.8166726097453613 0.2380936658167706 0.030233087852928577
P 8.481546094503857 1.5308230620380687 12.255852030937431 -0.478764348332098 0.17442518112353184 -0.023769334505455837
P 6.3793046272662055 7.708681084129484 1.2869902536604385 -0.9729326899240921 -0.5512373186908442 0.40562391959268207
P 1.6063666648818409 3.2839084280910322 5.960066904967144 0.13365185586091174 -0.5574951266750978 0.08133324896285347
P 6.983257132080872 3.8826637636150276 5.9527377253279425 -0.9270798932560356 0.4218704633585315 -0.14006058760073298
P 2.366504465190845 8.432132453726352 10.21221247552306 -0.5107866668749654 0.5416383621484995 -0.16152055724672185
