# total energy = -340866.7623403845 ev
CRYSTAL
PRIMVEC
9.26754791669707 0.00000000000000 0.00000000000000

0.00000000000000 9.26754791669707 0.00000000000000

0.00000000000000 0.00000000000000 13.56399315418616

PRIMCOORD
 96 1
Ni 7.14311063616283 4.911132993931356 8.732647973600422 0.09649221609147898 -0.19427152642549766 -0.7436671639219128
Ni 3.970245218216767 2.1205631843182418 8.933082787272372 -1.6276443124512032 -1.178201595901358 -0.7253092302400154
Ni 1.9086607071774975 8.988297909448486 3.6990767738197334 -0.7697571761407452 0.6649078463338226 -2.035169562831656
Ni 3.3281524464599626 8.417546719542958 7.182921240626136 0.5408842575912943 0.45826468571684953 -0.15602893800453127
Ni 7.056069828583304 2.6258669526813274 4.670326889162947 -0.5902000731072867 -0.42398493859837305 2.0626451425441057
Ni 8.211770091402434 6.898085943701682 0.684442684277691 1.6233508272821717 -2.0897767086535755 1.1357040888587797
Ni 0.6615768639475201 2.1381159195775714 2.7904660130793744 0.27398292351421205 -0.6394834927234471 -0.45021841837360527
Ni 3.3023423262396703 6.7890903157265114 9.240646744821698 0.21095772883192704 -0.4537624269711217 -1.1247604453630824
Ni 8.410901887874035 1.9132110730762992 0.5241372787083918 0.6171228656400598 0.7051121864668501 -0.4101472613843324
Ni 6.90242315600441 0.19219781731583088 5.055992177823399 -1.613285215516054 0.33205154552217003 0.17636507845872207
Ni 4.942707528793308 5.849870698589894 10.678673579414964 -0.3351327555506551 -2.750522710300224 0.8564612024972088
Ni 1.9704103772054344 6.680326376442724 1.2841299382276774 -0.9281954949177175 -0.6371990675646445 -0.9843599579244274
Ni 8.256903048484237 0.06402948675116572 2.2360108789711037 0.7739007659954736 0.9136826460135233 0.3345396020513464
Ni 5.858674868862525 7.825748928912015 6.802192774601717 -1.027787690090759 0.7044943503771931 1.4460658081123419
Ni 8.602332352244 6.353914080471845 6.955344560135812 -1.0969449658127108 -0.04863653006078076 1.0292449913625756
Ni 1.5649088295433626 3.4573883985145297 11.955194861017556 -0.9704256072315224 1.532228874363671 -0.5780130441227915
Ni 9.1413792616204 7.6062377951461855 9.407306907818306 -1.0113519131322388 1.0622178467441707 -0.6664250543092974
Ni 5.7507264737724135 5.374241617819402 6.584097722117634 0.7426742038810242 0.3143091339370845 0.51381079841327
Ni 8.61532545405687 1.6200229354500324 11.206014649347829 1.3724450973023976 -0.7170922416468618 1.3448165369518517
Ni 3.0405155698792807 5.111339825930985 13.043637750237146 -1.0080483026803027 -0.9635965001248309 -1.1464060486573158
Ni 1.9172517238540543 8.536356680485198 9.932613751040808 0.8760452952767235 1.0078503277368838 0.8914945399522582
Ni 0.9941947098284563 8.566179648840281 7.2027510123443985 0.08842537992294448 -0.5267527032859186 -0.1734635885412109
Ni 8.839312813340259 8.336983927774558 5.053875469938906 1.7715669541105037 -1.0424851442019336 0.17001033988528785
Ni 4.4507026913157235 9.142482099791392 9.018956810602084 0.3819854542381357 0.16730682491119575 -0.11369341046111388
P 8.458444407346244 5.473719474352476 2.429596048170948 0.6222082505827671 -1.981693702400703 0.1317960335990956
P 1.6357499638212478 2.6679972243227805 0.9539503841348773 0.40875192369870245 -0.5308153033910664 -0.9525561831502691
P 2.417319327791838 4.719767402394981 4.935706823294419 0.3481348242372778 -0.08285662758591536 0.3706062658669166
P 7.7600049458446 3.265513091857107 10.632027231801034 -3.939358131766345 2.781629201897042 -0.221800842194018
P 6.624433796533 1.1954858449037666 7.3377671338716395 -2.6078318841654955 -0.5869301441067634 -1.7524909113156593
P 5.4110893872972765 4.03881580331908 4.912986503462437 -0.2784103631579463 -0.4133585692327784 -0.6655020282743958
P 6.330152088283397 2.446428694977453 0.8855039841711475 -0.14753966958659753 0.5001523270895709 -0.4858613643881955
P 6.980437372167576 7.285895742889594 8.642433957703686 -0.16432614501631698 -0.6023588199570078 -0.35414503498709976
Ni 0.44151338434142934 7.244701493561336 2.956353262601522 0.9123420728252287 -0.5611535493632915 0.24275970383387221
Ni 7.961333151110532 8.833214766983005 7.506950850094813 -0.8490911352853828 -1.8055623372193421 0.7803958868015141
Ni 4.5339716069995015 8.386657983207506 2.221700858636399 -0.49525540400858575 0.48980029443128553 0.3312028243686296
Ni 0.8286735284386972 6.145264512558146 5.287407476552591 0.37724562556030516 -0.6176813092466911 -0.8254596119093719
Ni 7.5075013424255435 4.295322987325269 12.827467567401088 0.2843354703931297 -1.1271626270466717 -0.6606560130360041
Ni 3.7213837610262837 6.3629221367928945 5.9576309624626 0.018728429647438715 -0.036948037979258955 -0.5193399557616153
Ni 6.482668120048331 5.257572460385558 1.2910926467811803 0.24625691835385335 -0.24571672957966717 0.6459950685897197
Ni 5.147233038000354 3.9523403161465325 12.560447277334614 0.5096368695412384 -0.24686652691339422 0.18197933932170593
Ni 2.51777027682873 4.068166126743734 9.685762424936781 1.1909717510828326 1.341785977655644 -0.25858073002652887
Ni 6.350763114269008 6.433160880473179 12.789990531437413 -0.2159461831854539 -0.2922506114751483 -1.1999433584538237
Ni 3.3141213793096855 2.3780990661141814 13.097920557119126 0.6701063598156266 -0.12807256200092137 -1.3004981746504507
Ni 7.890834916095896 2.532616888172683 8.204791628017917 -0.16246518054817827 0.8888221353264176 2.689804309374245
Ni 7.504285503389119 6.386424637646991 10.500402105960903 0.7928181717252669 -1.610684287558097 2.2725163231800733
Ni 5.2928262116667035 5.86841506144835 3.5305992447279015 0.03495877546337205 -0.47767728591550634 -0.010850312450942604
Ni 2.039166313260855 1.0866199625957706 5.528493461260193 -1.066121809784267 -1.604795689987804 -0.650060496908345
Ni 5.022723535250041 3.7020423890694616 2.211405539946014 -0.700695031235761 -0.13955639427080482 0.49819571758383235
Ni 0.5568758175558614 3.3426468909930094 4.8174686700425156 -0.6934098104282573 0.4101968836753451 1.1977733473856984
Ni 8.759964070314716 1.3005613002207035 6.472140185911796 1.5063952011300186 1.5450854186113647 -1.6175406483582981
Ni 3.8784686937853308 0.18769471591007153 11.33858877206787 0.14120601405908584 -0.4036469983719693 0.5172661039517221
Ni 4.942531445387856 7.970860190100284 4.587559347807327 -0.5258993541466879 1.2497129736777832 -0.21625343001322758
Ni 5.183673035381391 3.0529896890234505 7.143462802973736 1.994438403660881 1.360439073980457 0.586999306781802
Ni 1.5883464575638717 4.859392275371253 2.79140203539257 -0.7154896730464324 -1.0521812884437751 0.242267337578486
Ni 7.591187297753815 4.988025836828219 4.899124105679488 0.6127134237184544 0.2051346943922467 -0.08203284613303938
Ni 2.901678438453718 2.849900649702992 3.907243502500586 0.13541871795334742 0.4486464459007951 -0.26640485405663794
P 1.3101902822346652 8.61123846554084 1.4379054297189813 -1.761030573355554 1.7851984288510094 0.3958619551099118
P 3.8006490961229287 3.130679541018677 11.045877913145857 0.7644074817930577 -0.88282426587177 0.760291145631839
P 3.733014533333812 0.8602730856793182 3.7444896108407293 1.3223980600473355 -0.614226260818555 0.13062721010197503
P 0.07051677010994643 8.91699339778783 11.334533293213868 -0.3733714873168795 0.050493123653545295 -2.006063903714952
P 6.19563363406525 8.524577627415184 12.463383616965771 0.5497216533772662 1.646536521370016 -1.301586522618623
P 9.054329186493218 5.831057576849429 12.442698450598915 -0.001496124929552262 0.0605016569294829 -1.0572970124037857
P 3.4999171747051654 5.301370890604983 1.572337695743932 1.2770857092637813 -2.6107110054855043 2.606410835448253
P 8.691736384475654 1.139083549872996 4.294196980285138 0.7094756056418685 0.3895318991268259 -0.9530958577038231
Ni 5.769215231344939 7.837852346149968 10.418909779162666 -2.7449369886823307 0.5466137038759038 0.5243757184133098
Ni 1.0751004008601073 3.212530521911179 7.925739280830433 0.280944956654342 -1.4920024227434563 -2.9576456387670933
Ni 7.513173081590649 7.323540521465833 3.127286691822035 -2.9543605402579183 -0.5465054604328137 0.023204720251237456
Ni 7.636310987287962 3.103052981457927 2.620129413927869 0.4401823742938419 1.1742348979441262 -1.7257748354770535
Ni 2.8482973639586078 8.939810100115428 0.04379194293606649 1.46512899539138 0.6914650279970608 0.3683303253485463
Ni 5.667160996563662 3.207831875249891 9.662513854888442 1.479352852300246 1.7787159064504594 1.2632770855154631
Ni 1.4408163664375426 1.2112870136562255 12.346393802383048 -1.1418734508942852 -1.9468997346499695 1.9123045131736034
Ni 2.843997221846502 6.797338433139818 3.6611928925139847 0.7005433361492451 -0.9040201832230946 -0.4786015975019886
Ni 5.085205341542754 0.5989597514590375 0.11296677214551086 0.529054869056534 0.6088547120939966 0.5669634711768494
Ni 0.23213260691771948 3.845633772442245 9.72140819348375 -0.9199342833501899 1.469104177989044 1.957745676225538
Ni 0.30682533400118955 0.7741784947154081 8.877240252119988 0.4213822108682033 1.3576620254559522 0.593699601620113
Ni 0.4700120201365531 4.318148957200522 0.3707473171995527 -0.529258757537224 1.0854523917920789 0.9616206073453825
Ni 1.3367788764580109 6.184929616523263 10.599703879088526 -0.2591263181173537 -1.1498335862816262 2.4083428180948006
Ni 4.129600700151388 6.870459384140932 0.4662948067719717 2.123685445585878 1.8200060234484978 -1.7831315190196517
Ni 3.617160920093643 1.8284686173153124 1.6549291536941004 -1.0086170306995792 -0.8898837438217125 1.6812741819615173
Ni 5.678523009989184 1.2270696473133733 2.7067893252987583 1.1181709650710228 0.11486017707570541 0.39130570319779706
Ni 4.773092871604158 1.3240823361701113 5.728643761219124 0.4135583439484103 -1.6461156317825134 -0.8632710263301907
Ni 1.0723850093970748 7.771941547224756 12.723120541329868 0.9235322851140932 -2.122782988376267 0.0734751863710154
Ni 3.0415071974784085 2.8136089330844416 6.375659454290478 0.6711803096060958 4.220656615105363 -1.1070756264888095
Ni 7.304264022342599 -0.015862334566984403 10.01836544274147 1.9435981810805623 1.3744700981522264 -0.5005017400091897
Ni 6.001265357088525 1.5795793574818624 11.468396531812777 -0.11847026302446693 -0.10934053280905685 0.30250237111014355
Ni 8.410735072016239 8.833983973438404 13.390306125118435 -1.1010031950424843 2.7954607084634953 -1.3038195257141996
Ni 2.595673282420031 4.951780457947946 7.469921436682893 0.03748025633364513 0.43744132121359497 -0.4416013661285556
Ni 2.1011106017895553 1.7566729256289206 10.328980276978951 -0.1974823200533115 -0.21899448309347447 -1.4989171475854186
P 3.212938294008017 6.89710358365021 11.635369011165372 0.11765162377791351 1.0624772710531443 -0.0037723225582386648
P 1.0750633306694857 6.095432908815055 8.518363736712239 0.5773149896145026 -0.7495213087098446 -1.150827060543147
P 6.872609455196985 7.0572931448738165 5.138447402823033 0.20974699635327745 0.0980850144998956 0.2504737846486783
P 8.492447039693909 4.055089617001964 6.92372646779988 0.29686188499491456 1.3595880388340713 -1.425361485685455
P 6.231693661992416 7.529975145489891 1.19714751619838 -0.791530820372411 0.16218030231790778 0.7973445988407106
P 2.3614545505250812 1.4370815447324161 7.59663661577519 -1.2791806441195968 -3.3109774338242786 2.9656451120328025
P 2.1333524000826958 7.827574635800128 5.458259351353736 -0.16496789236537396 0.6313264108339515 0.5092139230712069
P 4.625377429524722 5.050072068381128 8.512734628266347 0.33829264133587544 -0.39637463308027215 -0.18902287643204865
