# total energy = -340868.574919916 ev
CRYSTAL
PRIMVEC
9.23353635737643 0.00000000000000 0.00000000000000
0.00000000000000 9.23353635737643 0.00000000000000
0.00000000000000 0.00000000000000 13.51421379917868
PRIMCOORD
 96 1
Ni 5.83573349385681 3.087648397076411 13.334637413996653 -0.4225093824941111 1.5281850433116004 0.7650975658815468
Ni 2.511614230143257 8.119787219967566 8.829227520488123 -1.052320899345433 -1.2038102976083975 0.23618102217509002
Ni 2.4870622569145127 4.059478100846779 12.12942546150754 -0.2299754075850104 1.83698224629152 1.1760840353377229
Ni 6.5836222398548 8.071634327756996 6.615815887789867 2.0715612140868127 -0.14509789291432432 0.3313871724652938
Ni 5.89210423344368 0.8766633377382572 12.428846885754417 -0.5733115248820642 -0.48827074516063657 -1.9569892576754877
Ni 6.7282840542868225 8.970232854514512 0.627208272246561 0.6015052137074608 -0.9440540592165289 0.10007761944989216
Ni 7.293025606229847 4.2295506073906886 5.399198671166814 -0.03773890931167049 0.846088601013633 -0.3288314959229756
Ni 7.910038207607968 1.5753151743549167 8.600837844888892 1.392850400431627 -0.0007417632620309807 -0.3369191580271165
Ni 2.892562240484864 8.350219353813584 3.522980089976371 -0.5895357000504104 0.35380667781107455 2.3453770158955414
Ni 1.7489518259406815 3.4058914618759313 10.060346005992615 0.9682766792093195 -1.2402942514670445 0.38274650077387634
Ni 4.959341622088062 -0.02027222911760421 5.515867173362061 -1.6100219713837498 2.6771467685112347 0.7019307034150749
Ni 0.5417675900812561 4.5143221028204445 5.622358471761624 0.13882800074521254 -0.17466480793816372 0.5559879460019521
Ni 1.0967779180356472 4.215100122959328 8.14646290656322 -0.49647050736260956 1.1807081643732957 -2.318608489552446
Ni 1.2608301588611877 6.755125944537278 13.046811464733098 -0.142292048034413 1.0451320949064775 1.391691347126519
Ni 6.61991927135619 1.396563143615814 2.489561775212001 -0.9052782239999119 -0.059064153152007956 -0.7563758697378329
Ni 6.229100610626646 1.2453547518918846 10.117618862083603 -1.010426315994176 -1.0951233392229398 0.6754884500631463
Ni 4.195783564856833 8.800418886989183 10.119240271071556 0.5591421753602177 -0.5755339864546797 1.6321594267127375
Ni 4.60091420697207 7.55903455573978 7.578608729507218 -1.103215886423087 -0.9019087933070468 0.7775777006264286
Ni 4.354295683855654 0.633334723633275 0.6226118178376595 -0.7523577497173752 -0.7410693212877495 0.41591990220205144
Ni 5.126385528700031 3.692777437136219 6.3845878231080775 -1.0016218303286686 0.4092005812003469 -0.8832384705910531
Ni 2.555270390137806 5.686944288663882 9.747302345527471 -1.122304527623422 -0.19626901647150066 -1.137118452707803
Ni 8.418076612654518 4.227103720250554 9.822576904140744 0.5494028365852668 -0.14670200417665055 -0.6439685250779943
Ni 7.87572638642782 2.9692929277849283 1.0296076343012253 -0.982551701071095 0.4796009853007805 -0.06935319378284184
Ni 8.558943443635238 2.6371349236639645 3.9384476760666285 0.4040488617960783 -0.8848325545510504 -0.6203413725773574
P 4.610350881150248 6.347262175654193 9.986138844184623 0.9804881336738469 -0.44701765204812044 -0.7091603883942948
P 0.8508380598430046 5.354121469923712 11.204756044787121 -0.2845722689942841 -0.5143437880986046 0.21230704377096984
P 6.283800080129121 2.913226894898527 11.370751021666564 0.49934988579293355 0.9495215100890033 -2.327907398355868
P 9.150637688265252 2.2973961861767727 10.463731509732435 -1.2088465744807246 -1.4527668742816011 -0.27788894343683757
P 6.208759129986207 1.830890227757862 6.299434303924125 0.26047023373975786 -0.11292593616747003 1.1558785069241255
P 6.963425291685551 8.425288004565632 8.954504448648455 0.30529484625361614 0.9794380951427778 -1.0648809953986305
P 8.638093317466303 8.460855586693171 12.964631144262817 0.1319317878460115 0.707755280516652 -0.1842578509432375
P 3.651485062454404 5.067844908064362 0.12468782853942326 0.6039613885574372 0.8059300265168766 0.19732522565015695
Ni 0.35604793279141594 9.26169866381822 3.9411097046043673 -0.9978392233577847 -0.2420737335104412 0.8804673356038191
Ni 3.2825314158676453 6.459431175572506 11.783462397148028 1.1334132359420737 -0.17831731708908646 0.9957054648442337
Ni 5.623962337030459 7.485175498253232 4.146863365773262 0.3842529101160737 -0.38143858059573016 -0.8008999202921367
Ni 6.287170320907044 7.605137602874464 10.885009760265284 0.22662577438648712 0.7528915107336582 -0.0202230119150942
Ni 8.189934395830212 6.481093051914979 12.298690956972024 -0.0363181177047439 0.3089568684862356 -1.541934274576893
Ni 8.557586113787693 2.530358308990325 6.318570808067252 -0.2212462552421286 -1.4253306324475195 1.1577659537548255
Ni 3.5045333310006708 2.065181979809827 5.208283302957149 1.2204756740792206 0.4947494109064447 -0.23032096384988723
Ni 1.6314735426050961 0.6784820997528495 10.34146840784584 0.4571809657343675 0.656019028484625 -0.6001723538286503
Ni 8.88375155279942 6.209525513505571 3.433840453138093 0.6066294223079037 -1.1758531502738394 1.745591870202981
Ni 0.2931961740209217 8.318576024646637 1.7569019007620241 1.305845812115609 0.5613666938153622 -1.739429964366643
Ni 1.4251224716325526 1.4511148765362445 5.52569165606811 -1.6134507945596406 0.10270554399104248 -0.3481476797530843
Ni 8.526367527294129 6.3852858784582445 6.931534503743679 -0.07328106808233831 0.4410964014676791 -1.028085938057468
Ni 6.592671105505109 5.7321886169154235 8.431869669295773 0.06637251388796313 -0.2984030042297893 -0.6281081610069699
Ni 3.222088686738136 2.2340725936973693 7.584730564125743 -0.437949114087949 0.04450862393533625 1.3668154098204461
Ni 4.352384341825435 4.1002349304186785 10.977757863120033 1.2967132536867216 0.016798045393945263 -1.2628209718146508
Ni 8.308705374258698 9.358281454330696 10.772342149382567 0.3433039785075378 -0.5435008692785349 0.9220816687104959
Ni 2.7672354512280926 8.20789362408516 1.3921670569463118 -0.3015675180007 -1.145739875828227 -1.8340501602463897
Ni 7.0642647424682234 0.6033691280261873 4.761868596342836 1.178815318225957 -0.5526714800342094 -0.581506916208663
Ni 2.6387600260664685 6.154115061701998 7.205616334108781 -0.38660109863327613 0.8456273451064985 -0.38901716427393646
Ni 2.7461829882865585 9.177322608397285 6.901303905642546 0.7629021008921248 -0.194366143021833 -1.5372803207446493
Ni 9.336397973115155 8.52635829375775 8.762264991322203 0.08688554623965036 2.1958856218992118 -1.1894488866804032
Ni 1.762072681133629 1.2796296389265225 2.6679223040086817 0.7481475682907696 0.5115667395740996 -0.6905764547445203
Ni 2.855748130946313 3.050474179619124 0.8131126002639585 -1.6520525660922387 -0.1746406395684476 -0.7177267899070671
Ni 6.5497259278116555 5.1828947713325695 10.816168206446468 -0.018932575238444816 -0.8900200122892608 -0.5025969319753215
P 2.0097992286153885 0.8131873919086193 0.5218997898570025 0.3741253347637686 0.42165526202393183 -1.3242731655828612
P 7.992724525871756 4.289660929210594 7.482036095884758 0.30323205018731647 0.04149580525094144 0.7006986307801868
P 3.7254549223774864 7.529154832021007 5.322803161237266 -1.1415320083944662 -1.6617574520848282 1.3180171573708206
P 4.83285140724768 8.216702417789644 12.372100341236967 -1.265686209177588 0.07372329782607949 0.5406232906204237
P 5.100753231715076 8.018246020420177 1.9609796750783368 -0.09551339711797743 0.09988118716836993 0.2370353997555853
P 1.2766379731400936 6.305120315625614 1.8905037853206388 2.0297141961440395 -0.12685180221994283 0.15197559387076406
P 7.335481406495274 4.830773861562659 13.299581369784448 -0.18796178215738596 -0.7290226745358606 0.8272691543142849
P 8.172538413294314 7.764268368810602 4.678566401202645 -0.15197302276760277 0.6082301911361203 2.6996624331152472
Ni 6.221039733368769 6.036055065574607 1.8646646571208194 -0.68537305616671 0.01623034581593334 -0.2196431724210669
Ni 8.476617233290186 6.065639316129289 1.2635956030063586 -0.6128170391758543 0.08926818753921399 -1.52071033220111
Ni 3.7710962926932767 1.9650904454737628 12.02004221951443 -0.6315449546026607 -0.42964162266351813 -0.5773481568452831
Ni 1.3116700101577163 7.409839074946226 5.383684483344724 -0.25336807547733786 -0.1290989463829067 0.0924859231455633
Ni 2.137065060511512 5.16259945837402 4.14845799750572 -0.07134811272568357 1.2514986048232963 -0.31953875776714
Ni 5.799020953218416 2.627467411076339 4.228651260947484 -0.2039211337001198 0.7826674564445101 0.4537174326657993
Ni 5.288166319576616 0.4934983553123252 8.093081986055504 -0.12574159987489958 0.11960026286385209 -1.3301625344841026
Ni 5.708513829642576 2.7915381189746347 8.479831427303322 0.41880133751490456 0.3543666640796026 0.019489476183179335
Ni 5.774625950108094 5.9921311330251 6.168617253937073 -0.6495413911800814 -0.34261158042620354 -0.23214336177060663
Ni 3.536112025412972 3.470969426267129 3.2517902032048167 1.7044179670678326 0.0318161160693323 -0.9455249873351006
Ni 3.824687737830409 6.1742072368602345 2.815483448863354 -0.16067363586539424 0.05211857507211024 -1.0239084096410107
Ni 8.219703317112451 6.786575369440289 9.686339768299888 -0.32090144244262153 -1.2299794998045979 0.8077812207930023
Ni 1.136888400061096 2.321624985632292 12.118682241931893 0.091909481816803 -1.8220814179202875 2.6634281333735617
Ni 8.592627384341693 0.07942503321512544 6.643560817898078 0.9029061242233096 -0.18761082657587044 -1.1959483783618179
Ni 4.512817036390853 4.7683366885755305 8.394624353608378 -1.8130478469631097 0.7197343072553992 -0.054525384741389966
Ni 4.364452573871306 1.0569259750287787 3.195719553550227 -0.2625191458489866 -0.9468141384601694 -0.4069033005257379
Ni 7.51257140068636 8.12643536615963 2.6733820940689137 -1.7151605502963172 0.23667544531300527 0.5759636177929306
Ni 2.52575077433777 8.600762129890592 12.307732435793229 1.0067630082099759 1.9040551286806178 0.3568490641818241
Ni 5.60384246126309 5.069156070230019 4.0016401523294665 -0.5620457221602578 -0.6626079945560523 -0.2577060407310594
Ni 0.9684409959196915 7.493642651111735 10.711501454835172 0.6385666373361325 0.0034306229481037695 0.9944775059744034
Ni 5.644700859735146 6.0715580129475 12.72194333758246 -1.4458457216817358 0.11321981325880502 1.8479647134449528
Ni 0.44963259404199846 4.625004503381922 13.297188960508944 -0.8174056312566438 -1.6660514514744922 -0.6184094456619672
Ni 7.977479957311899 1.7305770885487288 12.569975949168269 0.9365297258150258 0.029275351925349583 -0.6202369857890092
Ni 0.4706536629598476 3.760847067313846 1.947533799404889 1.8041037503959443 1.0421460156949598 1.6624693905501886
P 2.8545016035353012 4.149043403712077 6.659561613087282 0.10065508921991698 -0.5994889546083805 -0.6894104594608771
P 1.0592620597323787 1.1026504471719698 7.74257694515172 -0.28260486085526815 -0.07465378006014885 -0.24403497100187008
P 1.5325454338526425 3.1150627665822945 3.7816963924550664 -0.5645150096363568 0.09219641692960251 1.4699207603530684
P 8.569737447660962 1.127747199047009 1.913761216749207 1.4347002465878773 -0.939919211112549 0.25694242309215753
P 0.7899539676746334 6.54157271519 8.456019060338445 1.648222650823187 -0.45689557328346475 -0.015558002339257077
P 3.8176333160377203 1.6361918796941852 9.709300803210727 0.012363663771675481 0.9015719787929182 0.1187649114467503
P 4.737007299645433 2.5487976811369224 1.4886445851440797 0.938639573069177 -0.3167650516767448 2.933019355577981
P 7.4712974930773 4.275930660616708 3.023440231812008 -0.3446964879796902 1.1321737071080178 0.003970811722289936
