# total energy = -340868.6820175282 ev
CRYSTAL
PRIMVEC
9.27240114814242 0.00000000000000 0.00000000000000
0.00000000000000 9.27240114814242 0.00000000000000
0.00000000000000 0.00000000000000 13.57109634897872
PRIMCOORD
 96 1
Ni 6.123465980682688 -0.1074142780176507 7.218778580195893 -0.6254146733352068 -0.3656422369934219 1.1694243639293602
Ni 4.80335421204989 8.84295927639488 9.397930109892341 0.06728576973085186 0.014388150400871994 0.8436879619919406
Ni 8.77334208766906 1.8451800352786476 1.1259653036274575 1.50420282146439 0.2781092869777597 -0.5833671093458535
Ni 3.0744500886814428 6.571434230778831 0.0909826557292881 0.902435098124162 1.3147426003846068 1.9705973353772255
Ni 2.3018457977648827 8.676028236353467 13.543886835069584 0.2629665177990504 1.13540121290638 1.1035843255060993
Ni 7.5889040944007 9.119981536700237 4.34798936746166 0.30571804983396383 -1.3149274627019032 -0.40997011237651976
Ni 6.911369733692696 6.99825213358094 3.05308925787861 1.290499925787158 0.179010229391053 -0.3077733897010958
Ni 1.7379261698029465 2.6994463641691424 9.47208243007871 -1.8808748339094123 0.9784096538782634 0.9810118673878008
Ni 5.615273484345975 1.383154824859071 11.376106978289137 -1.5812454134716896 -1.152220598456564 -0.39851404802077817
Ni 8.73108775508734 8.657715243847672 13.711828566849293 0.8953545371282967 0.9528505744622364 -1.8411842001880097
Ni 3.0212635950038584 0.6696240751856287 1.837594283800678 -0.4560874755598726 -0.4008599225451354 1.2554653027805283
Ni 0.6726264787164519 9.10467280220552 2.8686037077551854 -0.2170443013456391 -1.0870991833668828 -0.020727462355338497
Ni 3.538413230966189 2.832690770401167 6.180399451712978 -0.0940290992629671 -1.023057117384309 0.793154472018763
Ni 6.690158056623983 7.0326898318931 9.376542389125827 0.0332001409010525 -0.0350662475755138 -0.109360844524031
Ni 4.317573109579761 6.435797545019467 8.975801260411842 -0.867130509285597 1.4120241451466007 -2.606675401963549
Ni 8.110578662182185 5.035989487481711 1.9767656089236914 0.4662410190541067 0.20178711807625246 -0.2638347793366166
Ni 6.769891435134016 2.94656513038276 1.6563253296773854 -1.0542839366090746 0.18429204661528262 0.5517091161209402
Ni 6.4043826495209215 3.380494964958005 10.591955766072596 1.4186642761709374 0.11627788335883844 0.7956466423129975
Ni 1.3521293702138133 2.1318363205022406 2.86067858639078 -0.34227168058828145 1.1585552824253402 -0.7149438278452913
Ni 3.120654464203654 3.1220638691965052 0.8605863975952789 0.42681700873052947 -1.016402845292585 -0.4158365984596258
Ni 9.313292558351263 4.152858173441578 11.518725782203873 -0.8245155028285477 0.12191656970185456 -0.19600393573557212
Ni 8.342286697487129 8.650621856877073 7.131095972078155 1.234478673226532 -0.16818768485425228 0.78569852996135
Ni 9.003149280713911 6.6877472322941065 10.57700031006622 0.18585347756513154 -0.807396583760074 0.09363572047929035
Ni 1.2306887307969154 5.1055695866024555 6.060539756712402 -0.028063333895119412 -0.2613078991497048 0.4602534340121041
P 3.5646819437605757 2.689988514875011 11.022172931179831 1.9289796598364393 0.20033367345917755 -0.8668942249050748
P 2.2652476299571025 3.569262509987341 4.270254191425044 0.6441551871675035 -0.6256602136871096 1.2523725227878173
P 7.083057515584983 9.28714438677337 9.457167772637916 -2.1891732428760426 0.6600345774019214 -0.9861818416245145
P 2.1247800231367173 5.52564645368218 8.190197062916486 -0.2544667078581553 0.7176792244985833 -1.2368859971164439
P 1.5990534160007868 1.4415524080496966 0.3769518560188665 -0.28578094459040454 0.11062454172780303 0.7691673650755463
P 8.117672049152782 3.763834578210918 13.573946105502637 -0.2854431016350116 0.22424416152818802 -0.08314047737492132
P 2.0591221497526555 8.656352200861166 9.587722255261875 0.6432375604492405 0.5075727879233581 -0.03766691842315449
P 6.331965195611937 4.599667373379126 3.1876874346958726 -1.138098043012253 0.5778652056910177 -0.02697550014757935
Ni 8.190386219902368 5.036453107545149 7.301710937143646 -0.7785927721545043 0.3008848901113786 1.0973100624616134
Ni 4.062619164294044 2.43671287421894 3.1497837127894517 0.008015156994992648 0.7319976980037844 -0.5050618485760463
Ni 2.792698903729022 4.701932686972236 2.5319459986898254 0.6736526824059882 -0.6924672440093299 -0.2477525290627733
Ni 6.952529922924704 5.644796809985695 11.72691993513138 -0.3768388770401897 -0.16894101808050904 0.17892718275894345
Ni 4.828426785080606 4.964184012056463 10.450408851744527 -0.5181446499019334 -1.0175027632249831 2.4915486014900186
Ni 2.604478430374543 6.436771147152686 4.3201554733331085 0.7807231882339458 0.37759735247276904 -0.027768942583152177
Ni 4.2731397626998815 4.268911547721329 4.610414086449614 0.14320093300192757 1.6437659006034142 -2.4022212785780948
Ni 8.626040721113602 3.4735991460975844 5.66975996868144 0.3756384289741853 -1.4676507333719693 0.18332376916474236
Ni 0.7954199614784614 0.9803431689417708 7.7698874585649165 0.18962785700589924 1.1833988238315813 -0.5112106417862615
Ni 9.547513414400042 6.89531920709648 4.177604357947634 -2.0452971381839617 -0.3259965975773418 0.07472011452171003
Ni 6.473888569431517 7.36297276508619 -0.14225625302512843 0.3014186511276616 -2.5809695125570133 1.0578048052781395
Ni 8.836283147481376 5.899110959583867 13.345314652938665 -0.7140822511759444 1.4616690618672374 -0.5369620397187527
Ni 1.4731527515736171 4.811894093618414 0.4685437085115119 -0.06596807936069284 -1.6341507461111533 -0.8536892961790266
Ni 8.24329454154189 2.218449820753691 9.497813343599509 -0.668499677450139 -0.16044223658087853 -0.26753896766108115
Ni 5.053338150255553 8.558203833431383 1.3769645697720496 -0.2738780225052316 -2.122965793811034 2.7030845714229192
Ni 6.60558448465166 2.6952923284007397 4.324863998697383 -0.4403471820064803 0.2221697954976625 -0.7335871539780914
Ni 3.5866482623662588 5.42486472429207 6.628503078867643 0.5995066952201934 0.670645005927916 -0.5014414782146396
Ni 1.1418405818396948 6.200955438085682 2.234915750926748 0.0595133248742846 1.9659634361496396 -0.8769364396324253
Ni 7.386367033487263 0.16634131532072227 2.05619763439249 -1.224107357294537 -0.4876968749350376 -0.8231641310069759
Ni 3.1570022771771784 7.230395971745517 10.852073511624882 -0.5410662916951133 0.5384548222141952 1.3446638134240712
Ni 5.60107743800351 3.3466321555245084 12.876405611817164 0.14756358084599747 1.0533472837274183 0.6964593958878587
Ni 5.071660415162614 8.180390571334648 3.955350462976313 -0.2548667715100514 -0.740428345269641 -1.3290345915272468
Ni 6.969683865271903 7.2694976878958615 5.850499468692287 -1.5569891120274861 0.16041806821116245 -0.058025684585164584
Ni 7.351224632678677 8.424542169142264 11.55388858229525 0.4567683036769811 0.2279540062796074 -1.7404085262298283
P -0.07809494520584408 3.116240801199727 7.810125043870682 0.7486468765246914 -0.19034442345694963 -1.065231950980146
P 5.929301898114937 2.1045476435682917 6.674441336473441 -1.5706573535431982 1.7928891126270476 0.35288673709996643
P 5.760572012227383 6.125570815770696 7.347826297613677 0.4135025510098104 -0.28341835789549896 0.4851890209115193
P 8.41310002597662 1.748654338070897 3.3962617560753983 0.7142979667311763 -0.03155951997383597 -0.1891429469496807
P -0.22647932822949338 6.737530754706057 6.3072486827899406 0.5442459749746755 1.1052483434720837 -0.6523634340099087
P 6.727618557749757 0.21035925862376098 13.331770456405394 -0.9018470868311758 1.8753649598347768 0.7262209434210073
P 5.432811172179394 0.8768993331474014 3.1114182252998464 0.8528961108537698 -0.2615655236864657 -1.9582285293992274
P 7.8184887498151 4.997221577777042 9.768733436629896 0.343472385764602 -0.3622995457734341 0.13882414409047059
Ni 7.663194573365974 1.303597621973144 5.948889845795184 1.063594158266407 0.7198307236239474 1.2998263453944066
Ni 1.8965027763012121 2.817363491103913 12.30464153238186 -0.6035039893050446 -0.4595438095395892 -0.47037072495176413
Ni 5.695804289365122 1.8306687272930442 8.786918737606774 1.86047904386188 -0.19572985613857904 0.6475022492628655
Ni 2.09628593403783 5.231386799418207 10.202654926044 -0.06499260282130097 -1.493495462349215 1.2671833625484046
Ni 0.431310381216822 4.3866803162357995 3.736231566873958 -0.20009918885086828 0.2907220906457638 -0.3061132283898535
Ni 6.062759569576143 4.211459749460116 8.553793879387962 1.5962030632227864 0.7833565120917347 -1.7015131347162114
Ni 0.5865999214653139 1.1612106280901264 5.0589924605492405 -1.652884832185547 1.4980195754718135 0.33113957523086196
Ni 3.755888130323594 8.50307013548736 7.1744824648547905 -0.37844273119219984 -0.18184204241289328 -0.11388032966093935
Ni 3.522418338777585 1.777241151182472 8.533058008430643 -0.8158426576448982 -2.3086148686748436 -0.9787474968336561
Ni 5.131430313741016 0.7211610086775017 5.178581401432767 -0.6814089293126393 1.691572221453416 1.8686595227901428
Ni 4.652547877814841 6.2279566705803004 2.8770313932683584 0.06080993219852108 -1.3436289444016538 -1.464809407268432
Ni 5.969896470869551 4.3648994456554915 6.013542590881713 0.5665019581593986 -0.7850115311966545 1.810039399154089
Ni 9.120890232024575 9.066572505392202 9.577583811714616 0.7951241941506242 -0.593595471942081 1.1789870679171308
Ni 4.6528724118592475 8.701518067441278 12.702587032113318 1.3129939931246162 -2.246006192704687 -0.010568776654781797
Ni 3.3319817615198737 0.3679186827028444 11.423592799666691 -2.7806395842902627 2.231704431370034 -2.5044640240001064
Ni 7.682777884845587 1.9236152776110549 12.195150236480007 1.3737946693517566 0.33282210513960747 0.8010050784114333
Ni 3.827943960583097 4.052706967337744 8.504341381701305 -1.5937751705075842 -0.7000625398580848 0.502857898946192
Ni 3.5251907867569434 4.718307747612859 12.445658992597483 -0.9642719289253007 -1.6480491013598002 -1.3396239370073186
Ni 7.6238146851775666 5.368507069380571 4.722564707035345 0.7676085052288586 -0.44818570421429266 -0.8300374610880413
Ni 4.804615258622441 1.2963929661873206 0.5787925595970213 1.4959320968151655 2.3906430868221924 -1.059409430761098
Ni 2.7137536793268326 0.7620606434338578 4.364980115546529 1.751078604349165 -0.24919440371562243 -1.3827747613631798
Ni 1.1001147761302927 8.26521449814123 11.766154246619868 -0.8217693075419784 0.32862015124311794 -1.4176872569696488
Ni 1.3495794598649056 8.394777761069557 5.481135218631643 0.5166536671787038 -0.8253022603959012 0.7325574271619963
Ni 1.2473234186730637 7.69483200649497 7.7480240636133155 0.7440482014104153 -0.7936905470278911 0.8820411078488422
P 8.67092841565565 7.4662116808125205 1.752449531910199 -0.5501273734561171 -1.8992481942102775 1.9065498700780132
P 4.60723365281443 7.058309476598674 5.61371108473219 -0.8418611931958468 0.31818841438683265 0.14203262372543926
P 4.870161863191277 5.371715320219561 0.3878580543911774 1.2255402330863217 -0.26870367739314366 0.6889191216467554
P 0.34972159521291063 1.6398983435896572 10.97031795432444 0.7373443070276785 -0.04580188882546306 1.1193423596713046
P 2.951646406278038 7.7568272813778725 2.403658618176078 -0.16942130015103726 -0.15262119787456296 -0.40578718464342367
P 1.577077824993835 6.114610837471026 12.198217546819714 -1.1888940426181978 -0.344132130835788 -0.5401761757806761
P 2.477594891412885 0.8499741343431876 6.408610864499474 0.4107771816588474 0.3857233240140131 1.2469744917006977
P 5.219916839048755 6.998075957956834 11.180127359552964 1.521776311571779 0.43959796254528166 0.12968155835925407
