# total energy = -340869.58509764326 ev
CRYSTAL
PRIMVEC
9.25933398874250 0.00000000000000 0.00000000000000
0.00000000000000 9.25933398874250 0.00000000000000
0.00000000000000 0.00000000000000 13.55197124034620
PRIMCOORD
 96 1
Ni 6.007011299861496 3.3693974830585485 1.1763140951312279 0.8723678464251364 -0.35542981523679434 0.9710604126020438
Ni 2.676040051935055 4.78995521022309 2.52836386362217 0.6945431527017523 -3.2263765698537465 0.0026783181631115163
Ni 2.520973989342908 3.8147529185727946 12.762311028417866 1.1590131958983652 -1.8397526099478057 0.10608243088307535
Ni 3.2503872661542155 7.484838006373528 6.613836553200989 -0.7471147561508811 -0.5387787812125173 -0.6281714101447374
Ni 1.679328327944546 0.46910377475926546 9.742403394652657 -0.2869250854971768 0.4420816481990838 -0.3269512481811272
Ni 8.492920192229635 6.843184695003695 6.512941296877971 -2.7393520383953853 0.091265677585217 1.3833056941659854
Ni 4.808223875744933 2.6190858899356346 11.532510391782873 0.26328559170136595 1.2543797830258334 0.6245230147588728
Ni 1.5839757088143178 1.4740396390014225 3.139354891223334 -0.3513371332246594 -0.7750297373935944 0.45371074779757986
Ni 0.2843754364452614 8.929368148660245 7.637646643393336 0.38876519616413047 0.2628734438646118 1.961456806528538
Ni 5.850352631861464 6.832453127168005 12.955128320710523 0.8498606664615557 0.11927347565205264 0.4513584455153194
Ni 6.2149296395943825 7.868637391006267 4.266323218911299 0.09456080339672102 0.9595264438205152 0.5409680755543522
Ni 1.5740867403514045 6.358245607636494 9.617942207959825 -1.9646897116435391 -0.562130054343948 0.8221336328599326
Ni 8.657051142579451 3.944550259315418 8.309987238733008 -3.8760629712521246 1.3724947195934103 1.8705456840692625
Ni 7.311438462923171 0.9148055093563889 6.966295870833332 -0.5810495169562703 0.7648661665970311 0.4169969373163141
Ni 9.514613598722898 8.213371646476991 10.662446909120908 -0.246770110544846 -2.448220371016029 -0.6077267691371405
Ni 8.376530366781298 0.8122472766888581 11.322915186704824 -1.135808732757444 1.6181338018576068 -0.614836126488412
Ni 1.5782812185477524 8.002119946588067 1.2813223475134465 0.7640917503248518 -1.46718844902357 -0.19237405229246868
Ni 1.2228709512439389 2.952644129549864 1.2994743454298283 1.4330208020029258 -0.13391719370715646 -1.40358912700537
Ni 4.44446168938349 1.9852196782636577 3.1858515616665612 -0.212237366875299 1.127051041169472 0.06365460073616779
Ni 5.222292022461254 1.4570302428718604 0.31524975895718915 -1.8973939146103578 -0.42620405773687886 1.7060758143862296
Ni 8.08853730863336 1.9084690606708763 1.6726245702974023 1.9444443311309414 2.3934985539931164 -0.17246702895589652
Ni 3.536482160879967 5.354737532661174 11.398982465465618 0.5154604182015509 0.40839454035928374 -0.4577995731549729
Ni 3.212896223732552 2.1920546759458324 9.436020373710528 -0.18646231479372405 0.6537605714677515 0.40307929879395743
Ni 0.5873186148930326 5.953297904680446 2.3869627258030266 -0.3594870160253035 1.6564524949321473 1.277173383881581
P 7.998721771095662 0.9918227957616531 9.121574324924294 0.4472878749903716 -0.6757324477531523 -0.5325525977971473
P 5.398404550705275 8.626337932475067 0.9466622471809714 -0.453667039043838 -0.6009105175462555 0.3760791160560297
P 2.7100773628617127 8.222482830903497 8.68907640027859 0.11550192442476238 -0.3973272268015286 -0.1826470548126919
P 1.210509740665297 7.097983041597754 6.284170937502311 1.3524007770570128 0.9646051438950033 -1.325130371376834
P 9.12102709829868 4.5872220973995965 1.0288536492951081 -0.5331953735874688 -1.105242944155445 -1.1883181155100695
P 7.527856871053955 8.107398571516276 11.639571438461186 -0.7538369053660631 -0.5665572368773663 0.8560058601273453
P 6.386782874305689 3.6141309338481244 7.750412365605357 0.5033248112802815 -0.1293218610269902 1.1726714101117484
P 7.146020465179772 3.6057327181216614 4.03992417491331 0.7063815400975769 -0.6917208527616087 -0.6966810249803614
Ni -0.2580659654803527 2.129656025691549 13.214973930140848 0.24627260208313714 0.1975100879674534 -1.8804130637816456
Ni 1.1932040458551985 9.321093522997343 12.738174723088017 -0.28757326060413696 -0.751781308388615 -0.06540732176121639
Ni 4.194246713003984 6.615553233681349 4.374982426597756 0.44859373828598875 -0.2896121454110367 0.039791163855008894
Ni 4.63237060884638 4.195681909737834 9.461240947024466 -0.15976500800819582 -0.5271854199479631 -0.11093384543810571
Ni 3.5904085207376526 7.911943295033465 13.159289222800851 0.016504425412926415 0.6179137369724712 0.7840622799095076
Ni 5.556155820089787 2.618169215892724 6.010502068691569 0.6956880649394728 -0.3000788492703155 -1.054374953660984
Ni 4.6844543612844785 6.503126403085191 1.6487466003796483 1.016952804258784 1.5279806406102783 0.5409878730486941
Ni 0.40181434440937297 4.386803818017795 12.40616557001297 0.23901489207945933 0.3610553889536879 0.4278919869622631
Ni 7.196780132889221 7.538532882887044 1.660740215407749 -0.2941683973231514 -0.8076194984041575 1.1822811652873702
Ni 8.983516732528333 8.783061415811465 3.013727954409265 0.14987911635305157 0.19981893860628813 -0.1277421752446961
Ni 6.7779249106154795 0.7529810590478745 2.719324659494589 -4.136386137891058 -3.4964419034811076 -0.6926991575144781
Ni 3.3140914824696135 0.6742952406978377 11.966336104890733 -0.5457649827223633 1.2051997217567567 -0.976999146683982
Ni 8.851034184993345 5.404876825008249 4.715855539887737 1.158753000258443 -0.9886295318340586 -0.11708649530306288
Ni 2.6614195639173204 0.7297864279621082 7.393141898147799 -0.8730964970610446 -0.4918080688899336 -0.8065388637454691
Ni 2.8367080114561 5.870195384123658 0.47663068717827517 -2.8855711893983464 0.6816956073151228 -1.0634650888877106
Ni 5.014632944073836 8.126815394425199 7.957242733620648 -0.12369063088314182 -0.017317151122208885 0.3906894097700368
Ni 7.8590817585589585 3.486750279218629 10.83650849493559 -0.04358482656948622 0.2653617575041043 0.8418627358577437
Ni 1.7924496085732113 8.165445334900175 4.316058804306143 -0.01859010429736153 -0.09415379776628946 0.2231046486071061
Ni 6.288254303693458 2.2989351656156924 9.637497920875248 0.3750398761582379 -0.17256807331013505 -1.335796078620796
Ni 0.9243028080009679 3.5319636060017814 5.424108461241837 0.9517617122734319 -1.1251767069648944 0.680354519906196
Ni 0.9696929880590657 3.6948167682917843 10.067325453662615 0.9243444966027436 0.3002004624498442 1.1520215950718806
Ni 8.857441643959953 6.565700980681043 0.06533293312497337 0.5548926560552443 0.6693052040705698 0.07745911071942788
Ni 8.37839149286842 6.02160400987793 11.376879509830955 -0.6469178375143052 0.7266390047950325 -1.9551483478120069
Ni 5.094809515160324 4.592073988293385 2.93516713706508 -0.14022205287926173 -0.8528781131316409 1.2064567340923094
P 0.5082596453921949 0.46794265430491216 1.226233941268031 -0.5770074856764127 2.717888726315287 -0.38392252335984844
P 6.018113241047856 1.0298138422067227 4.650575384965234 0.6235223414085004 -0.7450920692938975 -0.20511026891221448
P 3.645371925977217 4.105727482193635 4.60937783123673 0.4875523789373732 0.2239885938739562 0.6263752374762632
P 1.4112706153964685 6.833601284555085 12.067650809033386 0.7093645339853009 -0.26911248279578814 0.34335180102633767
P 2.576409620604578 4.136218468287618 8.447702235779598 0.7206761023433782 1.411241758454621 0.37116368103228337
P 9.813597486051997 1.5256141280823479 6.18969980694668 -0.3148824899420512 -0.014367581575581706 0.011968999436418095
P 1.1387962006416403 1.8267924775141722 11.300162225839733 0.6152405610156824 1.2129469698023432 1.3210711137057958
P 2.4717976677075773 0.8922182905657229 4.999945788852981 0.8154217680573956 0.24875937306073287 0.28098455164302577
Ni 2.0258311161647238 5.625156375319779 4.577150720061477 -0.9918418681237694 0.2633105314020304 1.586150564082791
Ni 4.774390270161145 4.677787640972403 6.720517041261487 0.31778166586671724 2.9933927144597154 0.30013798464302505
Ni 4.688852544823695 4.759992006153812 -0.010243600946180932 0.7162221803370827 -0.7772516847455776 -1.1192153471751372
Ni 7.3490128393487355 4.515915968061678 13.119460198603079 -0.7979940594992515 -0.06399347213282529 0.003132632091710734
Ni 4.4080354703450055 9.2303983487518 5.477570928477808 -0.32014399545130673 -0.021857205084407517 0.720307920370682
Ni 5.809194893268158 7.187724504465317 10.59326394501571 -0.370565128216336 2.367487731751652 -0.8370131210749263
Ni 7.439226528238405 4.961817704268164 2.391380353943154 0.15113124359259777 0.7326867536510091 -0.29926278112692334
Ni 0.31323955759642275 3.5500841221833563 3.229651914116904 -1.3011684612445977 0.49843097352309007 0.33430511744303715
Ni 1.055610346080952 2.6690029582723076 7.989835588479689 1.4278654830542312 -2.680616986448022 -1.1720348049690137
Ni 6.4688390901468305 5.432090006948795 4.97259742063944 -0.883026354580247 1.2512906025775483 0.16550730980861172
Ni 2.8284486857361384 0.9865357161808257 1.1236479305991998 0.24391901424929602 0.1334541380278089 -0.691447544495564
Ni 3.3081192121900447 2.981718437577531 6.6222384726609596 -1.6416051455066694 -0.7150821531953685 -0.37476939610567067
Ni 4.90487280160251 1.1957411033072942 7.834339892800764 0.6994945831697565 0.5804980153281745 0.9226671089003207
Ni 5.682369798664668 9.466002096447339 12.06510264038077 0.32163163574042675 -1.6833873716497783 -1.5573737490604147
Ni 8.223519876285375 1.5463828137212194 4.142024070559385 0.8536278468134718 2.5174013008870646 1.3619745367883769
Ni 6.551626793355548 5.483562643358286 9.180673874557476 1.9198848966240225 0.023935941990307165 -2.2046060324913452
Ni 7.475615709941822 9.246935518859258 0.0760219080253361 0.8348508233162847 0.3821183802715742 -0.19182512176753416
Ni 3.6389274296755425 6.322087909277247 8.778438230461715 1.4046445648530776 -1.8694743053819545 -0.6048569037885132
Ni 7.204659825924746 8.208686423591004 8.513619432865255 1.6112599575559088 -0.684053566024338 0.10847227127149062
Ni 8.728412827919971 9.072711894703657 5.559276215569189 0.21288862730605274 -1.8100972489752183 -2.1831987704601628
Ni 3.9315131173718014 8.974118508755058 3.0432170805896837 0.21509951891444246 -1.4303357989715946 -0.6300655418436568
Ni 0.8400604634574907 5.165023043113763 7.150453834187303 1.4421605595206648 0.13351224495925393 0.2462792869513565
Ni 7.886943093863177 3.692974160872197 6.071634968019935 -0.28177902251986314 -0.8318580592365481 0.3050593332040423
Ni 3.4109904103388926 7.652107870870282 10.81780649259346 -0.7765261194334626 1.1859524434913704 -0.30389590902356045
P 6.261031862419145 6.874749763814624 6.693901086348897 -1.353842908820178 0.1170219606137146 -0.5887378867394635
P 8.094379948240192 7.018963887232113 3.759262657241901 -0.685051154050917 0.20965392241883893 -1.0172798485808996
P 3.518120902020456 3.1162102605399085 1.1251933134048742 0.5812459492377925 -0.01496099218520649 -0.02202535523115562
P 5.973992515649184 5.196856632603928 11.129637705523958 -0.8979387529157051 -2.1122206394793883 2.642355114753346
P 8.631217601370155 6.344504756326603 9.004796533391131 0.532260006257393 -0.027236724228765996 -0.36834395219530114
P 4.763454996982587 0.8281835160348511 10.228078599054315 -0.7022459206626486 -0.5185799376671392 -1.0436465114998865
P 6.778387877303818 2.2408235868954254 12.678044609606594 1.3024786954155891 0.7029822846080409 -0.44490600502175637
P 2.712216268961837 6.855925538266775 2.7175357562108484 0.7341054883754067 1.3753743551340507 0.10159842696979277
