# total energy = -381172.8689365627 ev
CRYSTAL
PRIMVEC
9.22343259712766 0.00000000000000 0.00000000000000
0.00000000000000 9.22343259712766 0.00000000000000
0.00000000000000 0.00000000000000 13.49942592475094
PRIMCOORD
 96 1
Ni 3.1077434467649314 6.096642961935021 0.6738317181651992 -1.9347240185193841 1.8995184171525286 0.5413264873350355
Ni 3.0567378633951616 1.1758401067471373 0.35913833689307945 -0.5968070369008431 -0.9684312025093129 0.12800956997346985
Ni 4.412130536409803 2.575698949278173 12.783687080666118 1.6591881486957554 -0.262719949005883 0.8491173605376279
Ni 6.2350682413588 5.196675730158913 6.542213165229505 -1.277803561266412 -0.18302732097024607 -0.7326880392025897
Ni 3.3223358342298597 0.378555507618222 7.975123256846839 1.1018604008364572 0.4240322468965407 -0.28655021865626135
Ni 2.739331870537319 6.919585306419817 11.054504647759684 -0.09474026639737877 -1.7184885862282855 1.8175583332389538
Ni 6.517711116003142 0.716025233840307 5.462610356290717 -0.8524453964695964 -0.10268471805543605 -0.1317034738852893
Ni 1.601160263334872 5.512338494218042 3.8211067978999007 1.354073022553113 -0.6123822656312808 0.1784186185536411
Ni 1.0884296341259252 7.669810106729702 2.4812482304026853 0.22087833037974863 -0.6389268488890286 0.057500408209313875
Ni 7.706915976873749 5.493006179074636 12.261731173973184 -0.773497617019784 0.6720791672712813 0.322180052044729
Ni 7.298659170961255 3.1832187973462736 5.584672343588582 2.0861748502349298 0.5038632002822547 1.8119936946669826
Ni 1.6654844836641254 8.419011105999074 9.885548911252545 -0.870589671478791 0.9217564241605932 -0.7170436477971135
Ni 2.9982981931906667 7.290173612787622 4.233420069556704 0.230312479209455 -0.23042123687317737 -0.7638960893742779
Ni 8.319148999101335 9.12937222975848 1.8365026075641708 1.2802630785504985 0.15909009342835828 1.145932451455007
Ni 5.470399545288144 0.5003979772155076 11.643268645234217 1.8165077804872523 -0.5022776009626898 0.6005279373958561
Ni 5.537527689187815 9.06682813195913 9.450272981303268 -0.7958610723166487 -0.18414729350730222 -0.86868037027122
Ni 4.185206419294716 4.033416385747466 3.867288525916616 -0.4455791198293809 0.14279778402623794 -0.4962342229820873
Ni 5.978426223770403 3.736504860565505 8.97701034337779 0.9596891946506247 -0.4337150214019434 -0.34770390734744633
Ni 6.574075513828215 5.560078982377523 3.869056657983883 0.945713706307139 -0.2696696408508388 -0.5138053990966313
Ni 5.108112328438023 2.8929204734800673 6.148462052077523 -0.7517846508227247 1.2188011145902753 -0.43653346468734494
Ni 5.702147517756286 0.35439933712176164 0.4049612733739747 -0.619816867532455 -0.5792291759180799 0.6855805441918257
Ni 6.767832166603757 7.414348688539377 1.412093726136822 -0.5133567415949868 -1.7876684876580569 0.20441735661024796
Ni 8.961478082546924 0.29380691770234707 5.952207693700438 -0.9738431175535035 0.6280382270009829 0.1492214281643946
Ni 2.232301322797182 9.181447731332751 5.543539522685178 1.1058026733136568 0.7181736476364987 0.31280555280836453
P 4.036155745288301 8.26984975079909 2.052210108054308 0.4118331337271875 -0.609251176201467 -0.7450380761275104
Ni 1.3080580158982482 8.762362615316079 12.534986438716306 1.6714440832449733 -0.8365634351320173 0.5962753327670892
P 8.380097443026731 2.7496252215392474 11.464023219278866 1.5812765238199413 1.8109595969755135 -1.1370282069868418
Ni 8.276426058383654 4.781233870097223 7.401668313129475 1.0061963370732283 -0.3265776668917924 0.2786152800799008
P 1.554157649799186 5.893681323227646 12.875333875971187 -1.785093270731713 0.30905739861984194 -1.2932119254016825
P 7.94848690527115 7.345071484797905 3.365515334871012 0.6763806228601126 -0.11887341200015657 0.27385951056247027
P 4.757667999299797 5.82352789337042 5.004857842957391 -1.8483884312459327 -0.9512379785594778 0.9521622901459601
Ni 3.4349078315224513 3.0004380295996698 7.797281637363257 0.667811907354495 -2.3862925231629806 0.5020050640275935
Ni 0.17783516308062353 0.76217929155863 10.840525618575784 0.4423091908288576 0.4130685487961854 0.5242854726923487
Ni 0.020310921363213198 6.769483161074496 11.262435872058312 1.3659049821910347 1.315276618511206 0.7494392905189996
Ni 5.8336367757164 4.325338033786019 11.507221166785614 0.05347611754126919 -0.5420021732458215 -0.5194656827062021
Ni 8.809097749300637 0.2231480437278211 8.73736895712161 -0.4552899193592417 -0.27419143998059226 -1.0878944255746683
Ni 2.0143054886300034 6.251264589351081 8.805716438837102 -0.3239890802290098 -0.13180477534984397 0.0344232146748762
Ni 4.107932499317876 7.29835479767894 8.778406776667202 -1.5305270611812158 1.0526060346860195 0.3855340908213425
Ni 6.989397469263539 1.829716928055104 1.472936100585047 0.43371322162973047 1.6121852975836557 1.5378001978038613
Ni 4.658672895085017 6.126167170319583 2.459379471239987 0.23184717068642652 0.5619619041971998 0.32608632907767066
Ni 7.199027649883451 1.4961238106377774 10.237587049578165 -0.7879682998321332 0.5640149300714867 -1.062426620320867
Ni 1.887391053337413 3.605882605288349 0.15771608911959678 -0.31770093322745285 1.032374281020177 1.4316987407573925
Ni 4.632589027133895 2.3748218063830184 10.414078358500204 -0.29469110259584086 -0.6930300584913354 -0.6599402179159022
Ni 9.543116978185443 5.091482479104262 1.9473055504462167 -0.4345226049049033 -1.0520565899404526 0.04339893581092526
Ni 0.8637468111806123 4.535346375150626 11.369769881865244 -0.42534582350164163 -0.9175339014388133 0.21822649457919832
Ni 7.727262869624873 7.004450111588939 6.70696027717058 0.6600895990095728 0.28512479906364446 -0.5496380925245243
Ni 2.5646216064884637 3.631606759360372 9.819401218259241 1.179601304462362 1.176126458539884 0.34006978784095626
Ni 7.959186087316166 2.3383339062363984 7.952916920043755 -0.09669636168248508 0.3882275784931056 -0.8680406798046921
Ni 2.349079205445401 2.3343032661039227 5.06794151157539 0.5133359156593804 -0.010062526442324604 -0.523028460356796
Ni 0.41846622367596675 2.972205101806747 9.441970969442304 -0.9643526615645651 -1.3566528674651475 1.02984508684042
Ni 7.939798431575975 3.7908493266079426 0.26064129804936037 1.8097753468594253 0.5506230821456131 0.08137027284837599
Ni 4.593269533118465 1.931110124797215 2.095826799410059 -0.19020481255529176 0.5288530374583731 -0.2341027994898226
Ni 8.24668971104475 4.946056614187237 9.736960331229282 -0.8183073171353069 -0.9976402199731011 0.9437180160333489
Ni 7.287517264141963 8.229552572907133 10.622239246275488 1.0968122968895884 -0.5327631711460566 0.7460495481111603
Ni 5.3313378490013426 7.762256573658309 4.557635722848887 0.7003587309422648 0.13350530298071844 -0.04293870834505508
Ni 6.175494088920221 2.769529389516094 3.7883442422601616 0.023446918169030585 -0.18593883819008622 -1.86898913821542
P 7.512135523057694 4.194107031944233 2.315070564034729 0.3760305222062814 -0.3380833535385468 1.0161318510193853
Ni 3.4741535380755018 4.489109306537126 12.100440082301304 -0.5494079787915892 1.5816758161408888 -1.2423336504945766
P 6.5046784054603775 7.792915264276956 12.847254979505982 -0.16863865634874184 -0.3855592876323231 -1.975021946807482
Ni 0.17070544952821273 2.2995032541592324 1.6859568151012936 -0.02273035171798021 0.5204308748329489 1.3086935659770493
P 1.2709890394853907 9.659516700088968 1.2146947397495769 -0.8055677580814513 -0.9164005591653186 0.4373698445457112
P 3.6720422887442905 4.370661982552574 1.4557510005968815 -0.09573399776921578 -3.5452468407989524 1.774656905889737
P 4.476463980171855 5.494260565935087 10.154268091745893 -1.0014086858765978 -2.9769697930170023 -0.4587940758577582
Ni 8.872831669930855 6.9726846090346015 9.056440701942668 0.11931229930978805 0.842361272760717 -1.7426284166992827
Ni 8.824593116400315 5.151960527956989 4.721680931554078 -1.0956051639553648 1.2303718501470102 0.8566859169135053
Ni 1.2912805916397294 6.2343488136006 6.501661420592339 -2.0060214805127905 -1.2708384428024888 0.014772016102851978
Ni 3.0030943782453288 4.357214217533926 6.031638052265317 0.17049782104466765 1.8550905258564567 -1.0415029827943223
Ni 5.7009853652238105 3.96028378709667 1.0630716503359603 -0.03943455184653853 -0.017237189813892898 -0.2931913781218628
Ni 5.859434717250802 1.2919262319355491 7.771403451963518 -0.725652215401731 1.4670238984212476 0.12635635064076303
Ni 0.25846641259572717 1.7456453381065604 13.001432037461205 0.4657370828344947 0.918792970656895 0.12502451920321694
Ni 4.328501671235537 5.08364256122645 8.024193764015708 -1.2847967047547937 0.08076297828168026 -0.6330930158160709
Ni 1.2311714800988998 0.6109039255614761 3.4653838981717087 -0.7509446714199325 0.9514051002649615 -0.13504925042907065
Ni 1.404774932212064 8.505600693101314 7.528670371033641 -1.5378171670847256 -1.7609837792780187 0.39586555465433754
Ni 8.334192417993938 9.020425041555278 12.901779302487968 -2.3165953157771586 -0.8582725446743348 -0.16642596496813916
Ni 2.3406858815997422 2.901212339564954 2.6226683584557886 0.17352709478929468 0.15956137663782197 -0.25165443522034076
Ni 6.07940436603663 -0.07726930826044165 2.844153417250234 -0.09948060929584157 0.9741778751851028 0.2054648240381558
Ni 2.2348931074132588 2.3628128968807687 11.774253381420312 -0.08834259040115107 -1.4260214878669568 -0.9507384132152399
Ni 5.03278455278144 7.226476585888594 10.927326422289086 1.8625742358280117 2.277962433896309 2.4673807459945634
Ni 6.830883553206965 2.1599803862325597 12.6994503912705 -1.3131611148301 -0.5253907899413855 -0.591162437020556
Ni 0.08777110884359163 2.9276466979623783 4.17318551932983 -0.2861226442005395 -1.7677141560233172 -3.03457818755909
Ni 3.390423215140463 0.09675657707484465 11.331809921844155 -1.2298162347538562 -0.002312964403892791 -0.05851290863422827
Ni 6.158559866304145 6.282393675042395 8.819917758315299 2.3616387291700427 0.3815689355260074 0.15300583490749134
Ni 1.2277680333966494 1.6933576975779487 7.130680168167961 -0.05179950116979466 0.6792823698879398 0.9656508115506983
Ni 3.7557726116793293 0.3175757040213155 3.7106820157625497 -0.19023875111702077 1.1895216488998674 0.23287998282631509
Ni 3.9624420703712677 8.033121124620338 13.286634414706834 -0.15659175248653676 1.3853368656634013 -0.1583329035473596
Ni 5.148464846926764 6.054335075693224 13.175723557661057 1.9195928193049 -0.5805874897181872 0.12344277653839383
Ni 3.2392603750234374 7.180792923242939 6.609994328171234 0.8384979331505689 -0.5206283355557356 -0.3897877238913739
Ni 1.4170697681310338 4.211474755901787 7.804679752810073 -0.13465432898349713 0.19934148474923732 -0.08668679996528296
P 7.728120648875034 1.1738478452628933 3.782404351538619 1.4858965669560344 0.33732127856154165 -0.5396190177256255
Ni 5.227445101971129 8.246062517614526 6.939893460753191 0.6902414400026048 0.4245413253224753 0.05021595873275868
P 7.224678016493096 8.933521857737924 7.344389873114175 1.0849800801413507 0.40432319850338755 0.36811563823457893
Ni 0.6653812090361969 7.710273306412013 4.898752394399075 -1.4451211848108856 -1.1544641430751021 -1.5490467172519582
P 2.5727197804846043 1.280009556761274 9.78349347203558 -0.6860873086249153 1.492697906148584 -0.48425108247828214
P 4.2022328762387655 1.0184145557606596 5.834357125817879 -0.005556925262487204 -0.7699780339022997 0.587887108703394
P 0.524722936532161 3.5698374299160056 5.994109748899147 0.20596876025776786 0.598806326719059 2.141928708066782
Ni 9.193650332923747 6.906063753938789 0.581664721250354 -0.17931824754977502 0.2384785599600151 -1.4819897757024605
