# total energy = -340897.24504756613 ev
CRYSTAL
PRIMVEC
9.03341972315592 0.00000000000000 0.00000000000000
0.00000000000000 9.03341972315592 0.00000000000000
0.00000000000000 0.00000000000000 13.22132287690361
PRIMCOORD
 96 1
Ni 6.512228287050806 1.9316793362473828 11.43931276190972 -0.15760759534556082 0.11458224082397041 0.3679850261939856
Ni 4.625372778608992 0.4866303111418815 6.178363940597668 -0.5048060238114984 -1.447681232228578 -0.7379567438006969
Ni 2.6498452238674073 1.4094754189188161 4.831970697078257 -0.007488852177877425 0.9786017152844114 -0.26840748630896355
Ni 3.5641898838480826 4.425020566416385 5.016619212725681 -0.2613588069922983 0.10761300859498886 -0.49429201165405195
Ni 5.250241509119803 4.588679028398145 2.7728551045594663 -0.14398460524548753 -0.2188607857290876 -0.9477546479965676
Ni 7.292363432781714 6.19733231496811 2.595768464417089 -0.22501626380752213 -0.7326893247541704 -0.7003026808933488
Ni 4.817125175390294 4.684677177952717 11.241733809518868 1.2171628076559038 -0.44600977960889643 -0.41348943838368796
Ni 5.752707404732294 7.882299929893867 12.446024136785992 -0.8163275677011167 -0.011964371450727783 -0.4393035712333144
Ni 1.8949584857778867 6.367070268306813 0.44505580434833625 -0.23129695460991134 1.3162988891281329 -0.202907861944257
Ni 2.7033953349579782 1.5707129244612599 0.29615072317513136 0.5316416559471038 -1.1825722141652277 0.6543089877720538
Ni 0.43327261188771865 0.09858261088773838 4.839559672841953 -0.21897751381260996 -0.10872526782256113 -0.17897012018173694
Ni 8.660041219444109 2.3766655832651864 1.3472396749312165 0.05082145352724151 0.2904071305085063 -0.19015724714680798
Ni 6.8448207280313484 0.7981568177325428 4.9636544672219305 -0.4811598451474681 -0.32038259382467404 -1.2638329580189331
Ni 0.6350792046278269 7.476247721135235 2.4720702371553434 0.5336098354170682 -0.5701894343133148 0.17682170638016645
Ni 7.765868185317894 3.8369359203119178 3.611694830576 -0.31682727237324787 0.38931541224064564 0.23532741592554307
Ni 7.79117079347658 3.8381825322097756 12.54655886963842 -0.22377030721556304 -0.582032706805146 0.2933744406669464
Ni 8.028270956397334 8.750267013906427 6.8685433911107925 -0.6016720783026283 0.7863449052960972 0.7459945265035088
Ni 7.012896532172908 0.6535272540322068 0.5265209885313642 -0.6559706917451928 0.34640652869226146 -0.5673313960392293
Ni 1.787189790550067 6.3698706283672175 9.3169469723879 0.7253138582257057 0.12125579618940407 -0.9935873900599663
Ni 9.25853236486982 4.808597627335385 1.2745712347056781 -0.4194284295759421 -0.2907956241961766 1.1956938391488503
Ni 6.333628549133856 1.9617877236065047 6.9590826452314865 0.6129381381347508 0.7524950466261878 0.8053839242054193
Ni 3.2371258956319515 4.369555370381279 0.1450180007409726 0.932946893559774 -1.0953069159886555 1.6891163037137555
Ni 6.0460406043498764 5.6280733152052 4.75401770641615 0.10519257207895431 -0.022783316443102695 0.8265996390510861
Ni 5.430638897527143 2.9890410945387735 9.317423033598168 -0.10504550497812877 -0.41709541056739136 -0.1608494993216262
P 0.2638869619114532 5.458949634395876 12.436848892549369 0.40725708432073093 -0.11522218840081445 0.44148823758945904
P 3.9861499444337225 6.200746947557893 12.478218340719136 0.20849872576847317 0.8131324578025867 0.9102661641328065
P 2.3733864519686487 8.555280652926335 1.4437156923799668 -0.30731856155186427 -0.4157928897058839 -0.8456682256467628
P 6.283366602759371 7.834088569757164 5.902037959966289 -0.04183827619202472 -0.557117431620705 -0.26338483628339154
P 4.8811992202562555 1.032908291570376 12.696621131855936 -0.4892490499135058 -0.46885660230008286 -0.43994454725142296
P 4.032084882843904 6.215525621941188 8.227959212253039 -0.5306443250308409 -0.2828511725381193 -0.2265877220597001
P 4.659049366690243 1.0956724906016326 4.019189676436719 0.7235261701976636 -0.4473853198001843 -1.2016379725474273
P 0.24133593334760334 5.502409415849442 3.5281889969166964 0.2776973962513217 0.3462280941328682 -0.12620439844393105
Ni 1.2178314231721108 1.0436399939954095 2.676498328248772 0.6227484393569533 0.08642069078808988 -0.5144525457623269
Ni 1.7999630457933309 6.554414356347866 4.671370950956022 0.45315821772821957 -0.256011683747772 0.30459782018659154
Ni 5.980096641637128 5.455923438846729 9.106358089161581 0.050101544642081455 0.5919268259904064 0.5986327772556722
Ni 8.643031290432038 2.2766565954305515 10.274421694008575 0.1932708530751252 -0.20118059484050516 -0.6309867681063456
Ni 2.380766755740746 5.347468203733133 7.017759221916507 -0.702466778424203 -0.30982898667854386 -0.09060541829339878
Ni 0.5705571021522003 -0.06401713432279879 9.006985957405199 0.16149895998016703 -0.3068912442064585 0.2388750240674854
Ni 1.5487797817946087 1.0644078255401503 11.444508784834703 0.11479281417287972 -0.5136860999099476 -0.6564813128330241
Ni 4.036502225003702 6.891460273166405 1.56573551028938 0.6468332482202989 0.3374220658054641 0.07744059877666663
Ni 5.616998342837278 7.890276439356245 8.171927620812166 -0.43132569523416037 -0.1113310808765244 -0.5134665276999737
Ni 5.403086967900584 3.0111639390159683 4.830265187467276 0.288401155822071 -0.36373859221280586 0.038473987705482125
Ni 0.665996986378601 7.2032848826022065 6.785526265449128 0.7331865761055631 0.2573417154131052 0.2710325826366365
Ni 5.044252443128188 4.728588630383768 6.968443074568876 0.19692361933636407 -0.7499193154792118 -0.169420785930405
Ni 8.0058138753968 7.067810689615483 9.046478260992542 0.3152429586052635 0.6068669922400064 0.5530026381213831
Ni 4.682635625134488 0.4017658511823046 10.390848921874776 -0.3379974786929598 -0.3707312214805551 0.9534676392209449
Ni 8.1023991972221 7.0639263192091155 4.707518179284112 0.11157353590463366 0.4782940935638989 0.5067929723345401
Ni 7.182164747695028 6.0583260549374565 6.9860013321476115 -0.17621364048252233 0.6739712420876716 -0.3310511292821137
Ni 2.4567107138950024 5.151741102349967 2.652448655381628 -0.35447670729490566 -0.1972995146185441 -0.5644502178366925
Ni 2.3854099333892878 5.220792561387809 11.3947707767941 -0.998837839825628 -0.10433022407865904 -1.2807029943013943
Ni 1.2266751409112588 3.343611845283715 3.767825744047003 -0.6001247884201665 -0.030280910371728496 -0.03551799040095173
Ni 3.7426179867935887 2.7709472463505715 2.951858636330288 -0.6614229731090157 -0.017765808623853276 -0.6037186764190119
Ni 1.0346607749630161 3.3806398320179003 8.319464138923593 0.422699129907414 -0.36545300380075124 -1.1797380871505425
Ni 3.5824193244993596 2.7002246046960368 7.028627328976741 0.44900562901242674 -0.06927786046021618 -0.07403697241175637
Ni 4.1139457308032075 6.935425926114753 5.94157001059965 0.10909499245715405 0.5726476660458203 0.12891871205130054
Ni 0.6155914086332774 7.116961525385355 11.251755485167296 1.145596151161511 0.6111296241711023 0.0018956743608160899
P 0.18129531031057874 5.539148333158036 8.085644913983288 0.19369945597211155 -0.8024564661459792 -0.28127585763119944
P 8.529436039594668 1.5624473455732921 8.023161654300027 -0.20111580304084073 0.8922730699894956 -0.18729509510766454
P 1.9134498955961055 3.224253272773641 10.327862500722595 0.027770485245048947 -0.3326614111920271 0.5730847535832387
P 4.0217596842986065 6.119753307875359 3.8175646554295595 -0.07170858138889587 1.1617172250930896 -0.8287591085962501
P 6.932896568640841 4.051949372433675 10.532224647853312 -0.1546055752944434 -0.3124551114474812 -0.4212888798234486
P 6.4437911005423425 7.933311650090976 10.291411749497637 -0.6104004593145615 -0.35736354192439745 -0.002786818716517781
P 2.37129069863312 8.451242759972539 5.735185280831757 -0.5229896366990606 0.20488632582686647 1.0378715566893222
P 6.953944436191621 3.9459060603398464 1.4619613931864337 0.3836939522888102 0.09125513606225574 0.2321279351516389
Ni 5.252120460386139 2.949817986854013 0.38292394468555807 -0.1406470562318223 -0.23075650872540904 0.11183990219214288
Ni 1.5134500779357654 1.2289605960573307 6.936090785793611 -0.5116186758579576 -0.32690342566232733 0.6896837677269219
Ni 6.701162256932604 0.8728866842993207 9.187391475890134 1.4228667442880591 -0.32421816552068033 -0.26376870198537156
Ni 2.803033952591076 1.4713091757364545 9.294034607042063 -0.6540271948655768 0.20609731541583212 -0.4816159588482802
Ni 6.265218462884041 2.08841819885408 2.487473120829522 0.5705123648703724 -0.29860355027636964 0.9566743190837007
Ni 4.217938456659256 6.989644510252003 10.28823830920983 -0.010700417136639636 0.09515447111666192 0.4092144651574178
Ni 7.998885242602186 7.152923568612676 0.38191491172185754 -0.28485509034202555 -0.6689575909231641 0.25556636868023724
Ni 7.683221429857766 3.8517868620516107 8.022566351951703 -0.03884011279564924 -0.577923826843095 0.9926581933774774
Ni 3.1323562956946294 8.248171488495473 12.481073804638793 0.2184265264051464 0.4201036012660958 -0.21229804490990534
Ni 0.11912009023396203 4.611533579858865 10.243431644901404 -0.37248342828497144 1.1883168299584892 0.4397794824284684
Ni 8.63358233358306 2.437415329736862 5.778670355860062 0.6689424214145124 -0.18555677226031914 -0.05852422148813792
Ni 3.7182367874289715 2.580595029599472 11.5308312387096 0.012866057329390744 0.013284118703415832 -0.5632060610169461
Ni 1.2127094742874358 3.3078846709646847 12.540252639450777 -0.5717122987157445 -0.16894024674956065 -0.022083976383232937
Ni 2.916584036330698 8.304666494359244 8.022751537052471 0.7395819381089457 -0.22701632495668647 -0.502799792014747
Ni 5.5154356068400965 7.86465766151332 3.669339790748446 -0.4348568483158704 0.28794992721726537 0.22914956924960536
Ni 2.9744250217073724 8.435623977571122 3.5332269349995595 0.8907769450599434 -0.7420211436780575 0.02315638351180528
Ni 3.4146687234615882 4.127215824121705 8.95440513223231 -0.25249955682945546 0.8526973645794024 0.7188855861018587
Ni 7.373375139303348 6.158624112197682 11.53450693712437 -0.8623510856190826 -0.5973174008783584 -1.2599773317182688
Ni 0.42502148647103044 -0.18642448593089359 0.3598119407676723 1.243651855085368 0.8830142703953888 -0.15253120926391794
Ni 4.529193960663427 0.5053349096614727 1.7245096023206226 0.033520500354948725 -0.4397020922233137 -0.1291097450161841
Ni 5.8341346485532135 5.346871998042853 0.3107008520438195 -0.2154057373009516 1.484787650162572 -0.16036330371382707
Ni 8.217141692342283 8.826725876975015 11.204396879836082 -0.962347201098762 0.6083415199030039 -0.021874688585904262
Ni -0.026836482798223527 4.949889342512111 5.856001847257152 0.9658906954756461 -0.7715960291216969 -0.5703138757063211
Ni 7.672318092461289 8.683220974008616 2.8022588851937122 0.09271783665071127 0.9532138713389262 -0.24238817942706645
P 8.337051303444888 1.7195114112837782 3.502738240677396 0.0918968834113127 -0.9342805247695328 0.7717114716536387
P 1.9782827477042413 3.050712249804518 1.625614435116465 -0.5752627350711641 1.0263491578720194 0.08185466868396227
P 4.652789206942306 1.1121223476016209 8.210533745941683 0.46282633694560293 0.11271099194318653 0.8678072236376473
P 8.646536257217319 1.5322847576968721 12.401719730604528 -0.38633036147039274 0.7767729453369461 0.8100785014676113
P 6.130304341909399 7.851342401097075 1.3788250263867128 0.5807337854880643 -0.8471365826621732 1.3346987317915593
P 1.904732645730653 3.3795467882523877 5.87156281577345 -1.4907919473751228 -0.640896828131206 0.7965514135154539
P 7.005615596015857 3.909212310129 5.963556450441644 -0.6126717718472415 0.8199551371513749 -0.35278389297351503
P 2.3393485271054106 8.32878572455692 10.23373968906654 -0.00023294194641250204 0.8312214540938136 0.674359992885658
