# total energy = -340869.068492922 ev
CRYSTAL
PRIMVEC
9.27608584394293 0.00000000000000 0.00000000000000
0.00000000000000 9.27608584394293 0.00000000000000
0.00000000000000 0.00000000000000 13.57648927373472
PRIMCOORD
 96 1
Ni 5.1600083200907525 2.094985455041358 7.500738626406384 0.3521966530114773 -1.79981180788881 0.4294372199621959
Ni 6.46722217755592 2.9720764840342233 5.690843468718537 0.08614198320540647 -1.0355827606551455 1.349421896934347
Ni 7.342086945925667 1.882507430736616 8.584007362140568 0.8714787589519638 -1.0860918251482907 0.3519274585104907
Ni 3.3833595819833913 0.4431612948550302 8.09549806600122 -1.4856795658492221 0.06990392407998929 0.019576893690663056
Ni 6.5608086085002375 7.004762081093661 2.0381295415527063 -0.41273404827490207 -1.1418307705818076 0.6534517819780811
Ni 0.5508612905413223 3.6472178462525076 0.0189297085566527 -0.5966651120063402 -0.9351271890405444 0.8717926906479566
Ni 3.8635454462180574 6.013640127767512 0.16476276589117506 -0.0005484163043022813 0.6268246663088559 -0.03143173614672007
Ni 2.419657738665311 2.7254531874224104 5.653168645715231 0.5243330381008325 0.9165221723448473 0.2547556998534838
Ni 2.792556393037555 0.05156390646578186 0.9919159862817272 -0.25504392051786395 1.6459713928951651 0.4579394411669468
Ni 0.12142674764499968 8.290436867030163 4.960917542999693 -0.3879383293874609 -0.5300375446847775 -0.09924175381215812
Ni 5.843720785708041 0.37636976572712205 12.020325046304968 -0.7870403887012252 1.3043388885527794 2.0392126225527787
Ni 7.8427915122367375 4.704097972734001 12.835457386939275 -0.6274900678069968 -1.262301351865755 0.7180078114825956
Ni 4.009077958368459 6.92698210057348 8.4505365445245 -1.4295431278669701 0.09513287385010713 1.9120687430137135
Ni 8.574767452946034 6.8513448959030505 0.5818610421096457 -0.0861952050408451 0.30797933506431474 -0.3630945308709037
Ni 9.124598170340573 0.8745363949278372 1.1227375537562843 -0.21528849499679698 0.9025070890126778 1.3316046662472678
Ni 8.182222048574776 1.5581505340342714 12.51000220166286 0.6164929453655448 -0.555965577404449 1.0900934901085162
Ni 0.8774759865589458 8.945653196671543 13.140887357910747 -0.4790024324848331 -1.0353025104105653 -0.8034406844361195
Ni 6.402836865118165 8.494761211802736 10.326182454498948 2.0641914039853035 -1.7720009563241286 0.41100575272988565
Ni 1.7165675295409675 7.593951231087736 9.300275178936582 1.5851858861766763 0.24682487504218134 0.9104813654674062
Ni 1.4411512622034972 1.62325010508861 3.78532856205059 1.2150095087583268 -0.97446429607727 0.612384579624126
Ni 3.585197935726815 1.2618630733550709 12.615070571770909 -0.8002972537111314 0.27545205186057076 -0.7801958549755661
Ni 1.1566722589127514 2.104131675768001 11.719306781801642 0.8682692508757305 -0.5577298683937234 0.2670828539602691
Ni 6.394664633414137 6.633162078751569 13.088047989629636 -0.29222130089910964 1.8548401004085477 2.557792817330234
Ni 0.12052603970122991 5.690962202618436 8.929420046294643 0.03860331419449481 -0.09730262780791629 -0.19684365802804807
P 7.889700678783017 8.598402919894802 12.399570398670283 0.08586121874019406 -0.42322543472452917 -0.20727359511212043
P 1.952578983849251 2.014450477000069 0.6489113740349912 -0.9612724799773446 0.9011564885220545 -1.0143760446705434
P 8.364951665303105 8.262831235303501 2.9605982553048644 -1.3865748518355603 -0.6053474702716864 -0.3368350829537425
P 4.634295426113325 9.234269334286918 6.429907266686686 -1.3538490794677651 -0.9444872900992055 -0.7146175548541241
P 8.087364793858095 4.97709318164383 2.117646932967512 -0.9940069940958882 -0.7634376616806207 -0.7446768361333498
P 1.9296392233452075 -0.04355122343974344 11.26270258321735 0.5511977237021605 0.9897536181361729 -1.3538490794677651
P 3.4775489585131365 3.452939502541754 11.365734852463842 -0.23195567123983274 -0.5650328298130398 0.3203514834764225
P 2.296953673987798 8.330518834332215 4.399311762126048 0.21585053814785407 -0.630655610019172 -0.006681525785233654
Ni 0.4686046709514886 0.4763993659581801 9.566822580516709 0.5017592665653746 1.4721519636764324 -0.51213521048306
Ni 8.810296550785976 7.70119206052051 10.267477817084515 -0.34153788774605054 0.21134467985770053 1.100456064289763
Ni 1.1939435721781164 0.7381658728501588 6.286294904323724 0.02925452598974317 -0.05343780810416604 0.814244974140475
Ni 7.365676032444788 2.5747353432373306 1.2526018291629009 1.4005986769184782 0.9559788356785729 0.44258429886711514
Ni 5.12320081112187 4.902207339933702 4.869683527447136 2.346924562888319 0.5513234506467474 -0.7577760925194691
Ni 7.077597907813334 6.549296985861533 8.74165722534088 0.0036471098342840415 0.09824776533000498 -1.3080412771050312
Ni 2.805663502456162 7.863671981664397 6.426349887732663 -0.04147446509470277 0.01034251957658864 -0.03349607487491651
Ni 0.25209804252749635 3.0790019265453883 2.426458037260343 -1.482210376353699 0.5188090229588096 -0.9890277957137417
Ni 5.619675482249016 8.797801663038728 8.35578596479601 0.45173974011413814 0.455786399379686 -2.1448965324458547
Ni 4.5008774821870565 7.350120036340751 4.349690268053936 -1.7297636449214728 -0.28384901767501436 1.2334695152357273
Ni 9.428863064919279 3.517937036650866 5.013960057562662 -1.7189359581783492 -0.693417009517109 1.2732190272195234
Ni 7.941971422996638 3.9772053271141545 7.665666506627106 0.8393646520262383 0.5185172027500037 -1.252519589888643
Ni 4.516183023970992 1.4982919515301893 4.840738428912231 0.15867537448844288 0.1847165357472109 -0.6150554415880698
Ni 0.5621771877669118 5.779196331981342 5.68863019461572 -0.1510494825120689 0.6366485943778133 0.36215273578292473
Ni 6.2792237440195455 8.510502729625365 4.079286797552853 2.152791618923215 2.634749020271314 -0.4473084438156619
Ni 1.5023548771673796 3.8743242580683197 9.772235010168828 -0.8882765472355929 -1.232824939673193 0.9502185361560279
Ni 1.1131117593870783 8.823320175431215 2.7576838755935995 -0.3896388570183354 0.22600639563493335 -1.0985624468114759
Ni 2.0218527935719357 4.755172101862697 12.307290968233454 1.1165455136524576 -0.6161509886450938 0.5633850097969717
Ni 2.786564041526996 7.35312548818196 1.976899953548221 -0.49435063280612923 -2.694510713710979 0.23696083776390806
Ni 3.889713284625622 3.5554216998926136 0.19255299172783688 -0.3791397572592244 -0.695288515508209 -0.14046425079705485
Ni 7.155025397068188 6.169348506182749 11.155176977946537 0.7019589855498491 2.303335879664091 -0.9890468218771356
Ni 0.34326341504417335 6.289529475487395 2.749999566009471 0.5749516315886485 0.48988334106339504 0.5816092461144822
Ni 8.217183616443656 1.2537001177369722 4.264375322933094 2.0095968565688747 -0.6332639941762965 0.4611242666528317
Ni 7.241265167956217 7.4711544055509265 6.3717721809483345 1.2197657924963896 -0.8506757061636834 0.19619676847266854
P 1.3307658396405693 6.40759549720008 13.597126078709408 0.49716907609153094 -0.01717625466897042 1.3503963450324743
P 2.106914501546898 2.1404753804404 8.425378871874674 -2.4308546260440713 -0.20082372572171864 -1.4704902597032934
P 3.645909918136426 1.4174044822235732 2.683881480720056 0.11994247669461923 -0.1484038173591057 0.5855965128970044
P 8.402148769881032 1.720621179092228 6.3350750574020145 0.6458552005777458 0.9146750918337796 1.78335211967089
P 4.536785210820763 5.797182662598947 2.917669457231001 0.4164971148617601 1.2898772046014948 -2.3239430143914817
P 5.493659854894614 1.4030265490326037 9.79642796988197 -0.7982946214588057 -0.572877008447807 -0.0019692079112288664
P 5.965116922269472 3.0661916518765313 13.314952182772183 0.2701694633053928 -0.1366613321111969 -1.6482149375137034
P 8.80558429913371 2.7362969318741808 10.424965348781061 -0.34025619282014946 -0.23861739953072453 -0.8096987495306894
Ni 1.214480826426379 4.0197454571875655 7.390253022115416 0.19297209088778378 -0.17514920377374996 -0.329594085120613
Ni 5.087524984636406 6.56104978673441 6.652262467289327 1.9901400333958434 0.6534150152028746 -1.2375873940588429
Ni 1.9451117346758766 7.172816929881272 11.709260780739823 0.8326895539989079 0.12219476306390568 -0.22319823676217687
Ni 2.527751968003614 5.999679618443377 3.982052082012401 -0.8541394963425677 -0.47594153417132223 -0.7349449535575665
Ni 7.274853875107508 6.379470404661358 4.121957720437872 1.2048467092927122 -1.0028675298103116 0.7728041904971851
Ni 5.6113641092560425 4.497621576025747 7.969181893462697 -0.17477202293998934 0.0127999799781457 -0.4056681425670562
Ni 3.2531789920465735 5.359063848055279 6.016217952047365 -2.462421345106759 -0.33545028679107386 1.6539099310159517
Ni 6.048731560839409 4.826347509200961 1.027946159249704 -0.23482193704403428 0.06540500776837123 1.049442035135741
Ni 5.326597547301477 1.4401494449230943 1.0881377532386607 -1.2468971014955428 -0.21563867924736413 -0.03580029752806092
Ni 6.617847260881704 0.37355725647324983 6.149077475600667 1.231957192356259 1.2886613299165226 -0.09412911517594112
Ni 3.9299622214744074 8.72099567154116 10.173311630769593 -0.4415535436097557 0.8174495971207018 0.9677148931685785
Ni 4.214515433452591 3.7788084012506333 2.9313952815811155 -0.4740150065725708 -2.2915391441394792 -0.3875212964547003
Ni 6.715079193596377 2.6404749642208154 11.194073461466779 -1.4565816200420012 -0.1564886512497692 0.03959601712506729
Ni 4.759086610125012 6.9844567289936395 11.565852492267313 -1.1826411197299502 1.7447372355121693 -0.5415717705766221
Ni 7.209420364959701 4.4278468576628605 9.895210864164081 1.2394164768477816 -1.4444673532769705 -1.0520185376136657
Ni 5.3387121155256105 4.8773567057281495 11.835236520924726 -0.7198384369334313 -3.1779485562593464 0.504215441415351
Ni 3.063436654355423 5.470803579163937 10.331830663221517 1.3160093829121724 0.6176625401936137 -0.797519176745362
Ni 6.708409687812953 8.77657797843167 0.7080371457506303 0.3560216831845224 1.168765904409755 -0.908265845873326
Ni 7.157817498933015 3.62871205482284 3.705621010874226 0.4066503039746674 0.43495969244232185 -2.0243801855256365
Ni 4.700897723088269 8.563190897705823 2.2573225244619275 0.681102196705498 1.2920161053213683 -0.3998831604541629
Ni 0.4107580714855495 7.767358381456759 7.422415994859318 -0.37313417449509284 0.28751129701795003 -1.2442244397593862
Ni 2.1821899388660713 4.765190274666727 1.7113033507758866 -0.18312785110385235 0.3205029214526222 -0.36911502603337076
Ni 3.795681601556681 2.979580837551316 9.191540899669134 1.5499738570519177 0.499884675250481 1.5431228955683554
Ni 0.16598813684248284 5.65722507809227 11.381048742725111 -0.4024223819362489 -0.7443022264027503 -0.5185549979664746
P 1.99029554923924 6.0808360942419535 7.705132541823429 -0.5658095600780643 -0.07177183052666349 0.1708770587609573
P 4.342284241047697 8.302820441746258 13.46804006691229 1.2608782462659833 -0.17170109732414945 -0.03188990673006121
P 1.7293128716083175 3.807193224195386 3.70499673029116 2.252666121223365 1.4797662856885807 0.06145913574674577
P 4.355400626552234 3.556108130251409 6.295988414120216 -0.7619644195692039 -0.5627879996429211 -0.05705200781798561
P 7.300326007070347 4.970432951946336 5.7714739904449015 0.747886601319899 0.8139323279960627 0.17729196114836565
P 7.925710444361948 8.51040996876607 8.386089082311017 -0.39066729828284974 1.1944766789122978 9.7701920128864e-06
P 6.714346382807934 1.3873128594677633 2.985388594951875 -2.5764019477909885 0.2148537214522235 -1.8167692616787552
P 5.378710598054295 5.755301134626543 9.713203854529674 -1.3248917730034666 -0.02882952263718261 0.9710940940534565
