# total energy = -340896.1571309969 ev
CRYSTAL
PRIMVEC
9.03056529195226 0.00000000000000 0.00000000000000
0.00000000000000 9.03056529195226 0.00000000000000
0.00000000000000 0.00000000000000 13.21714512830726
PRIMCOORD
 96 1
Ni 6.270210374109493 2.078122686986126 11.319017845083176 0.5695487154055223 -0.41709309657454613 0.13706139576309298
Ni 4.694810219451276 0.21886748657706964 5.938225125183673 -0.2574730987846469 -0.27698622911691007 -0.45522152801515153
Ni 2.897312345055457 1.6843990762339212 4.932783672753924 -0.784400894195849 -0.5606341865247119 -0.41195603245829693
Ni 3.3066317418525033 4.339620030270201 4.813948659597419 0.5422086328296727 0.3296923012613741 -0.11127580215855674
Ni 5.105574506675176 4.527798947237435 2.7575453848964404 0.6150988932314956 1.134517010529214 -0.1083023213525296
Ni 7.143664698272313 6.089255909276523 2.6377188156845093 -0.09827167658940494 -0.2301222175755198 -0.6531494202463138
Ni 4.829699771363148 4.5491020504683455 11.266003912265433 1.0715797475750448 0.1362810659536427 1.217345355980355
Ni 5.709087176841231 8.020279720243872 12.57762035531483 -0.8043601109265953 -0.29360378306893303 -1.1112343858521894
Ni 1.647680798261526 6.416677110566523 0.3961230319172971 2.0283443123797062 0.9636692623442952 0.3634352020397741
Ni 2.6290503761799093 1.593876690991597 0.3795618784560143 0.7054173764120948 -0.47394944344195794 -0.12218242176873151
Ni 0.6614563885089174 9.201694377760019 4.575960757390504 0.06524817047553279 -0.30232213677853736 0.5446429533027781
Ni 8.752703708180695 2.419550294851429 1.3704596056829748 0.11711786276163055 -0.195030001858077 0.3013386898193456
Ni 7.033392467007944 0.7058461315913841 4.77173257355085 -0.953273778042584 -0.4485315175894856 -0.5847812160845607
Ni 0.5976256447331472 7.120103953749445 2.4785849054665654 1.4319046861206115 0.23824227557949296 -0.33373664653407686
Ni 7.477461478570801 3.8277043826014414 3.773494802955477 0.8719721536486144 0.16925417844555365 0.35758259991373903
Ni 7.576237800376521 4.0398594500892635 12.470111476991816 0.50216601508549 -1.1628451680499456 0.5865997573505382
Ni 8.137487425557135 8.799066629752334 6.701330458278198 -0.22929072281316 0.452161401032589 0.6673696776107538
Ni 6.98901626977323 0.7140919406461294 0.5545751344650696 0.5248287467903284 0.43586626341699125 -1.288762117160445
Ni 1.623135722135365 6.404070441592233 9.324788205449671 0.7458433456376251 0.29660451756846984 -0.79454800993218
Ni 0.05317648299076487 4.850605529726674 1.3560919765009576 -0.27001673977761237 -0.624099554068209 0.41281066714910836
Ni 6.258145539045273 1.7480284384064488 6.856460215900726 1.444860732060647 1.1570691847981172 0.8989347982803874
Ni 3.558349715340587 4.111255098306125 0.4292110226922249 -0.37907059458418585 0.8230715712931697 -0.34631319764750673
Ni 6.052808548259163 5.6148893515756 4.9052919232135 -0.1081097457257493 0.20606620506758058 -0.2724957974457242
Ni 5.220786457086346 3.046849473669548 9.145458339290393 0.317047358803854 -0.36054991007217907 -0.22594443204874637
P 0.25075983052377687 5.461694844068538 12.383856936847808 0.2976175322140165 0.04463717909340054 -0.4878984494228823
P 4.122769068895108 6.077227196472974 12.698992957283494 -0.8070903653735648 0.848041868085262 -0.37348667273850517
P 2.3348345630120195 8.423991136071697 1.531642551137499 -0.19983462233557198 0.18343535504194214 -0.5972736921246166
P 6.431270503877736 7.695052946289655 5.992983763191842 -0.6425518472361257 0.31505783917765096 -1.2660428211860584
P 4.610302190610727 1.0534425185228318 12.434082231141726 -0.1144742544911964 0.02127202200489885 0.3403127570896977
P 3.9242953076365477 6.100011312391409 8.16008009349401 0.46674058439834454 1.4178456369243841 1.0383369263615148
P 4.564923600642382 0.9705419302821556 3.692803994011369 1.420519069991489 -0.16423589929535587 0.02743444206186888
P 0.11519659845038532 5.466481043607487 3.659166944874237 0.03466541259266933 -0.4296549923999568 0.4255857074265896
Ni 1.6972134482070715 1.2643694291478287 2.6297096074371606 -0.3362028486863823 -0.6578033740785574 0.13258099139423618
Ni 1.7708306154552187 6.431713001570959 4.881910886937472 0.017633911031679307 -0.7004649175028259 -0.856047769108874
Ni 5.848455889076346 5.665523730471621 9.359496279615707 0.523950200840117 -0.5476663135101343 0.016713456099938958
Ni 8.687719761232994 2.1923864280546743 10.161221727706971 -0.23107969639278267 0.5052384833632266 0.39874673285687456
Ni 2.380222183545531 5.193324508410977 7.049046951726378 -1.2540285703340017 -0.4632348852379312 -0.25499018446179317
Ni 0.38944221980613675 -0.08923733581894222 9.195286288716927 0.1631958880666157 0.8356465797447028 -0.39951395004020224
Ni 1.6096711494701308 1.1078968264848446 11.414960375539232 -0.8131573975032512 -0.5043036302537831 -0.6003908975973595
Ni 4.150998615609743 6.9451548147530815 1.6200255954915643 -0.03447515095873418 -0.07033586941108533 -0.09558847333028699
Ni 5.680667988258071 7.643235563356649 8.13656721096653 -0.7289146882030866 1.33047286663567 -0.7004816296733742
Ni 5.168833615675823 2.8499831530108617 4.849648289818884 0.571407365880816 -0.3492830789091081 -0.2605987888978222
Ni 0.8175659624521548 7.271221431267906 6.970497289783562 0.05054403149613875 0.16124982008383842 0.42471384634459763
Ni 5.107127763884042 4.71256431057123 7.001703310777515 -0.5809477012710833 -1.1006879777949108 0.19677603801490626
Ni 8.068412632588405 7.1314914964260785 9.009612450527248 -0.22333167701624765 0.2599120472434427 0.8553314597681398
Ni 4.5351859495447195 0.31064873260378945 10.329343759436457 -0.0685713213114948 -0.18048578549531497 -0.378694956412322
Ni 8.164308204105588 7.3039843216967935 4.457851801673494 -0.3189746577335539 -0.012642885574991129 1.4616929731266375
Ni 7.149381046023549 6.026204503274737 7.162119561249289 0.021086388356654006 -0.11762488430503613 -1.0158616280771344
Ni 2.3493557118018895 5.146862250622492 2.485299130668847 0.1980865292962137 0.4627263210326289 0.5783125776410815
Ni 2.464856640298431 5.346013304268641 11.480808547573494 -1.4431195809998243 -0.40326801776599586 0.6600788003762955
Ni 1.1670289672037932 3.3989150873025546 3.8421180676658144 -1.0596945661016848 0.1891722575257194 -0.20888721945614347
Ni 3.882339301866811 2.7016561201292597 2.5469435746174853 -0.8740475481204043 -1.188836449907385 -0.110496500790371
Ni 1.0546164919946495 3.280461163996133 8.198488893265823 -0.47662493339159206 0.5269522208912344 -0.6555824551678386
Ni 3.61417666920811 2.7723564148281983 7.043403751553001 -0.09345651458894873 0.2146629455976561 -0.07800598436183341
Ni 4.056222834173371 6.8172187980204395 6.0632334326889055 0.2238746940039112 0.1999688339205911 -0.877711627235553
Ni 0.7270932453182536 7.4166315916003 11.36540966446335 0.6961333800070075 -0.314298078193491 0.6017499827284153
P 0.08233437180465324 5.539673774292747 8.043398870130034 0.7828502618792775 -1.0756716582562313 0.0991885319767195
P 8.530587927312759 1.5671642792251568 7.989076408419471 -0.7398411053076033 0.26844553863575055 -0.12344123387649708
P 1.6719278657371486 3.308988719361307 10.358898090061212 0.6874960160469837 -0.654585381361892 -0.03978782142089922
P 3.9782077816884907 6.173483990596871 3.7977481918267175 -0.06313060991189773 -0.4441984374317705 -0.11684712559874715
P 6.8116920921377275 4.010148890687105 10.423463018785126 0.41834059582840216 -0.05545689541672385 -0.7142028359142086
P 6.34250004827797 7.8123148349939235 10.24345947246433 -0.8730358190264383 -0.39058348031979184 0.9057392227967305
P 2.3161593542449475 8.358582752561107 5.771305964734544 0.5459616721142017 0.9397785717696266 1.1724515807914582
P 6.941714169424139 4.029365933364246 1.5810081356274397 -0.2454375077763515 -0.239921977274761 -0.6417036403032175
Ni 5.458461901738454 2.7636419194412425 0.3950158846277212 0.3164128105436486 0.07065391487213638 0.0780419798060914
Ni 1.3542325831329016 0.9455904787234423 6.991830193879526 0.6669819552540319 0.47429525681715085 -0.32603336435254815
Ni 6.93721694797056 0.614027860247476 9.23279654725454 -0.9451647757822045 0.7791972385077226 -0.7569836785251608
Ni 2.695488244119632 1.7233388732376027 9.068520633230033 0.047544325437866505 -1.1609772616032716 0.49150647848911483
Ni 6.545696795119305 1.9100548386476486 2.566809011873677 -0.920026328843364 0.19360406804482788 0.36899289863320966
Ni 3.980429300719777 6.913854875881384 10.369431341272968 0.03570799492457076 0.4788247692563882 -0.05586441526778766
Ni 8.188203079539665 7.009831722485077 0.4072215965085597 -0.2316152571812785 0.47056921411581537 0.08212026364052308
Ni 7.634457854013519 3.872866239005758 8.184875316275319 -0.48238420447287245 -0.9973080334446631 0.12828005002603715
Ni 3.014231072283347 8.39352200919544 12.548754153755862 0.5035006747365134 -0.936038130890588 -0.29007931485544236
Ni 0.0014223140139331693 4.712790074700425 10.256412012084548 -0.3040954266288763 -0.015259497262231784 0.0019869485230417394
Ni 8.567522938849182 2.4411965595587173 5.8503044457662 0.4369918923810022 -0.14903116653045947 0.14188067152860728
Ni 3.5055028479784482 2.6224851553028974 11.304650215901159 0.5420330264837568 0.04680281928615165 0.5452417632290416
Ni 1.154196534100307 3.2839379315857475 12.555798897643285 -0.6856808172151159 0.6206144237330861 0.10336477484159619
Ni 3.3659174021793046 8.38498812511184 7.879823727962552 -1.332166452288009 0.06533533087270037 1.075758818653399
Ni 5.586840416164321 7.735708550675224 3.829151982197845 -0.22493218873414808 1.2501351488168664 -0.6067456361707937
Ni 2.990327166284102 8.24365074967014 3.7092594898601883 0.7312232817316052 0.42490385086821664 -0.6940646704034369
Ni 3.337335663423124 4.485427535469978 9.421510976736226 -0.5253802484184242 -0.7183016885739307 -0.8321578498651538
Ni 7.48333134592989 6.285462998677958 11.381217668789636 -1.031148636143192 -0.05817403723757077 -0.41860413390243395
Ni 0.49448755995136473 -0.08388311373093602 0.31124926518745016 0.7223997699027043 0.4536899218619735 0.03440984493843751
Ni 4.6747894564741985 0.3682059427574685 1.318392979151336 -0.32234768797084484 -0.053464033356411145 1.1101987454988234
Ni 6.0797918769806385 5.710062477879356 0.25425646535676044 -0.28607533590237183 -0.4466929217188501 0.7880616308768879
Ni 7.996312600288453 -0.16859433028776202 11.321344118670408 -0.511745688354125 0.7828592607403421 0.649968708525487
Ni -0.14678280623790307 4.898648136419528 5.865054970911333 0.7065851714679509 -0.16547568523972792 -0.31573249664717234
Ni 8.27148295151739 8.891566708766414 2.5444457202920634 -1.1925411524524816 1.0432130235068937 -0.08851459720264111
P 8.551484655111116 1.7959355866217852 3.6046322648822304 0.09111038295427534 -0.3213200180372789 -0.07486461051937429
P 1.9082035727882434 3.203972277024616 1.6320001249041067 -0.5022009820884834 0.48656636087502014 -0.4855037239384607
P 4.66975040111055 1.1633354660501507 8.154172297761216 0.09239336343175701 -0.7231081088236385 0.2314609909916014
P 8.545741215664377 1.6621838859210605 12.484373448561369 -0.10534323872420566 -0.07886627547959967 -0.583612135477124
P 6.44460864863062 7.885191495898309 1.4792499212033017 -0.3476257458113432 -0.6843685261615956 0.798866691912192
P 1.7278180335608462 3.3328565030998805 5.969180096465959 -0.05093046830128003 -0.6827839552832952 0.7623791385091193
P 6.811168319357993 3.8576677978283005 5.9927191676324245 0.31307140487524143 -0.33991037944495656 0.1815921311856163
P 2.189108332898752 8.43775371738747 10.055484646269889 2.228448386326581 0.23381509304607473 0.8052201449340455
