# total energy = -340870.2162723588 ev
CRYSTAL
PRIMVEC
9.24878153837239 0.00000000000000 0.00000000000000

0.00000000000000 9.24878153837239 0.00000000000000

0.00000000000000 0.00000000000000 13.53652666257299

PRIMCOORD
 96 1
Ni 4.444640654665266 1.455138530938479 5.594362225245377 2.258491469655891 -0.7585721060582032 0.6346541896556038
Ni 3.60558195327859 6.198699801875802 9.874259885316446 0.23981836181736116 0.14411033219007438 0.40824361660371633
Ni 8.856966066964981 3.7792000785465065 10.588569172829336 -0.8143107943814041 2.558583431552329 -1.3968096421896912
Ni 6.328589688476198 -0.025184431872178618 6.512098460620393 -0.6124912804053193 -0.3797241690077847 0.16990055378030094
Ni 8.903339457125503 4.235821667221251 2.0019033679577665 -1.316198873215159 -1.2131169197213043 -0.22576111239334667
Ni 2.6851339751841765 6.361774316297488 7.5053001281882255 -0.8628714768989267 -0.5742975429444175 0.07054849964252367
Ni 2.9425090652095114 8.562623597507734 8.690179091671647 -1.132445729822482 -1.0402066325804022 -0.445153088035556
Ni 1.4542598967012932 1.33434944527904 2.933176119854309 0.4394737782625915 -0.5801542588355105 0.5245245852863483
Ni 4.521886477286064 0.8576764984335703 8.101814160595117 0.8081329477054663 0.5889525738534308 -0.6544578546450922
Ni 6.5085154826889635 2.1736023710760404 7.35771084853833 0.5965599538870435 1.0285685341208415 -0.06676203601689792
Ni 5.0471987657458515 2.8143117056133793 1.5944399775363511 -0.5614731374862394 -0.4637532196352464 -2.190872999175969
Ni 4.578433527035054 3.7222090872882014 3.72812183326539 0.5922541274228381 0.32570709136138104 0.8337542478179963
Ni 2.909444671546993 1.3418779533745055 11.396659254428718 -0.7461444218178117 0.1333831755805574 -0.7149587402436267
Ni 4.941614676780449 7.115550003988475 11.937984883080754 -1.518493012834817 0.6372036955503348 -1.2638499272997976
Ni 8.915233390062566 0.3586418478126495 6.792507640832162 0.2543929171974264 0.3489120687229346 0.5861148472943196
Ni 2.264702868300043 0.9391212678299732 6.844473769131909 -0.26008225427271986 -1.1429278603007285 -0.412915825268405
Ni 6.76598306052874 1.144102010974701 0.31279841282887144 -1.1190878204583372 0.9217057734283159 0.5889780277747276
Ni 4.435993044015068 4.335893482445994 8.484599952367489 -0.909209440733518 -0.22432386572618784 0.6631579535222515
Ni 9.324159012830288 8.262463644522171 2.9216558376875867 0.42866820300665526 -0.14594867095039382 -1.3919119477777577
Ni 7.491910667291657 3.713182276598798 4.410525599430701 -0.500428206458777 1.902503982143414 0.3815532517967235
Ni 5.040946589489667 0.017252676905751742 3.57490189547235 0.8508502840683346 1.889799132982236 -0.2661785969784448
Ni 0.7155911686210359 6.912187797596458 0.8890520646044034 -0.08758514340983627 -1.8362816206800698 -0.4592188221000027
Ni 3.414705601836055 3.623052901426422 12.385989382084064 -1.8656536460842836 0.9622903797188975 1.9163182623186867
Ni 1.3669976437765758 1.8502094791029968 13.246803992061606 1.3240438231808744 -0.41053498374105424 0.7756876826925674
P 5.929930213111383 8.713979905839794 8.98398975619586 0.6117063226101788 -0.7836969261502891 -0.21264514383667893
P 0.5741134837493762 8.457871898872297 8.786274855753588 0.29183229299080704 0.270805811337811 -1.2050140881085118
P 1.1263628481649919 4.6174633847289925 0.5975887408106924 1.6747366379533157 0.23909125384334953 -0.8931333611072619
P 3.788902050281327 1.8118732800173631 3.298946003525897 -1.0464788387423591 0.12190422840668037 1.3351332482258167
P 6.4900271685822855 1.824405378874066 4.9623014262363805 0.22452132644897463 0.2139926590035089 0.7165173429799984
P 3.770950165498404 5.57585911308839 3.06420915584119 0.10141407887312856 1.1902706112507502 -1.3774119543893697
P 8.678381346061604 7.0744669168139565 12.23317546579642 0.6012912979244418 1.0034185172177752 -0.3612381943884553
P 4.207067205711666 1.7197369192716256 13.144941612749294 -0.06557624323891288 1.4006094755517557 0.625693123807574
Ni 7.803788826366844 5.652614750292653 0.31336351337510354 0.555509977924269 0.3920716348295441 -0.3408303201560646
Ni 6.496085120428146 4.803141920999965 7.826223595515705 0.9686006382076416 1.243298071290375 -0.7829785599270258
Ni 6.941460190866913 2.4015200922020403 2.714736549952183 0.9919562822144464 -1.1162575500983938 -0.4467471719955532
Ni 2.4599353958027304 7.961841252464406 12.814745317145997 0.4270311816238646 0.09927337838104193 0.6401404095811556
Ni 4.724656761665662 9.08538322228896 13.604886288596889 0.8204505887305548 -2.889273577950598 -0.410070642510126
Ni 9.041201793330679 1.6070775125015162 10.657402303848619 0.46163231663750176 -0.8342643546851954 1.3920150490145253
Ni 2.5676097093744907 6.569908893914642 4.611813304144816 -0.7963498390276091 0.46436025709162604 0.8699057580378889
Ni 7.898385362976702 7.95811399354245 9.667408113685585 1.083441017789005 2.4426349065084514 1.067828765173045
Ni 7.164087609006909 1.1661881010631194 9.52197195035587 -0.9576726784412282 0.44536880359078773 -0.06967072502326065
Ni 1.9533796361114995 4.340138673128818 9.65487324019445 0.1273423687031162 0.3563626114637089 -0.07133062922418683
Ni 1.5889499008711563 4.743995963665194 5.726789977474024 -1.0601169983510839 -1.013785462274396 1.19800834621464
Ni 8.533073740793958 0.801855478027939 4.265102384395004 -1.046610736334533 2.5612954311668537 -0.46036013479329746
Ni 2.798561030814143 3.55356680643719 1.7230775791292205 -0.5477372759573857 -0.6361644556525431 -0.05601791012651643
Ni 0.4464969476279312 3.2440933305374586 3.856258150903991 0.8145663620356359 0.29823485408304123 0.7881631894517587
Ni 3.277509177894852 0.9396207020279524 1.5409977437181321 -0.4642509852072714 -0.5998162560408122 -1.8838141190433944
Ni 9.291418326518311 2.752659328507267 8.299988725475162 -1.0667964672537884 0.7714613033160456 -0.6960305358805561
Ni 8.519450285726856 4.259757513598482 6.432665301188074 0.12034434011872823 0.14554577908502034 0.710332297215209
Ni 9.276712764022253 5.773653553051082 4.590912907837526 -1.36328862761411 1.120786805427315 -0.612222600124965
Ni 6.101966796752365 6.612813991033642 9.71956476688308 -2.216650622360705 -0.2898389167098621 -2.0630845440743695
Ni 8.7943333190258 3.275298719129721 12.826305369072932 -0.3337016795310833 0.16815528895442008 1.0603717946743672
Ni 0.3004207686222844 7.200009876135643 6.743125622067886 0.9364533640511357 -0.39165563033804807 0.36066072461843046
Ni 6.77163406599106 8.77190502402395 11.887290462229563 1.2182539838375535 -0.7303359940306454 0.34042177186373634
Ni 7.7484718645499155 8.02078373660741 5.040081828424646 -0.5729898798765873 -1.3174831392442214 -0.34855262850098684
Ni 5.634403899629296 4.713354750741019 13.294006073039517 -1.245181661466333 -1.189302848020842 -1.0298425157372586
P 7.171236917063168 1.7278943445052874 11.862951368981372 0.35600394257270945 -0.07824715383836202 -1.4629031913846546
P 0.6394949695337336 8.532056374835111 4.954260535648914 1.7752302618947038 -0.9508127180966014 1.0415448917758514
P 3.572175354702641 4.736578440947056 6.058989559138102 0.9698219122092523 -0.5117922253213444 0.6516491815517035
P 3.5205024127746714 2.3019477111752775 9.344494308591345 0.12101385538192708 0.49336975695009866 0.684047652487067
P 1.4968042913439747 3.171564386453131 11.429660756377416 -0.23966281007610338 -0.3515677611782268 0.6798523834587968
P 0.821893887904642 5.0624592551285525 7.9100961700411725 -0.12955994517972524 -0.11144035276087905 -0.49112492677998
P 0.6111715012394406 2.0681015211436344 5.624223765893819 -0.10932150664566334 0.6361253748844915 1.3219519736488525
P 4.881340368109502 5.087569696749179 11.27353022706393 -0.39366160502448333 -0.8717983470749116 -1.6531745955118238
Ni 8.021532887904378 6.283511127717843 2.7012684744133413 -0.8236359284370719 0.5846907132532834 0.13152606776716058
Ni 5.837470145015104 5.258653655901423 2.040103609956172 -0.7271501401034961 -0.6766505886920476 0.761349154582708
Ni 4.790221373322612 7.15712327657953 4.5068377849984325 1.5162098732275953 -0.16221424087963676 -1.1850224754779333
Ni 3.2938610234879517 5.730295265641323 0.649883200851703 1.2433590064352973 0.5493385590062345 1.7333387638672404
Ni 8.883075376981566 0.272524594030707 12.761627715556466 0.03143045059513942 0.42450610120916565 0.1825814916820791
Ni 1.5956090235108804 5.315431925186514 2.8164232024170586 -0.04987657311546895 0.7147335116066982 -0.19038427555594953
Ni 7.317256678502005 6.914315017328593 7.409840680269636 -0.9804318265146147 1.2501611169587954 -0.9434619341584848
Ni 2.58521014046254 3.1418942955805824 7.6135376925499285 -0.6875309830499772 0.3643093771146113 -0.7170989265150811
Ni 5.813173596161556 7.615576123980199 2.2640110594480274 0.5116711263624478 0.2005840989070868 -0.8379510595081633
Ni 2.7735708233522898 7.868604286726826 2.463295478101358 0.34823998235657444 -0.5284694288667091 -0.29749334793132637
Ni 2.1295041811507565 5.529855674185629 12.30950843368869 -1.5882686388670582 0.36690619130751 -1.6536391938530683
Ni 1.4882029246009978 1.2287746050950814 9.169886563708914 1.1130123036882185 -0.5027195735961149 -0.24116536276355885
Ni 8.8211177900878 1.3669606486507997 1.4016260063812853 1.5225769530962037 0.5495295919711182 0.42900090375572564
Ni 8.471356622217737 5.902109878527647 9.206840994846804 0.4081564562065487 -2.5396734820217035 -0.2166090135804334
Ni 0.9778274181733692 8.867241463149332 11.116642222550176 0.45772064028792137 0.16495889350430942 -0.6451995692716178
Ni 7.098902197389165 5.703973233651525 11.456977957250595 1.3773613036570924 -0.5931252171738818 0.7401072144847963
Ni 5.1960579030880165 2.907530173788072 11.485918319267208 2.924509775445073 -1.7662411710222163 -1.8872313722550593
Ni 2.682507321254063 2.6397594534196123 5.155223608134342 -1.171511328365376 1.1480849790216359 -1.38963317904591
Ni 4.901437970187447 0.1755622191274583 10.860896767815284 -0.29580721847815505 0.614631980897406 -1.0592263682160146
Ni 5.531733176818773 3.980620040835271 5.907529664453867 0.3126829111875712 -0.12496898337493317 -0.2901276515948745
Ni 2.9233825851831927 9.097027438127032 4.60244613829827 -1.3037794165048837 -0.29932911558848446 0.42085179228603004
Ni 4.872692757459305 6.406075979414542 6.634684584514413 1.1671756771044994 -0.4872502743159221 1.3333507024040971
Ni 1.240196850178497 6.837448394747 10.16490284219607 0.023976308309939354 -1.2249115983633871 -0.5222460736648167
Ni 7.828834526517363 8.036201455274659 0.6436060528856189 -1.1664796794787393 -0.37009744455129806 0.7420247432224834
P 7.234554074829211 3.5972950451047114 0.7129238200525686 -1.4158008385802132 -1.585798580060011 1.7396953022128876
P 7.2545036964040515 0.18306575551302512 2.30528374664215 -0.6522369357343735 -1.1900425544003441 1.3567318003321989
P 4.12752768529274 8.449048561374662 6.384840777218977 -0.8623989081378824 0.6619608478903568 0.17437221639840936
P 1.3440791633581923 8.878515727729644 1.0214002773126303 0.08879921832259545 2.6942003815594116 0.4259945128292341
P 7.130828990934065 3.5165161879722806 9.181189499511701 1.2149886828227205 -1.8098907893913667 1.010990673138078
P 3.1391104123659197 8.149147574269534 10.759941693962636 -0.14980918234706458 -0.20810817519827382 0.9505329820726532
P 5.680139123870179 6.761016464893278 0.23286766895486144 0.9340460401612235 1.2132966398322782 2.876986275942813
P 7.085583952109717 6.004604874490734 5.303476025413777 -0.40495620410169614 -1.5151832317352936 0.44643066919639884
