# total energy = -340886.00750549935 ev
CRYSTAL
PRIMVEC
9.17305005920666 0.00000000000000 0.00000000000000

0.00000000000000 9.17305005920666 0.00000000000000

0.00000000000000 0.00000000000000 13.42568598776464

PRIMCOORD
 96 1
Ni 7.0472047091107095 2.0514700382430067 11.086448044844554 -1.1217273149637133 -0.18038834068550222 1.8763854306794907
Ni 4.798981924947793 0.26454983994850895 5.857734419646905 -0.00916469721840357 1.605227378208584 -0.46083733154003215
Ni 2.8691648736221183 1.8516168014787264 4.308933752810123 -0.0929050129608529 -0.6650754822599384 1.8126249004930781
Ni 4.2022291679045916 4.836389622176634 5.312946989921353 -0.7784328495378723 0.6210252860182596 -0.13656183041885514
Ni 3.96547275165242 2.815502532084915 2.4602835156481713 0.4176564252771839 0.08036291462978418 -1.1765185517719803
Ni 5.426381841491132 4.692923122750677 2.918032462010347 -1.028927460122157 -0.6952916008320026 -0.36845219563839127
Ni 5.660624842088399 3.2148696027695647 0.1465385538158397 0.7812173542615449 -1.5408582679038947 0.813628937823031
Ni 5.58538748733829 7.899252616123466 12.165779359544445 1.7402804852923965 0.4529479014896264 0.3949229882354102
Ni 2.4005963149790652 6.682649362551475 0.409215256987956 -0.7351249307788564 0.7771542399357648 -0.7389116515147984
Ni 0.859933060651283 0.3676420778288523 0.1854543004376225 0.548317573940888 -0.5359253709241222 -0.39178315705484784
Ni 8.21680525532601 0.10061184520484592 6.784925198996467 -0.12126530927110084 0.3176585100252916 -0.4279081849121792
Ni 8.94845688324889 3.2389213394380345 1.6279448235117966 0.4634074062600535 -1.3003765614709217 -0.45151065482246755
Ni 7.09918838252803 1.1054534087162147 4.83222689216132 -1.75253204896624 -2.0880275871729523 -1.5238576195808402
Ni 1.215089700349146 7.719699338644968 2.6145989811144794 -0.15911220491554534 -0.6630777351036193 -1.090097089652942
Ni 7.769967651743066 4.526294672490285 3.7923396917537326 0.6327909111946198 -0.4735000146093652 0.25598725826773977
Ni 7.695051353737196 4.206146060184316 12.69036131239752 1.4157273050298005 -0.047977299210227045 0.12307742277917513
Ni 8.732349002176246 7.7233593855293 9.083980438822357 0.07804866467431074 -0.4009640522231675 -0.010713015542129938
Ni 7.666578207048055 0.9863413566032951 0.17880017008700935 -0.536738610854037 0.17424443257129346 -0.39442985064907554
Ni 2.136641805964875 6.605559051734612 9.25470098661433 -0.38806328500109943 0.5113777634917451 0.24839401930151414
Ni 0.43248911903038184 5.388001800979738 1.234456760466667 0.11191266441160727 -0.04236098146471414 1.3467842022011838
Ni 6.270504233446087 2.245966213903402 6.836896030144018 0.04162821706374766 -0.6380549878070366 0.6105827505286968
Ni 3.6697978363073496 4.315442948973336 0.1610044534062959 -0.4212423428562294 0.4725687610443475 0.6311227794635776
Ni 6.181883398986101 6.22704232332587 4.592712139823639 -0.13042357873160118 -0.3410748320667029 -0.7687001956311407
Ni 5.339182829755636 2.8937027819318644 9.614415714775411 0.06654812023387893 -0.6107084774732837 -1.268087619530229
P 0.43464845496163956 5.686502015674117 12.64053789221644 0.26653983697260547 0.9099370629281619 -2.4437872749453393
P 4.158941545731248 6.2611935878631355 12.640860783570645 0.20469734974451198 0.6510544853904981 -0.3257942517585486
P 2.7121039143400685 8.779149902436556 1.2439774688908485 0.19901006955174758 -1.4849709698179714 0.42085950559551394
P 6.632656240948441 8.013594682321967 5.732513116343597 -0.335996389102531 1.719659209497619 0.14151300377654338
P 5.346723076720351 1.0779709514092983 12.441126796454226 -0.0609513428723918 0.8489594948035252 -0.12764627309678017
P 4.2703574090322505 6.392881891300415 8.09056023966107 0.2949962925410855 -0.8650535721519101 0.4062808364503906
P 5.207329411421319 1.259890875745334 3.480917401756198 -0.37129146485939923 -1.813244279244632 -0.6040863441710758
P 0.45562171610534224 5.805815874883415 3.5964189414538965 0.7884727502723776 -0.3640486672540569 0.1348816145029548
Ni 0.8298518783259926 0.08195110992465245 4.39144808799467 -0.0612498479494171 0.5156961883614409 1.4485988589468406
Ni 2.0748337961738197 6.9296429024199755 4.816048384166592 0.7694789827786942 -0.9620605230962787 -0.7484900392318528
Ni 6.619061781092349 6.026932241166198 9.063613516272776 0.07076447230807167 -0.12253260601929865 0.6664705628352522
Ni 8.96557379424178 2.7903775485857016 10.016232907071103 0.2442296035111794 -0.09160789141598416 0.09308344752024615
Ni 2.30684774566108 5.360812881267554 7.094589015340551 2.296095910272226 1.4902890395967752 -0.9594907054865732
Ni 0.6818089443371441 0.6597606017527303 8.986630530138987 -0.27674917340543953 -0.47906002519564594 -0.2643124903039835
Ni 1.7450718276403312 1.3997798857354784 11.30994573486461 -0.2449333144464233 -0.662057264258905 1.1427088023113867
Ni 4.362519040728708 7.336164951976253 1.706888090395415 0.21263820185814344 0.031795804354358144 -0.7801138367847209
Ni 5.730606039282813 8.315699905601667 7.906735072874217 1.36961045606708 -0.6909271532157197 0.19652921211142282
Ni 5.050672066332028 2.8166766824638487 4.777705035854538 1.1385572420368586 0.409324765483037 0.9869493159181583
Ni 0.7925038059210828 7.780342371106925 6.524547262113106 0.12109124558708176 -0.3043142275079017 1.2455027922511777
Ni 5.313232271771235 4.4779893920569664 7.5260498354843826 1.1770227451019082 1.7184291937452596 0.10683370722680309
Ni 1.2468834910787094 7.793037872079146 11.6438153951144 -0.7634577162852787 -0.6518152748159226 0.5230883670604539
Ni 4.589386909258298 0.3752089266380896 10.30979893825901 1.4198626673544126 0.44779412520282874 -1.4952073028339992
Ni 8.453479114129664 7.3910289630418955 4.550340905328852 -0.21289171262984624 0.3689944412951065 0.22831318939123904
Ni 7.340999149239518 6.164766487993208 6.562246662326713 1.1015842643569351 0.08859224451811194 2.2872551720521446
Ni 2.6447737285480915 5.3665552104645275 2.450818762827986 -0.22078037134930362 -0.7675377998919233 0.6123359857743776
Ni 2.4115489364825557 5.5965510889879955 11.490373203992425 0.00152389284369415 -1.2537799446583053 0.3625563989792466
Ni 1.0183186083295668 3.513140491218059 3.863040056055243 0.16143982460745745 0.30937158742615106 -0.49452726759330956
Ni 1.6651929096735 1.0897032821487997 2.3985121980564577 -0.5900357796152806 1.2774520914642644 -0.2649696642720082
Ni 1.21998810896126 3.8259690097553634 8.323575886190358 -0.16684993987943522 -0.8254524128205204 0.6220732676667996
Ni 3.677925158461531 3.0566161470089113 7.585459092743475 -1.2001855563716168 -0.30209870791382165 -1.2887374345700966
Ni 4.35971208747907 7.142558562149892 6.035141203463915 -0.41941763094266477 -0.2387348989451953 -0.30942120971716386
Ni 8.745310521593694 7.524854587090827 0.1788863967554623 -0.0728591500535713 0.2770903587949421 0.14815236346993194
P 0.4038178344647953 6.06711937249517 7.993491943607646 -0.7771516688326034 -1.129346522071868 -0.6538593018291448
P 9.005366484427832 2.1473100629234674 7.700825788608594 -1.1037205939736474 -0.2854235612509859 0.6182659781055675
P 2.1266982199432802 3.3430354550700434 10.461857833465805 -0.3468289609416607 2.232789951124729 -0.21626422864650494
P 4.211815004982604 6.323267616099418 3.6487255062254245 -0.9733870038526913 1.5082319972284413 0.7895374440914661
P 7.005880119602145 4.127101889752508 10.303274147911075 1.7063023285747385 0.5352843949060136 -0.7555819130816277
P 6.8724397636463 7.97383868433526 10.195586212063187 -1.2190158017042425 1.0587630554263507 -0.6657313706763824
P 2.5640050247472246 9.071201463096635 5.839609390477101 0.5865053978645189 -1.5684485188173374 -1.0836001690746886
P 7.017942680135722 4.615264082844017 1.5605073130367446 1.486623674930046 -1.6165080933287255 -0.7571397444870508
Ni 3.233811950679706 1.3986332545060507 0.321564013895574 0.08609776023103237 2.265629366252253 0.12766144260543175
Ni 1.752346056159819 1.6753383027914739 6.651245426439918 -0.36985421819224046 0.6176550839944459 0.5855913706906818
Ni 7.304563795293233 0.7377040062042881 8.812351756315856 -0.38199368176825177 0.6143537875353549 1.4914591486454767
Ni 2.798183813995643 1.7096822013752837 9.257104325671209 1.0286880904178413 -0.5225574342576484 -0.9204500466443439
Ni 6.919231490856774 2.417355477028376 2.3708820546471916 -1.1383371556062523 0.0026649484266728293 0.603443054160122
Ni 4.40522876076242 7.038059178424796 10.261211127890762 0.018642811912167892 0.10941072392535997 0.1851489952989392
Ni 7.675127489494666 6.572178323383521 11.570873137433113 0.16216179037514653 -0.6676905512852823 0.11145912181395642
Ni 7.692803956527519 3.9310187764705846 7.777378558705101 0.9525266154639143 0.4678464158680136 0.9505815759224017
Ni 3.5109297862077224 8.92550591256067 12.171618923069673 -1.8869318387367697 -1.230729747707061 0.8370218628256746
Ni 0.18460579332784624 5.240985331267473 10.31557153852044 -0.30780038628428924 -0.041957832489024516 -0.30135745887242293
Ni 8.603660286035149 2.524460006906732 5.619226868181152 0.5438718794647084 1.0222839866637103 0.03089231870348228
Ni 4.030289521789492 2.710113362525783 11.570162226070869 -0.6385931196986937 -0.11937529133723958 0.34553055384521136
Ni 1.4928129571663007 3.419245153102707 12.964110804025971 -0.26519052203356264 1.2397360649707296 -1.436514674088797
Ni 3.3955328192781478 8.365922353450587 8.015107318239828 -1.7893777570396796 1.739485500194927 0.02224132789670363
Ni 6.009641042226432 8.285970051085071 3.3048269505905714 -0.00802389874574102 0.860296517082899 0.07055647006232364
Ni 3.500151452651105 8.603990515829224 3.5839729474371995 -0.05830464927816411 0.5438495108672053 0.39536110421409326
Ni 3.8445077434727457 4.758510429073924 9.53164636880544 -0.6924878128346202 -0.481125649475423 0.1578842460457152
Ni 5.4961337124396605 4.692858911401829 11.711077700337597 -0.5978915282142735 0.8114123897876864 -0.6044658389976816
Ni 8.281823832559462 9.006302135511044 2.391799360186898 0.2292285021166568 0.48861964385962303 -0.21273924621238202
Ni 5.530752802518533 0.7981819237692075 1.2373242558452189 -1.1767854322801217 -0.5017970617818455 0.4102027972126161
Ni 6.070706034980819 6.153116714702225 0.404741560583222 0.06637457077049214 -0.46595948325794595 -0.8395667407347155
Ni 8.524139117011899 0.17529147852496146 11.246803963627485 0.3013692859469649 -0.5356602901881936 -0.37721940030806
Ni 0.21871210992091872 4.859212170167156 5.966643288427888 0.2479422764760762 0.5149094307940874 -0.7036201753023559
Ni 7.756519960684342 6.6284549841238185 2.277774681512702 -0.49870222490660565 -0.7978768171950968 0.41197120196694853
P 8.72390979632766 1.6644590656866665 3.417038117312305 0.6435283522167821 1.242866125959279 0.28877448000108974
P 2.0386277684734195 3.1571619462549423 1.521720906417641 0.6606889231564687 0.4345272328905936 1.3829845633811406
P 4.7726185797208 1.2012842603468399 8.11765284234998 0.5623930781973475 -0.2619442471821231 0.16083381559234236
P 9.188644020139508 2.014942953798367 12.466004107607883 -2.2982538371554937 -0.2688132063878145 -0.5569683076373505
P 6.726881808857867 8.187497361101846 0.9446461758813803 0.29972635102690315 -0.5878477708250264 0.4608113633981032
P 2.390304153063725 3.6605238829237408 5.704815092365548 -0.46616234329737133 -0.6075815018085278 -0.2220193859627273
P 6.634261524669639 4.257505966212828 5.7515903080863175 0.12806484869143753 -0.5012535305735497 -0.4359801632870362
P 2.241709918779767 8.738458253366636 10.061866995392347 1.4222154838573053 -0.09276771605204023 -0.267680635445268
