# total energy = -340869.63613449846 ev
CRYSTAL
PRIMVEC
9.25032039016053 0.00000000000000 0.00000000000000
0.00000000000000 9.25032039016053 0.00000000000000
0.00000000000000 0.00000000000000 13.53877892771415
PRIMCOORD
 96 1
Ni 5.2519803492762405 4.18293933384168 8.55191833428757 -2.1033590753237 -0.5139866618695019 0.2864525167361325
Ni 7.160053166100119 3.9653440496274763 3.4898637111699484 0.12282236934557557 -0.0029256582872272193 1.1005077434633046
Ni 0.4119287879916674 6.7192476532548415 12.82276716198638 -1.468034856184265 -0.6058910014799823 -0.704128225287026
Ni 1.7309476838844762 2.057807751380497 11.361770650133307 3.2043499290710105 2.4471960435165725 -1.0446045045377816
Ni 8.027122688292621 1.964740278928892 0.1082444729536774 0.22919070690018592 -1.1512813744717463 1.0595202453073496
Ni 4.289854535769486 3.8601216563129936 12.990769629054421 0.26324573960236597 0.6664512795615426 -0.5359001741131415
Ni 7.230133592627638 6.338846731912295 2.74229352662965 -0.5842137736168648 -0.46424352900810373 0.19397147868657563
Ni 4.223742496646971 1.5678922881082666 5.8855643870579994 0.894175429218531 0.4906762692783356 -0.9501840833736669
Ni 6.904087553317258 7.552951270156324 8.014334120489783 0.11503218387719545 0.8528027798090151 0.16926420574788267
Ni 6.7047431510379525 0.9634116080272564 4.702626952971727 -0.6521191792095866 0.6546458022861822 0.07696957267751905
Ni 4.819157862842426 6.704197382140761 9.174241957178628 1.1216576380680423 0.2868276406873641 -0.3003909811940956
Ni 2.7549951414217486 7.36405047948599 7.243626109804649 -0.14299370208712792 -1.1762413868511936 -0.14397277817094561
Ni 0.33215587586283796 5.9480392002419435 4.19309526048959 -0.19057710829304597 -0.8597653271697773 -0.6333940919962576
Ni 8.407449607072836 5.190743228947285 6.4773305018985035 -3.642135520997902 1.3169411506978224 -1.249102593787294
Ni 5.120903310747342 0.24910372519071322 0.8997453535897832 -0.6042256979624174 -0.3215673581613946 0.008140369718947271
Ni 4.09057488573222 2.0345154448867944 8.156478242215293 -0.9716612794108362 1.0944756783366119 1.3171123861683638
Ni 6.394653914230209 1.8054497635112752 2.345051472164612 0.39587918150109236 -0.30169555893813205 -0.14142018695242098
Ni 1.8290935821760503 7.539408801249739 1.0535217530817063 0.567750485854519 1.1925069567804367 -0.26039824285124186
Ni 4.917951283554397 5.394925548738983 4.099284987318587 -0.655083404044233 0.6707763892994577 0.018587276083884118
Ni 7.170219268100349 5.316038817294068 8.891200656902889 0.8915613886344517 0.006500263012362999 -0.3881856695115766
Ni 7.554024307310125 5.9588343240219865 11.094934060944015 0.9534439850718613 0.6992786105042086 0.6981085014555074
Ni 1.3164223309870173 1.3964376015074813 8.860345288538952 0.5149351418257002 0.6320509477048017 0.20619553155659326
Ni 4.520215261985799 5.497585603332752 1.6154602101426456 0.8253881352414881 1.6378927296520889 -0.8866971185636149
Ni 7.882456929255681 2.475811224707516 5.904694974452609 0.9864543785596107 -0.2588126435316768 -0.3584557465473117
P 6.368225749157728 7.837999889935294 10.186563708714544 0.129587455983551 0.3914000626838162 0.8490754515560991
P 3.319884450655639 8.497649480234113 -0.2770137915738743 0.8844764567632122 0.10529155955066384 0.9235844785082674
P 7.1287870835152445 3.425893121194889 7.568529734559042 -1.0888650170180538 1.0087800386400048 0.480027788425554
P 2.0046369103456274 2.330710700616881 0.624102459483092 0.2880939089942974 0.6659149474420984 0.6201559960394286
P 6.921200645856317 5.987935831658677 4.9315677550233135 -0.2070085143761919 -0.16688053600705452 0.15488145466364941
P 5.715513899077446 7.3369655416728214 1.4559874634152887 -1.6629252471406843 -0.3698966413944017 0.08088536279215747
P 8.411788007289495 4.9014764631154435 0.30849078146139264 2.1186154872621383 -0.4761572497265541 0.4959190057345137
P 2.7107323588274808 4.666370322589652 11.17689837394987 1.7942739087897164 -1.0313478966381915 2.5041164108527
Ni 1.3497974865983275 4.248588856949626 13.106877799287805 0.0947574927885594 -0.7674328988829429 0.6095674218903051
Ni 1.2105524152521383 7.8397111991892 5.469016914144845 0.1905855929334782 -0.6741231942845035 -0.07284500898618422
Ni 1.9738795953767785 3.7763137544730627 9.333769280795705 1.4794161014380134 -0.587857283906723 -2.0911342511227344
Ni 8.191685886276327 7.780314892598229 4.676132185593148 -1.1037311354966086 -0.35955874980350333 -0.09112992333830112
Ni 0.5886256311015795 4.668081631843557 10.843613959011485 -0.06119739744492686 2.114581169291765 -0.3618971681286929
Ni 2.177395892107498 2.242138883826888 2.9927061721415944 1.8798420217695235 0.15487631245732683 1.060616820805638
Ni -0.10252129978939868 0.6547293449358321 4.76948179281364 1.3809438788020283 0.6403227007952909 0.6214135225956136
Ni 5.005209554863014 5.870623269723358 11.530679648589905 -0.21261094816463386 -0.6689084828527835 0.5384193409905695
Ni 0.04667156599814419 3.4951040176150174 7.558443185313319 1.7764402230424052 -2.3027432403854147 2.094358157376671
Ni 1.1451156495108943 8.401279643438484 8.874344723267932 0.6722601729338358 -0.7155169267399419 -0.46172487635130804
Ni 6.4335052594540185 2.4603631898209057 9.515459446798905 1.1006064738246981 0.5070577959601525 -1.7886100256357194
Ni 0.6935298133980384 8.246309027596944 2.980711281819758 0.045586173270231165 0.9270312994062874 0.7002653998975101
Ni 3.546767056442392 7.41521400101763 3.1618871300147577 -0.3493581551214177 -1.8190418597630154 -0.61846703837278
Ni 8.511617463874101 3.613619121188217 12.119562438595585 -1.6904599622258434 -0.6424562021985258 0.4715374915663557
Ni 3.950247526911939 7.88144864434392 11.276083083210168 -1.277359531750458 0.5615991215411424 -0.6588575263746846
Ni 0.2858459973880868 5.608755952594594 8.728870486237525 0.4383597192628063 1.333321906048691 -0.5889973110484373
Ni 4.203123532717478 3.346155360283167 1.7234863755374463 -0.2786852140858878 -2.429676289465254 1.0839853203282492
Ni 6.8100395469147665 3.809596406881459 1.234776228999183 -0.747122726570681 0.6602767753197144 -1.167868075185834
Ni 6.206086135090365 8.273079454520206 5.879891165623294 -0.5781603683339334 -0.3021848398697247 0.838442654432601
Ni 5.79786950063163 8.454968502409672 12.332081147033877 0.695652583715847 0.036891987930342915 0.9557955160231733
Ni 2.2802594537476777 4.48250170615783 4.074982545849065 0.9763517429079701 0.9290007644278323 -0.3615017324624871
Ni 3.9797375480008683 8.492497051831812 5.131847364684077 -0.526429515618545 -0.2801003492658595 1.0250188690963702
Ni 0.12927137600802027 6.3263773001595105 1.7144293869401535 -0.7009410858082962 -1.5568127343506222 0.1169294008999083
Ni 5.810033671814799 5.684886088592677 6.922566918163354 -0.29971632372457413 2.061243119990256 -0.9925707758699939
P 7.988493350755805 0.14579244804843042 3.0529812591602465 -0.7281389863793267 -0.3762143560823134 -1.0837382373144497
P 3.4823848272143656 5.450140710558249 8.138322638579396 -0.8462048148765233 -0.3612124833568424 -0.33138151603833893
P 3.0058360767631838 6.35600607605281 5.298441933003771 0.33035230344287625 -0.30607980404875673 -0.9878031792780213
P 0.050249589886851166 9.060966235018467 13.51760404564159 0.5216274662442113 0.6765901677677574 -0.5346357055784211
P 2.2515927111646814 0.3347829668255907 4.20454900707438 0.006152392754641017 -0.21501364406885554 -0.39568609165367985
P 2.9951982084280933 0.3901202328727026 10.412905170764251 -1.185125833825017 1.249384386693771 -1.1500703848827805
P 8.8449435052538 2.6704564642787987 3.9307136255526256 0.31650202782334524 0.8656451829893221 -1.542230722771389
P 2.224591026234134 2.726393151080792 7.256135317934686 -0.16490978543392887 -0.6751300382824631 0.3855762569131876
Ni 8.992412111339029 0.21064736864334638 7.279164915332114 -0.7712489301949234 -0.20804055518513204 -0.8618906010428962
Ni 7.840682482819795 0.4360221722226037 9.478039126124173 -0.4930028605289832 -0.27950770998718316 0.06953779898982218
Ni 4.407657364680249 0.9391665185435413 3.4314978902594384 -1.4338103877837562 2.6989841761013005 1.0441956991351373
Ni 6.978497129741144 1.9389503859565158 11.58907322046129 -1.9124623789077067 -0.5503261197304845 0.5270404097296665
Ni 5.83532404749144 8.657763274157663 3.206226690267444 1.8599293420059968 -2.6017612524913836 -0.5081849675860602
Ni 0.3503429305877262 1.5286246784713453 1.929587211757578 -1.3574571085339975 -1.5435674393049417 -0.48372709165401206
Ni 2.0417861966358215 0.6014391747692034 6.376656491071294 0.36167990991156423 0.23190502050755546 1.1782890134088415
Ni 1.2333267038095233 2.7073374912805432 5.370711910344259 -0.27474139894679134 0.47827403895924087 -0.3622308973190278
Ni 2.628404508234171 6.402507436157593 9.98991299970409 -1.6824538040919155 0.1978836692567882 -0.6454751915305077
Ni 9.179934604285947 1.1673164182102136 11.502167386355774 -3.1398455787400374 -1.941483962951037 0.5165027434231363
Ni 6.773963297778373 6.05442713391314 13.435355747802786 -1.6837234148329583 0.42462308640300417 -0.368003795247063
Ni 1.30687600044631 5.320728729681799 6.4554525693773535 2.6112337107581935 0.2621576487445098 -0.2006067246149061
Ni 2.878884681084242 0.05471564452353092 2.0210016519731133 -0.9115954244671913 1.4107509348611316 -1.0335976119043166
Ni 5.082588484100433 0.7051149145309666 10.14983253690152 0.9929042479500125 -0.8127941006265615 1.150016905937026
Ni 2.748751175225065 6.116450531466863 13.103900121186006 1.9521872083011538 -0.30433531055382423 -1.2010538179091832
Ni 3.9089725977717875 8.841909400198224 8.418981056348073 -0.958650211863149 0.2860108012130236 0.23221998064481297
Ni 7.626186055903204 8.001332795320245 0.8788979067490932 1.2496296699353575 1.2745945674108115 0.11551323727867203
Ni 4.203188284959518 2.964357640576622 10.666946716926505 -0.13652352098175197 0.7146733477927241 -0.10275105251699723
Ni 0.7966533090384061 3.9401369268334574 2.0624301364301014 -0.5701531817587406 0.7132571841714876 0.007716909028283484
Ni 3.578736163369412 4.142136171036389 6.381950449374053 0.30394321732172813 0.5581983233897096 -0.5399002964114702
Ni 3.5039195728527055 1.6072339003075187 12.669670661035875 1.1602514391808405 -1.64041035386762 1.2653375675889176
Ni 1.6186950471485424 8.634239709656676 11.835207592838469 -0.45771935473634073 0.03197243914153849 -0.26296240403399224
Ni 5.894470595434543 3.841843023417221 5.623237329010754 0.32541912780731697 -1.5228104092632484 -0.16077545155058118
Ni 7.970149965617993 8.265494191881272 11.643634384635952 1.545855721118486 0.3033894017007872 0.15373782797750943
P 8.903303775972134 7.220365254399938 7.2144765005024425 1.0583632488847707 0.6808970226732274 -0.04206376193926949
P 4.721825992736493 3.082733989345451 3.8955402076766705 0.1527171000224789 -0.2868605508078285 0.24811762571167587
P 9.050235863480463 2.6411977011971537 9.804932494773242 -0.5275826553863817 0.20663056221148282 0.37292591513902873
P 5.827627781009009 2.1682750763001937 -0.02667422359223225 -0.6055462165460539 0.19629369906184901 0.32466759435327314
P 5.682147993786427 0.6768977375141316 7.942741266594624 1.8109115173463974 -0.7557325797268791 -0.8567108566141698
P 2.42968912773468 5.587720724251988 2.027215092112835 -0.8342630691336148 0.11353554472701091 -0.21594232653071196
P 0.36160149541436853 7.159886660334875 10.312921233830778 -0.7982604257867607 -1.2995980314336844 2.327360524713463
P 6.2506356776136665 4.331915742134405 10.778465803263332 -0.31900242564769576 -1.8342792455380603 -0.5547214205847028
