# total energy = -381166.269080445 ev
CRYSTAL
PRIMVEC
9.24236499112113 0.00000000000000 0.00000000000000
0.00000000000000 9.24236499112113 0.00000000000000
0.00000000000000 0.00000000000000 13.52713539707145
PRIMCOORD
 96 1
Ni 5.979643902682138 5.764740427739768 2.235791907041831 -0.9620965185405366 0.6435432646151175 -0.49440256908998714
Ni 7.307854958956575 2.440649855280483 9.194745732342398 0.09691516256151052 0.383727633740223 -0.3508601935882409
Ni 0.217586533551341 5.527026795556825 12.986713481059859 -0.12062124792919873 -0.43744543497865307 -0.7851439430094607
Ni 5.856729688280857 4.997134273241714 13.324255747921434 0.2075103937132749 0.4652123206792762 0.15287008066057545
Ni 4.7384866839477935 6.502641620580124 11.401481491761492 0.18338264742713578 1.8358291065236834 -0.09812975169490197
Ni 2.6185284153501924 7.995616320747457 1.2453717372520525 1.7963536741368806 -0.45757023075298614 0.7706629757844663
Ni 3.3549138603026014 4.005788942698378 13.178690344960513 1.5875307322597692 -1.4807142514241467 -3.5701518315707483
Ni 4.658068864600056 4.998908807354433 3.86848991114587 -0.5154470484651122 -0.7331068719075633 0.559564607609617
Ni 4.2800653714954615 5.292677384295911 9.273013777551496 -0.28789053473423964 1.2464548717518018 -0.10200363282801143
Ni 2.5231194796960508 3.4318010961552408 10.661316843690903 0.5794202088829634 0.522404710729868 -1.680271708838932
Ni 2.582963794174455 4.908074842459644 5.190104691398185 1.4618549526257985 0.40861874055494785 0.4925822280517968
Ni 8.751567852765623 0.11733090160183665 2.6096141541433315 -0.4005441910769295 0.1240953225207282 -0.43417139221307166
Ni 6.0647660859016135 6.998522239068126 8.91045982206576 -0.814702630503184 -1.6169004436711378 0.5954245547310197
Ni 2.1057065415048286 6.333090431528954 10.452336800586249 0.2637648453306296 -2.0876501492288755 -0.06780256146627031
Ni 1.0516887327409425 1.2149735982065741 6.639631957135939 -0.20527199130105936 0.509034202960233 0.9593446668270125
Ni 0.07819780323380408 2.441879089848148 2.7855481205811867 -0.7237825091828438 -2.212485692349738 4.877781989280289
Ni 1.24148070151531 3.0659051014238834 12.430991320803004 -1.2416217120292163 -0.24988217381126643 1.0838793908780042
Ni 0.44164826814107117 4.035845114232551 1.5683766879370888 0.24685238584600713 3.793298646269699 -3.4700934953945657
Ni 4.9989642615454555 4.292256051155233 11.060367974998073 -1.012076192892773 -2.267265102083463 1.113810888330114
Ni 6.668015260574268 0.1203217309709813 3.6820187241772313 0.22978617439233975 -0.3413571391938121 -1.2656777245371558
Ni 4.684816269403223 1.2678953811723415 7.52115488354188 -1.4223442961256858 -0.16381475259753722 0.48496224961269374
Ni 6.82520016502743 0.05485066457683164 6.172337049883497 -0.844448751417365 0.17079555479074457 -0.07021811288629842
Ni 4.326221743156489 9.061011481036118 9.443009524367364 -1.1305652249703175 -1.2184861544530177 0.8931950675831327
Ni 3.961961647060294 1.8510424115993542 11.718828266489206 -1.2434070860644135 0.4527964635134266 1.3952813784706228
P 3.1669333951016343 6.151903104728238 12.75695475257909 -0.8930107194864685 1.9482009699598961 -2.7170829425845398
Ni 4.905847432453576 0.6868574584772162 4.911053656754067 -0.260230606925126 0.4369342996701894 1.850248367272807
P 0.4329807780842608 1.8973836305637894 0.8739072175055229 -1.4211520755897977 -1.1830051879375885 -1.9395546071388077
Ni 7.1011679466506985 3.870305111665339 2.060872752299687 0.5618582887398001 -0.781621531678499 1.1516680683872038
P 1.3525739308636369 4.266358943947743 7.195354117392794 0.04341487665052522 -1.230005982167159 -0.688980056791678
P 1.2124134630543708 1.5423289301773226 10.66252112387261 -0.11250890323470947 0.03812868855092143 -0.37886516344159915
P 4.46715856964007 2.7718037993362703 9.455413702662572 0.552558608605429 -1.0313574097198883 1.0469017852123905
Ni 5.0670897352165465 7.387052786101817 0.4058738452759656 -0.9500578422084476 -0.9010323042393643 -0.07776352933372414
Ni 4.05546665548933 8.728369516187895 12.50227953183541 -1.2301090834039266 -0.14580983137968437 -2.056173675887149
Ni 8.853049022336725 9.157455561589346 0.12811489328267092 -0.6594730484714965 0.28869503291340604 0.10804109727134296
Ni 1.571155867143831 7.286283278648838 5.390252730345997 -0.6349598938214807 -0.5091229060192974 -1.4351576458402702
Ni 6.540636983795679 4.599943630043348 5.857966316740658 0.4125723258860572 0.7036011491389625 -0.5348655622010401
Ni 8.545232050336223 6.2411288980833755 3.453180535267433 -0.7352665985630433 0.30266615038151745 -0.25262759776688753
Ni 2.9768826401024957 2.785159017007512 3.45303173318819 -0.4839083544268828 0.04043599652785939 1.3736743417238084
Ni 4.70888338830697 8.026023702158106 7.479301757104196 1.5638984375528098 -0.8706300377984232 -1.7314531168087535
Ni 2.054300506427009 1.0478161817345408 13.301570362610663 0.7635245649674722 -1.749613332657548 -1.1936089315953637
Ni 6.87302016241913 5.631345371235241 10.678930018996153 1.363319995072678 0.1455226391565687 0.77530098877711
Ni 9.206846761060016 7.2851834371935595 11.33177649788278 -0.9860283467657858 -0.04050541631321411 0.018137847251291344
Ni 4.496087172623453 0.856882780861628 0.6641877851872348 -0.9836711593875188 -1.3067842647694785 1.2494455789490095
Ni 0.623671104753192 6.644216170260463 1.375885948532962 0.17553641190983962 -0.6511285331615431 -0.603438940395064
Ni 0.9063885856604115 6.28949419502013 7.378471250041091 -0.4432823533754043 2.599029198272201 3.364346850584354
Ni 1.0675856008340476 7.889846693737287 3.0346095287203583 1.7457412512966515 0.26648558669590233 2.529417865731966
Ni 2.3793914589310066 2.8196977356493345 1.142319365601982 0.5919129420333354 0.9466904683981116 1.413705132393449
Ni 4.653992981559906 3.2665383645431416 5.686848546793104 -2.8655698065757553 0.16274954455781648 0.5185763381227133
Ni 4.073877446908787 6.911727187752807 5.075719331576159 0.11093255988652508 0.48250350365955613 0.12283111109632396
Ni 0.11641036203086383 5.161093831364786 5.738873820337341 -1.7681167907783744 1.8487093049204613 -3.1554951123518364
Ni 6.038471556991798 2.596771887739047 3.996713864337552 0.8562688839807447 0.9636592350419663 -1.0552092766368213
Ni 0.5069585173812557 3.3041270636911984 8.96063200139333 0.27674788785385884 -0.5845505881309933 0.11109865315074414
Ni 6.793508094858094 3.257591755058185 11.797555657247274 0.4638933447575366 -1.2457822711648094 -1.2916075570290402
Ni 5.488652495369283 2.6478821671314146 0.1089915155085758 1.0870184507276184 1.4242214585437407 -0.8079773959642085
Ni 2.2712095746113588 0.7816166558598778 2.2181121867073537 -0.34655745244782893 0.04274870382143606 0.5406060642292431
Ni 3.2922044126213703 6.069562873425057 7.030511913395949 -0.22967998783177862 0.011516999500664036 1.575877721401873
P 5.271493883325332 5.302917924904725 7.425734857049534 0.8344841840054854 0.5590624711622179 -0.600071823695044
Ni 7.306311483973117 6.925840279368022 6.81390229784312 0.18560125234500938 0.3321104237845635 -0.6397382890467304
P 4.851289750852645 1.2527286599276988 2.7152747212444917 0.06863277067704954 -0.019652998344237123 0.33106707012171366
Ni 1.300604111510422 4.8541363993251325 3.3496438636824335 0.3548202066772534 0.8330178838726041 0.26796731344775143
P 8.02003464952768 4.292385444267618 4.18191422609526 -0.23683202549552765 -1.751076804576952 -0.1784985798619571
P 7.937888507893077 5.779639120394468 1.1679549138751482 -0.24826906368787566 -0.665578647148602 -1.0336950567141294
P 8.76299141611625 8.73322175790236 7.027021996307602 0.22053483099740084 -0.07692792080630623 0.4312259364315024
Ni 8.126321848987393 3.491395866774044 0.040690436899246625 0.08223724883436159 -0.6564823412742887 -1.3193746998399793
Ni 8.424304944446579 3.4839003086208415 6.872637528501075 0.5132947780087999 -1.7353493665393662 1.2037262225350238
Ni 1.9085299229593036 8.51586905618983 10.601608391980506 0.3319980665764153 2.897762846368532 -0.5733153815368061
Ni 6.70504017544693 0.8039304980907984 12.667540414974475 -0.7949015366168568 -0.5422009195201889 0.8652358633660453
Ni 3.1405926543659657 3.691779586033701 8.090539107993635 -0.06624010207515688 -1.1088242337488001 -0.8844409755395864
Ni 9.18419372402734 0.6854960580876148 8.856851331367832 0.2890197632426764 0.6170490749793308 -0.6999386126857107
Ni 7.001572219574361 7.68837237538752 1.6044265332842726 1.2918417845270334 2.0730393412942365 1.3234961782075207
Ni 6.6733665900079355 9.192419429029005 8.484449635793021 0.17360371366350102 1.834358435515428 0.5986386907929432
Ni 6.304180313275912 6.808397545147623 4.484692260604854 0.78799375375343 0.5859780646061391 -0.09804670506279244
Ni 8.050987330483382 2.010343817676539 5.079331247884754 0.8964418566552046 -0.38065825078627996 -0.7963195000103059
Ni 4.571819112829791 7.703788640491765 2.6806315638762443 1.4890441114460806 -0.24848477924310752 -0.3688784845425324
Ni 5.629820380982124 1.1319864013414638 10.549379786402518 2.697942365100347 0.6102999291809554 -0.3155404352410243
Ni 2.869135146945857 8.682222386892038 6.562635661374289 -1.1063040384301075 1.961121020455674 -0.5330565340167595
Ni 4.564000071895625 3.5116089194017306 2.0400681883010945 1.0643757736274377 0.2121381222932734 -0.8979498086592986
Ni 1.5000728366182086 8.066135566997685 12.962566877815647 -0.005477735285119598 -1.7547015458137327 -1.92097555858504
Ni 0.9383865781168876 0.6859849792051296 4.489047263073151 1.02147974559486 0.1584599160435271 -1.1546731737621148
Ni 3.3084802176864616 5.547812874825077 1.0913412520315522 0.09000995080124498 0.9004221814591912 4.999553805874164
Ni 1.14745812063673 3.2032374054910044 5.11843846763031 -0.5370777393610106 -2.3778803878398853 0.04143666987823186
Ni 8.891820744226594 4.090042343591834 11.091967621515705 -0.49708757212131816 -0.8369640130045456 0.408547006776748
Ni 7.294398075268458 1.5520149288759122 1.4493646001107545 -0.6122997332198035 -0.47262995329958607 -0.04279652634023598
Ni 2.401027835794936 1.0825120205842598 8.608587539342865 -0.05008997467785567 0.30129626661718434 1.0386994519072563
Ni 8.157024986083496 0.5628323117824517 10.904196958004107 0.5619289940767355 0.07980781345726254 0.34975179101541054
Ni 8.478945807334043 8.329598428545388 4.8866778428536275 0.6190432225912241 -0.9497184565911578 -0.4458097477829483
Ni 7.1148189200073935 7.312651746480017 12.896297271070774 0.675845576292249 -0.05863349337249257 -1.8441548527805594
Ni 8.346715288840988 7.594580853638202 9.09766115588286 1.125259496486688 -0.2709914449860559 -0.4623049172244942
P 6.733811658222416 8.119769012081575 10.618882372484 0.06037592998489602 0.063077130966143 1.3395694296202993
Ni 7.727181066738073 5.183589748189563 8.363246183184783 -0.8411808792993707 -0.7683988623406379 -0.3365152377204785
P 2.9071582372569233 6.303163653107166 3.152675198353243 0.00035069847119939605 0.8116119073930022 0.5730215044454712
Ni 3.2357890156211884 8.747759998315415 4.055151490837019 -2.689240723561291 1.0648871660462176 -0.06741869576429034
P 9.197733789001992 5.597120893009214 9.752294183956925 1.334160342789586 1.3871813750713076 0.2980962716226479
P 2.7526351339728397 7.732116489739071 8.547945608750254 -0.48719139605352874 0.09574068263743511 0.9317428459493436
P 3.0502300500948683 1.677535490255249 5.343002062648793 -1.7510598352960876 -0.3675222276249542 1.0877766690498816
Ni 6.392121417872362 2.3304438929885154 6.734727576610804 1.8587630896120377 -0.046428466665868424 0.30350998643905147
