# total energy = -340892.64882591565 ev
CRYSTAL
PRIMVEC
9.02595020598610 0.00000000000000 0.00000000000000

0.00000000000000 9.02595020598610 0.00000000000000

0.00000000000000 0.00000000000000 13.21039048348939

PRIMCOORD
 96 1
Ni 6.4491587648239275 1.869292341094655 11.45697527380599 0.44586065562554184 0.35036191379558373 -0.8009893946821496
Ni 4.39676599770033 9.442497815743803 6.0430532842775975 0.6820367927046254 -1.071048557661923 -0.44484969786252415
Ni 2.68136610774407 1.6715879276204377 4.759347443722644 -0.051829325966465584 -0.8315646963658453 1.0132671278770806
Ni 3.2741905177598927 4.385691156788494 4.923209056871734 1.3549497687311118 -0.5410223258310553 -0.9763933947791829
Ni 5.003210566588166 4.475409101909646 2.6129096909455924 1.0333572137587366 0.481605674435635 0.09014596215847702
Ni 7.397677820849244 6.099493453556982 2.7923861979638573 0.8770588241429025 -1.1829249695189563 -1.1007481416088851
Ni 5.130512568397898 4.748769030072545 11.310590608055097 -0.9613742956625315 -0.3109281332799936 1.8555080730098497
Ni 5.660732987733609 7.962034383892017 12.257261149476712 -1.4824361192112598 -0.20141430811786604 1.736602779330493
Ni 1.869870001908312 6.467842481765656 0.29520453286935905 0.7857946892195822 0.47038666579136407 -0.9721384761575709
Ni 2.816006207077292 1.6869410689334237 0.5085455024932627 0.68010255179639 -1.121350648350585 -0.6971463946525541
Ni 0.3693536164674252 0.1216075298201002 5.056567471274655 0.4398023652466039 -0.21548904104337727 -1.3004356968436315
Ni 8.407771909230345 2.3728591294502084 1.2837500677109994 1.5574033167467694 0.1259048649256412 0.5587153722354442
Ni 6.793625128767958 0.5955818378060151 4.797022662508378 -0.8540050276472323 -0.2516379801601085 -0.25016499515900786
Ni 1.250274623559558 7.307752278873183 2.3712651466425227 -1.3116770740854056 -0.537138674505933 1.3363686632948144
Ni 7.460895576143868 3.788191304562132 3.861819590832885 0.5347236373065372 0.19591986066219808 0.14133045545209208
Ni 7.599850079679092 3.7690201863088797 12.655884117296136 0.2888881227608186 -0.06249246210726656 -0.6082769852136556
Ni 7.80736570103527 8.741948689931105 6.941849283172339 0.11099426636239594 -0.4871919102741609 -0.4772204008837459
Ni 6.857258077772396 0.6871365637955934 0.43354527179007335 0.5390824284958652 -0.980250306631428 -0.5487212371372099
Ni 1.7187665693858565 6.5753957045084785 9.22304537523041 -0.13562800575067607 -0.744415612052163 -0.5924335904234959
Ni 0.3721209728028523 4.920280136027488 1.363365266758298 -0.9344011095077972 -0.7195165348176383 0.373078381556493
Ni 6.4726442872791825 1.976646992932782 7.0751815223196415 -0.793420581195956 -0.5390286924397942 -0.35488088471185975
Ni 3.3701995501797817 4.306975844977471 0.4981819064582419 0.6512465467966462 -0.14726918953403026 -1.2018583160883496
Ni 6.0117612174827775 5.830998512559104 4.778118712381443 0.11883021746704697 -2.9935467235390765 -0.36339946370583226
Ni 5.3749082223260105 2.7788644219491694 9.182172262284068 -0.6196991110076683 0.03600932821507347 0.36569520171854436
P 0.2504746313968345 5.234112424947252 12.269176306353414 0.6618487477925247 1.0009875391787793 0.04667863500346154
P 4.01891264391695 6.447236237428474 12.598181217581896 -0.6556385052167547 -1.9635483989502442 -0.7892656784873181
P 2.4946462756795555 8.58149437298757 1.263427238210518 0.5821072687968233 0.24521896400764223 -0.3899967545783864
P 6.2223095581106564 7.669557493177146 5.666135018936327 0.8963819499515465 1.5484962440651266 0.7219925071619566
P 4.660377899632762 1.0564333167766742 12.511244167721491 0.7895299878922982 0.7046535016628768 0.3227950599209086
P 3.886077734626407 6.260480301563106 8.22069374694236 -0.060897863926637055 -0.37737186672552425 -1.5509909854625223
P 4.735717506063974 0.9213058161319286 3.776071258615584 0.7345104371233091 -0.10524322281123166 -0.6116860108952046
P 0.49292338786391765 5.558324556612423 3.5817064467203235 -0.9217708223382964 -0.11274827293902516 -0.43395336266499457
Ni 1.35780076845174 0.9530771608830813 2.5730005494820425 -0.5859284423151264 1.235020404662615 0.4002163754238656
Ni 2.002036990883064 6.563643917330637 4.809123753959478 -0.1083516865332263 0.5427120548286524 -0.6893958041728578
Ni 5.894107956451165 5.573072959261111 9.22167162560793 0.2969968679108821 0.9359170319316913 -1.2031402681245669
Ni 8.641715512811345 2.4731915920223138 10.001322373900786 -0.6614959924387963 -0.04988557197653344 1.310274280200608
Ni 2.366577068101685 5.288213970526346 6.848953300981051 -0.18803248749432133 0.08731389202632059 1.8971874550265067
Ni 0.34316572451827926 0.10737811930868205 9.495667883260875 0.5460174650528016 0.15480997799576565 0.15362187122493542
Ni 1.4726108551661317 1.3863769268273503 11.323008510358688 0.39302937075712313 -0.7423029365845344 0.27626477756985324
Ni 4.165124011423745 6.60804256643033 1.5136464352163135 0.10299196488320972 1.1314196025508125 0.02366211950363022
Ni 5.454471973457093 7.799838058557298 7.813682060994604 0.5767382911754261 0.3626805832619367 0.771480072369123
Ni 4.953351217609369 2.5223288649840394 5.181775452634879 0.4174849326963262 1.473904427591165 -0.5075990131756033
Ni 0.91280337103091 7.440632317914794 6.888227918144599 -0.7374322387557944 0.34475228091829013 0.308613626214204
Ni 4.92528051244571 4.6278212972130435 7.042604160214432 0.9625035241709682 1.2721576758345445 -0.07320290654623522
Ni 8.086809119641998 7.310279544932935 9.205502538395654 -0.6153727157181724 -1.3099431221134343 -0.24132605671113921
Ni 4.593946906062169 0.377877723848956 10.362216869828217 0.3341979024412115 -0.3726441222325518 -0.3297807472101224
Ni 8.244221691363617 7.069728945795729 4.852730827225456 0.014039765922517756 0.3783987653281419 0.03938312978331282
Ni 7.310866231696806 6.2750301333071 7.081759634835164 -0.0069139535110139 -0.8130442689641546 -0.28504843729975426
Ni 2.524079899325438 4.986332039689117 2.5407544397496653 -1.355000676573705 0.2554576110165149 0.9006350688009457
Ni 2.32424536160086 5.221232393992738 11.374899600730519 -0.4706892846334475 -0.33388602762774755 0.6184685810346767
Ni 1.1449056807683777 3.1832089396088654 3.9316235819982226 -1.0372863736098137 0.9791475604855523 -0.5142098336239016
Ni 3.6878046862887457 2.623527818776631 2.8251215141978 -0.0005643571439022539 -0.2757832099477444 -0.5212389725565411
Ni 0.967058357763631 3.277277392732874 8.169450719795847 -0.3762092138759908 0.392437245699079 -1.6897981602721284
Ni 3.6351382667935828 2.886164918086016 7.338992897751789 -1.2028998699789863 -1.663622016097393 0.2895866914897399
Ni 4.206119877292988 6.894860186361402 5.864937890551514 -1.3372158417864581 0.08954406690841998 0.41435127216335094
Ni 0.8721640301950965 7.6806233081387685 11.572341359053526 0.3121038987556496 -0.7416912711424646 -0.871157628167119
P 0.29195338560249395 5.560644225817265 7.761778334292473 -0.7300426311599426 0.1374761147030084 1.394624204502598
P 8.455699704863475 1.4148718516510401 8.093001824083409 1.1014932473050254 2.1990159399980778 -1.942535544144003
P 1.8479640207404011 3.31636878310709 10.041574501472445 0.5949481293152334 -0.10354295229067328 2.211730302240952
P 3.885960397273633 6.188092180851673 3.6340461268177617 0.8731312069537221 0.38320981356354 1.495844422197366
P 6.844964733581751 3.9230570526506883 10.306865230144568 1.2025237175864905 -0.6926202246474266 0.07556009392450212
P 6.106299020017882 7.595689116630717 10.218857702588855 1.0835325490615468 0.0955031127053323 -1.3036428909270195
P 2.4287387872213406 8.614511298868171 5.767815055875292 -0.8955057179941803 -0.42514039235905493 -0.061129263211152786
P 7.023633418055917 4.071768608366595 1.7524640519125476 -0.3610859850813072 -0.3109062789031226 -0.9893885214872703
Ni 5.459309882771473 2.7891901089932936 0.465000708283757 -0.7102862744686219 0.6422654263439583 -0.09324337013687813
Ni 1.327599939037718 1.1573975958637175 6.925494261385667 0.19440728067241358 0.31251013305513275 1.122922106602763
Ni 6.864063644233296 0.569526627325006 9.015748181869395 -2.2315715053365954 -1.0305457124518702 2.235572656076189
Ni 2.7019543001808253 1.406793626210051 9.262293817138339 0.3038365165405348 0.7133302035012682 -1.1917284267431991
Ni 6.473492726599242 1.9127342394717277 2.524281178015197 -0.4149271992714789 -0.055717862387594366 1.3251856500948016
Ni 3.9459739402425 6.84336714039398 10.32555797303651 0.3119524607794499 1.1121116462508203 0.7781579986099308
Ni 8.258970094012305 6.929095615520811 -0.004375780663454185 0.06443904431067612 0.18385135953343823 1.237631617033217
Ni 7.5322186347301185 3.9277415208114412 8.039830853971317 0.204025520488468 0.3189504893638378 -0.05039259351993902
Ni 3.0591472539257425 8.583732808640493 12.264711168782847 0.3682483071577013 -0.6274473874945193 0.18345900919102598
Ni 9.13624732500329 4.934514059514013 9.997755318376452 -0.061043131255249704 -0.595709175850974 -0.36503802775051974
Ni 8.358571454617126 2.378256647677819 5.660480261127634 0.9273128352024481 0.5998933891356508 0.9480187002912317
Ni 3.6201190856384926 2.8320362946562825 11.455073506096028 -0.09658940379097558 -0.25395120167431745 0.058660747066002196
Ni 1.1709997028353043 3.2262266183259087 12.767194843112794 -0.18580359816380257 0.957548494158538 0.2255006596431084
Ni 2.9940701528871605 8.28370119759701 7.96928673488848 0.7153716594113293 0.3093476761667511 -0.7063792261047319
Ni 5.61645167598669 7.602142671033294 3.3174988320738077 -0.6260155401439993 1.7375188633868592 0.20518894466894982
Ni 2.9912630823707946 8.56594266076989 3.630862674177497 1.3853129544040013 -0.9104296862938642 -0.5004204931492929
Ni 3.572868236271366 4.5590074527861155 9.46531090490816 -0.056724192164921666 -1.1942501647237884 -0.9702746834759548
Ni 7.333710911686909 5.904659292250624 11.240403916600712 -0.20073116600791235 0.3164863440940614 0.35956517756140655
Ni 0.38735316638297873 9.027484624931873 0.532756711345675 0.19345365850989263 0.009742166988428383 -0.6992007060784217
Ni 4.794160533695711 0.40782672925202396 1.5998180844986225 -1.172647241742032 -0.9810290937789814 -0.059570660474781274
Ni 6.1208849555627305 5.512716430184134 0.37431879167981413 -0.32931203510381996 0.8671364228228677 0.047389287917240966
Ni 7.713315299811688 8.535209300293277 11.473303217742023 0.9919938203206012 1.2885497440393228 -0.7105451845569634
Ni 9.205566622642168 4.975744600088803 5.655170294617093 -0.42016067975627636 -1.4215660231987646 0.23207779863999387
Ni 8.141217547528345 8.547033295072826 2.7843937190498953 -0.10336811727570584 0.5081340597434668 -0.19502588809301893
P 8.468660969369912 1.581770697046938 3.6392911064867657 -0.2198547742112407 0.09885274590385555 -0.68238980516867
P 1.8243431090319446 3.0687959947038626 1.7606144849552436 -0.9009947661332095 0.33147227597993234 -0.6038027514923858
P 4.683312839125 0.9353321427635454 8.07090088239089 0.29639060178545085 0.881498862192127 1.408756273028606
P 8.63890844229498 1.5823664097610222 12.34772554068051 -1.558598365496135 -0.16255208383502973 0.14793793346628073
P 6.677966602733506 7.609453690706145 1.3683981365972875 -0.8568003310041825 0.787099781184251 -0.597400447510468
P 1.8477473979352796 3.2122634733457853 6.1348526135179595 -0.5768264800138582 -0.2164490909638014 -0.8464259297483939
P 6.534472046240943 3.8945982316278527 5.849243568320461 1.3143078268400334 0.1450446710788857 0.38974478646858035
P 2.2932051188169926 8.439173190022748 10.027095974735136 0.32776525944199036 1.0500344173041014 1.910530451992316
