# total energy = -340891.0752865544 ev
CRYSTAL
PRIMVEC
9.09448812035046 0.00000000000000 0.00000000000000
0.00000000000000 9.09448812035046 0.00000000000000
0.00000000000000 0.00000000000000 13.31070264907935
PRIMCOORD
 96 1
Ni 6.308873738833028 2.025551692488152 11.423298316499489 1.7862050157386529 -0.005622745503416123 0.26631280856346395
Ni 4.448687125050318 0.4305403463663075 6.119834797927832 0.8419900054642273 0.9961790620465425 -0.5862608859538807
Ni 2.646295983696419 1.5089301965336168 4.8623462824437915 -0.8459145373296141 0.32525432009467853 -0.142212086726097
Ni 3.128358424540099 4.15669948731634 4.804337998991402 0.07842944505249719 0.6120557355297974 -0.2840318231097818
Ni 4.97880484147446 4.592798384862584 2.8232801805096575 0.8694887251051283 -0.9169500039108854 -1.0939192916125096
Ni 7.1733139355019455 6.0059999987391315 2.6346277553524113 0.9626145958275356 -0.11491339891114404 0.8232698033469048
Ni 4.960552203683017 4.669301219492192 11.366248592102018 0.9708210428977281 0.27128403652581023 0.6001988361912115
Ni 5.612963502758651 7.98597921092189 12.619783733571142 0.3699850873431499 0.03533929873124236 -0.4236748635571219
Ni 1.8773206295271447 6.282126849074864 0.45482444872341415 0.18597509074466034 1.5715729233789322 0.2692387239610073
Ni 2.89712196789573 1.2858878737457953 0.450415440850324 -0.010828715184387803 1.0219723689605626 -0.3429170274817643
Ni 0.3000617243464554 0.22065956688280972 4.755461491127647 0.31930787270325656 -0.5788615081660159 0.2096503228744131
Ni 8.668566021802214 2.356973031001252 1.2818662910694743 0.0023625866949056086 0.5108265189739654 -0.13671198284347424
Ni 6.997681179633305 0.9768389761728803 4.861321333625109 -0.8999226161149533 -0.5660018785945284 -0.5141054468355533
Ni 0.9124863777611933 7.455288541741962 2.9201419363948347 0.14657216346700563 0.22092332468507112 -0.8217986181180169
Ni 7.622890864541422 3.8711325582424325 3.725705325989498 0.4723185927067543 -0.19131810022412857 0.6553433425738391
Ni 7.5822385023452314 4.050257597574907 12.46464813517851 1.1312733067809355 -0.629637967387935 0.694620800017223
Ni 8.025321966819142 8.90071192726529 7.026227868603691 0.4598880802528854 0.7850935493874995 -0.5188532459331838
Ni 7.311231848858819 0.3793747558258679 0.38727240936751695 -1.0465657420292105 0.1483796489893896 0.11000336320403635
Ni 1.7363287791630433 6.533398463195342 9.330430131899487 1.6221565498637547 1.2208762519517489 0.17642755626554132
Ni 0.01832903149221509 4.790494369073048 1.2895447674458151 -0.4836299039545155 0.3372955675299288 0.3418482198976177
Ni 6.5810172033428245 1.9427463775449059 7.029329089075481 -0.2417019519933192 0.45647622635785895 0.10323956211764154
Ni 3.2327176764866947 4.206482715652346 0.2634964251415333 0.309699403079215 -0.503537698622036 0.8040258675156282
Ni 6.181205313662979 5.522346022462714 4.87525772732297 -1.3790870280989473 0.5652305476461427 0.11198054153506522
Ni 5.281187479206256 3.1154169678499026 9.406194494088304 0.08079871661562213 -0.37556258143092736 -0.9157459563004551
P 0.1006878070654763 5.679062242902255 12.49470359973913 1.656258119533154 -0.44181039681556816 0.10711498591264779
P 3.952500944052122 6.138206573514526 12.766415076060042 0.964272700256249 -0.4393326246990369 0.22931386274161153
P 2.4296561805922927 8.503373738372327 1.6088513382449232 0.4343056037980907 -0.5649526113944077 -0.9293254947571027
P 6.505241927768181 7.945972557386981 5.856362927904404 -0.932083517118214 -0.3816632950120265 -0.3040712582591602
P 5.024922991071078 1.177972676918057 13.001641284672079 -0.17457816176162838 -0.2634802242106753 -0.4169038633818756
P 3.9499362983833692 6.186689290039781 8.149703643958384 0.5490449390252157 1.317126784346067 0.34459955739050974
P 4.4928499596867155 1.1722613383365788 3.8423475936815463 2.447455467825546 -1.8987468290938267 0.45881695867589367
P 0.3122237833990203 5.437276179960889 3.426894093768764 -0.476655015298579 0.4331717473039637 0.5531047109168861
Ni 1.3037585430333825 1.075859763553667 2.517373428605374 0.5731731995319871 0.32124031383927903 0.49800725572211
Ni 1.8320300783555508 6.447055392347326 4.931216113137994 2.222594498648966 1.0217013746873629 -1.016267091045669
Ni 5.997614880630656 5.757147518476414 9.191067104369688 -0.1315656627558444 -0.6145710457524834 0.7227401839612585
Ni 8.73487393517412 2.355608857773192 10.260488879735728 -0.6171930567563629 0.3695942796626344 1.1321618800334758
Ni 2.298440905029288 5.183003384738679 7.149404526058146 -0.901505387221041 -0.015273638329618857 -1.022348778463375
Ni 0.7764110077110201 -0.28410635427106484 9.28736954923136 0.4755617822344004 1.3350882539204942 -0.34963249182872685
Ni 1.5187886217283975 1.075414133632501 11.450092497596225 0.2546106896351873 -0.4487500613581949 0.5515062560815147
Ni 4.238086062102404 6.846085156043084 1.986316251551507 0.12300440344939462 0.1611703729961547 -1.5922039693657224
Ni 5.587926376779656 7.834310431426171 8.030267549495269 -0.1677310569328079 0.6342574684378174 -0.3538146482308745
Ni 5.159230392617685 3.0723454717959524 4.751561774593033 1.3869371202709857 -0.7823069877812978 0.7198574630968247
Ni 0.579111543185511 7.184109092979995 6.76607003007563 0.1151849074049758 0.9941540611967138 0.7469471202247653
Ni 4.767548975377078 4.648556691937492 6.900468376504107 1.3648307752902495 0.3122442809882558 -0.2728914902222462
Ni 8.012953462884731 7.47349570709247 8.929178584739628 1.2153769194000748 -1.6070418057095033 -0.25571137889853385
Ni 4.743093896642055 0.40139160227793863 10.358415600187612 0.289232907694747 -0.3399198925266533 -0.2631395530418049
Ni 8.164704092774134 6.877606652099458 4.876988408424969 0.025096280846995486 1.5384920816645633 -1.0764021086643525
Ni 7.338151533892537 5.895629290100884 7.1152092504747735 0.047380289056176465 0.8363400062673015 -0.9895121915493282
Ni 2.417387716027939 5.35072393588457 2.565850688437717 -0.7945279553275221 -1.149169727445382 0.44653942686012127
Ni 2.2004114168608915 5.220290786305654 11.605229005437673 -0.18305843131849764 -0.5511578716031605 -0.8992075923257998
Ni 0.9988112596328343 3.1503852749291754 3.8546733535214783 0.32778788514980967 0.8205642314902836 -0.3374557472568769
Ni 3.6930806685160324 2.508605432544223 2.5620573774148907 -1.1792583193006463 1.393498318428271 -1.3818949298613878
Ni 1.0149448816766915 3.3356309048115462 8.471277470662528 0.4346236492591418 0.6486538463688055 -0.7107040787323309
Ni 3.5714146055494487 2.673588542745807 7.047311620567768 0.18795175485505694 -0.044844410008200185 0.1673659602839053
Ni 4.303902873112209 7.242995903991254 5.9588023333947095 -0.33977282542582776 -1.8128419015998904 -0.5704786834189595
Ni 0.6997390156011318 7.614587596826629 11.419877879492333 0.9867166310820621 -0.5552461827399211 0.5998676781040378
P 0.27318933065130946 5.6627558255828445 8.15922102584615 -1.6248986313852662 -1.6864953211511406 -0.29412288879719667
P 8.802573305238647 1.5530202752645181 8.25473861637728 -0.9869580576689068 -0.33046286087881155 -0.7609539760268185
P 1.8144595271781367 3.0753466528976845 10.71082974578292 0.855417591724043 1.4452978195980657 -0.7072510871867239
P 3.978302007038832 6.031137164088185 3.9663236566476456 0.06771925772384467 1.4867859115395232 1.7910934541792058
P 7.019298778053964 4.080323975521351 10.461041442685753 -0.9068283420958511 0.2620265224832842 -1.764620861809974
P 6.414278856921135 7.8532815337843935 10.19450745848974 -2.4824247848118794 -0.8130967194686449 0.9869953386647454
P 2.101563424755659 8.540506533640121 5.854446719243389 1.3431766873555835 -0.8332063457343264 -0.7521062958282015
P 6.965159289876354 4.026639211753094 1.5610261532155933 -0.7110429501289883 0.12653401386920787 -0.3272960331150557
Ni 5.4197056287834755 3.346044093785738 0.17382840941232627 0.1209945721082174 -0.7187521458477879 0.5562062326603453
Ni 1.5144505508631665 1.0631274800917732 7.06063595521064 -0.7539870577906821 0.959667854494386 0.594605401263834
Ni 6.971389014284494 0.573678495942557 9.168172639807564 -1.132101973329818 2.2552768193733352 -1.4803887497639279
Ni 2.6905406687265008 1.718830983891126 9.201315683107694 1.0652250090016107 -0.7342309582096774 0.7109575895040336
Ni 6.446327833292361 2.0467054720112703 2.4677639049937414 -0.9978222540769204 -0.37018614761036245 0.003062955196039886
Ni 3.935657951929674 6.644433069471244 10.557077419043544 0.2834270996462474 1.4616047842882054 -0.7126254641247598
Ni 8.610488620239602 7.204726297700075 0.552648401458783 -0.8032925888940295 0.3328408741926849 0.4513995831659
Ni 7.69226362043237 3.833726928329025 8.19476046678357 0.3269563903874498 -0.5131603093134646 1.1420961084280523
Ni 3.2207584245207013 8.148770549470392 12.530495867448154 -1.1202959818338256 0.9026081333669165 0.2806107132433748
Ni 0.14588104721346895 5.043839526500177 10.283329686817549 -1.0431166071383455 -1.3106391197391942 0.17818053440090603
Ni 8.76206645485345 2.38492039320011 5.908993640491779 0.085767116364491 0.6134197057568597 0.30119573648357806
Ni 3.9860686999505868 2.5443285821430224 11.532313036949045 -1.911057785250696 -0.37457090694161943 0.10844913134303905
Ni 0.9777848029443352 3.3144680308002408 12.8016744067613 0.3647102120974558 0.17042197350140972 -0.6239810262124738
Ni 3.1002200780893134 8.57356499820011 8.006507289657737 0.3290976051001687 -0.9521180671715862 0.5242708174043293
Ni 5.685919486995304 8.1252067305777 3.7045679165451166 -0.027109197511966214 -0.013462810373125201 0.44431902217003477
Ni 3.1288404324140133 8.431618226576367 3.731162928350557 0.163870288425821 -0.4011599702840575 0.47550547507516816
Ni 3.147847912724984 4.462119684102616 9.222813234284283 0.6548828579976528 -0.8948853108013621 1.3887831723407889
Ni 7.530081612592403 6.452757636440618 11.468261466096349 -1.2063176374112838 -0.10055584463789134 -0.5799760813864334
Ni 0.6558326455316092 0.14332003933999085 0.36806666921406855 0.4840957878473405 -0.310501073044904 -0.4535299992453415
Ni 4.748104959633129 0.08495252360421275 1.5620638343177378 0.31553786413786306 0.3865933853237923 0.4111638755743047
Ni 6.452766730928804 5.833823148381577 0.33079654717464874 -1.327707902296023 -0.36210182794033124 -0.41713911932113323
Ni 7.939933817230769 9.036383502039957 11.084008426806939 1.4026090224802876 0.5142149758302241 2.2013841831199374
Ni 0.26239417317326075 5.018911534379426 5.555488156314025 -0.9888989834453613 -2.672392541655701 1.1968179254509648
Ni 8.013662832963323 8.681298305264107 2.796392326184593 -0.5094206397653743 0.6875286690571321 -0.27322933317763914
P 8.449698069092255 1.8217351177277905 3.3613255622864666 -0.43876749622418626 -1.9747164997519218 1.6479817384569746
P 1.7112916531840474 3.37326389692963 1.67415340122334 0.92206212832647 -1.3839574688173713 -0.4313220956897346
P 4.853828384807785 1.2703272044577236 8.135461675457439 -0.12536519037208732 -0.8644048828243177 1.2693448889760979
P 8.574829132058113 1.7113098421604216 12.48983168241732 -0.599356028574942 -0.7480570654594924 -0.8468445053430512
P 6.550969014372756 7.636368896034655 1.4867387359083544 -0.9928242866416964 1.6864053325404955 -0.29128130558334353
P 1.7378475586902835 3.2014144481468096 6.104634270371968 -1.23709014270745 -0.02893725185964049 0.23181734588975558
P 7.099985077249624 3.9048912983928257 5.985223640475776 -0.7832894062992253 -0.06772568548174787 0.3804073111177384
P 2.7962277159484077 8.619219328899186 10.381203659237947 -1.9612819715135708 -0.2539918251042658 -0.4818859246802152
