# total energy = -340873.48337791034 ev
CRYSTAL
PRIMVEC
9.20505343012619 0.00000000000000 0.00000000000000
0.00000000000000 9.20505343012619 0.00000000000000
0.00000000000000 0.00000000000000 13.47252615604558
PRIMCOORD
 96 1
Ni 8.356191003889526 4.010245955455764 8.120713770973952 -0.48622003327919483 -0.10008867519348569 -0.6126609732139643
Ni 5.249236940011023 2.0759236460664785 6.262070808233015 1.888950154718379 0.9327512326092 -1.9613953571629834
Ni 8.872769396464928 2.16119005584616 13.895428549201636 -2.065904530021668 0.8677642862148539 -0.29713570748159146
Ni 4.902445757668398 4.915507728463752 8.239339294328238 1.058687464993409 -1.7235878551280637 -1.6644108305472756
Ni 6.424897157073653 7.638785960967227 10.923699481500016 0.5797097150989242 -2.979804948472952 -0.12549451686110003
Ni 8.132029543136552 7.560110369432418 0.7849351557826799 -0.7294785311263566 -0.9753868078915395 0.37319176720590563
Ni 0.918505083355612 2.4086403017381386 8.035432633108806 0.5718976752536731 -0.03567482769379018 0.34367473158339523
Ni 5.027993481190483 0.027264447708781052 11.603024138951348 -1.0245272741719322 1.65894543655733 0.7191792060828774
Ni 3.3794972853787537 3.223416399680354 6.848165764195674 -1.3418206875483214 0.30262912649599494 1.3767198134183516
Ni 1.1649087146743478 7.67305637482988 11.214369294184346 2.5560714637637525 -0.1783697675935767 0.8624109923227405
Ni 4.838074819139918 4.172402176407817 13.18686772160011 0.4174270828751972 1.0021260236585967 0.1992494392560633
Ni 8.867651386766397 5.301355952444636 0.908838856764913 -0.5044730659521118 -1.1196730035378457 0.42026300966209557
Ni 0.7806207472472446 4.06818256164742 12.340200716102924 -1.0266687459949673 -0.1520936075058671 0.8138436249369982
Ni 3.436163594199192 1.3242205741212818 9.898695612158544 0.2676531246414423 -0.08739102512115916 -1.2995977743233682
Ni 8.131836237014845 5.1663362289589 5.4040999971426675 1.028409639945474 -0.2917939835537039 0.9573073246820094
Ni 0.9817833820437761 2.0683386820528264 3.0138173334293175 -0.9151833989287657 0.05923744550507862 0.10432636742391711
Ni 7.458799551551042 4.396038949116158 12.65151009955353 -0.8854347069114235 -0.6670493181568576 0.11169617752542699
Ni 2.321422420634557 2.9318371277186572 4.5545628559908 2.047736086642757 0.7753773505410001 2.1475365411718625
Ni 6.32760894753447 0.21853993463266266 4.485556252562715 0.5212276597026313 0.8314785644099422 0.8197743885991365
Ni 1.1902962519918867 9.277773336601648 2.128012281823823 -1.4509357346101333 -0.3392118107160351 1.3419723826348373
Ni 3.9602993356280023 6.377748873483939 9.655032325241343 0.2646415915086281 -0.10196660894248889 2.4694245158974697
Ni 7.313332092439706 1.7948473400508704 11.957877107074502 -1.3273728875541075 -0.04149863346441886 0.9918238704016403
Ni 1.8934978974954184 1.8537320667442336 0.31094854535675265 1.434481188598536 0.1525371228011889 0.2671545877384689
Ni 6.296937709556936 8.446962035611154 6.76155081409075 -0.906444219283555 0.3589668818557753 0.8500154468718651
P 0.6107608170924906 3.9011936876526883 6.142582771373778 0.985906990696573 -0.3498710902020942 -0.23028548262626147
P 5.3432389454811835 2.030192940702616 10.740864108052003 0.7372352922536399 0.12487616655081075 0.38155273757609126
P 6.480569320125312 3.2713747279705556 0.9374288321654003 0.6532890311479717 -0.7166970630909721 0.15201570308008014
P 4.384311711065925 0.9402409759835685 7.690400536473718 -0.5912830217588203 -1.0594796218774012 0.9028043085381227
P 3.263117795057636 8.393020422601445 10.241221172748832 -0.5751256952726675 -0.1557682281439769 0.6382676180384749
P 0.5646260098837261 6.643793327273462 4.1668634957682364 0.5946102863598405 -0.6391952720590669 0.5206779578467484
P 0.8770473637868189 3.5731347890088285 1.4927420895095491 -0.38819209726947984 0.18764065137254135 0.7534962341971926
P 2.1839081276734573 0.6761940187850188 4.819580946324593 -0.7141892090674539 -1.344979030671645 1.0076497816903032
Ni 5.896968933638018 6.487095702996283 0.09557514909872136 0.9936138724225275 -1.1158783123821039 -0.35798214934500283
Ni 4.230145476477767 9.169715214567352 5.6148368079957525 -0.1504722698523602 -1.2281249630943623 -0.0029331144863949487
Ni 1.095180435058555 5.506729899178358 10.18605160561361 1.674533520803574 -0.7669711287551759 0.09723295091224544
Ni 2.633243605055016 5.324709172957542 5.840367060191481 -0.8479089420518235 -0.28264856960901 0.08910029450278203
Ni 8.759851006227711 7.077259292568205 9.616419887683012 -1.4599410234325372 1.207292342619727 -1.131477709482258
Ni 0.5389788900598949 1.7068562344604596 5.806133466542486 -0.12854333098975282 -0.3772751932466599 -0.45823537514081086
Ni 4.3300203060264595 6.941475549649056 7.033331857168268 -1.149760824062162 0.48513399930386775 -0.640437114885968
Ni 8.280387389020081 7.873459592719705 3.388825686509136 -0.6220609263716254 0.396774182511536 -1.3769134174863966
Ni 7.713190407717649 0.39500357010706943 1.5754504149453061 0.5803514624479812 1.0399834608260023 0.14776849776795195
Ni 1.8249294546098687 3.290024166188588 10.343450654960986 -0.27013321075081864 -1.2731588634055493 -0.684539247411505
Ni 5.100759428433103 8.544139784509364 0.653564315470502 -0.622511897866115 1.5142157256157018 0.16548571254205696
Ni 2.7948935480692647 5.195120430986436 12.05419234246776 0.42269244503919456 -0.6395297725803502 -1.4499443172311415
Ni 6.567271718237675 6.901350721814701 4.763360162089422 -0.3427254802962485 -0.4005485619523037 1.5813695977543798
Ni 1.2136402674513782 0.15044831351399046 9.51672271566522 -1.1212118087798755 0.9553769404285158 -0.4089797234387924
Ni 5.757493964299602 1.1334090218894972 2.4209318095626893 -0.347805208812001 1.2049618947143377 -0.6769154123176601
Ni 7.753370465872493 6.609394042663005 7.309734757565271 -0.5900398933803387 0.20445180939260918 0.3882391484573314
Ni 2.937507440622067 7.558876892274857 3.3296003728394314 0.8364135398177144 2.05250496878631 1.363370388694639
Ni 1.685224358936088 7.5546241575973 5.768019942879227 -0.0809810078297573 0.5917126530970712 -0.11842115495408638
Ni 6.4868839867677455 4.064408489747424 10.375718049200614 -1.1427872209578058 0.15934180442784815 1.0307125770470378
Ni 2.555562159288986 8.125006087381193 0.9122346009695685 1.923122943945346 -0.48557134395160245 -2.5265148331525586
Ni 2.3891532036593754 4.863572817098433 0.8209554502994533 0.8778962324425332 0.9561847810417919 -0.05363938259201085
Ni 4.940766395033488 4.705052592245156 5.5975782533486695 0.6530586603047204 -1.5143424810015533 0.27104620948339125
Ni 4.978304602858333 4.729795775823671 2.0202054577477466 1.4296541995235377 -0.5575357501050462 -0.5837915984777817
Ni 0.49013779714723016 -0.1455337354959216 13.370565608553072 -0.04164878588903795 0.15740987751245794 -1.022689192521929
P 6.880740607219353 8.801927305385966 12.788189494169922 0.5407058230319011 0.06586189280013173 0.8974006210240482
P 0.6178385826629966 1.9026753357498005 11.804195978801294 0.1736073132079268 -1.0343928541121024 0.5149477402311905
P 6.6158191699464135 3.9602625154143443 6.839017782112219 -0.45941165483709906 -0.057489352465720345 -0.5225471498450033
P 8.287235948760562 4.9940360391439285 10.04927831945239 0.4003786120333427 0.7577560379148112 0.6929506114036518
P 8.39070074914096 0.963667836923792 3.7089461470882217 -0.6093604480858215 -0.28840398403554846 0.07467871976081333
P 0.2933024579609144 8.00358222778886 7.6030850818039415 0.2221973063014883 -0.13230382647344954 -0.2928406796506634
P 4.0158702430921 6.589308616112291 1.364336196902222 -0.31053861115105874 0.26542603508313645 0.32372348527244893
P 5.244063699992003 5.60256371027803 11.589026934729066 -0.3541789735488287 -0.08699867477874694 -0.754394834752062
Ni 3.1474470938494448 5.31660872595267 3.2584250588268597 -0.4021076789093075 -1.378558152178671 0.7342124462669162
Ni 1.231967528799899 6.723269758455343 2.067372151444291 -1.803186637898314 -0.8782844690198874 0.4757929244086
Ni 2.186310646614675 7.360102968839421 8.620220471486588 -0.743829657641706 -0.021715794410536792 -0.9596503709928891
Ni 6.362983967806878 2.595420040574317 8.582807452388183 -1.044569023314156 -0.888277061456225 0.10730730442911196
Ni 3.8288879930808 1.2986029104683774 3.7028836989093494 0.9602877474665719 -1.1975370630051763 0.18944582290208017
Ni 8.428450673194341 -0.22183258223907443 11.23145203231121 -0.11043942230019045 1.00316449222544 -1.2407454800718503
Ni 7.534004837948538 1.377711139513674 6.877280427640795 0.39506979822591964 -0.948070893685406 2.06482055292887
Ni 5.471281238478633 7.8518737424624065 3.0263739467922086 -0.5561465830670035 -0.21402248380017982 -1.3664425998620595
Ni 6.604561389620326 4.6450264389283795 3.829592179667019 -0.5356523197683937 -0.06192219142609335 -1.1384209735693105
Ni 2.553178050454598 0.38550855750988267 11.997338250557661 -0.8080858965176148 0.11192937658215561 -0.09667527863656254
Ni 0.8229630724491832 4.490832589179978 3.875102884254272 -0.9823904929028822 0.8472216861768117 -0.7234523795369348
Ni 5.797508331492982 -0.12790053517486383 9.213173192243145 -0.3195544414964238 1.499743757251772 -0.9684414869219579
Ni 7.503839877908808 2.6305465244045307 5.080071991389072 -0.20452020073669935 1.1594700809301257 -0.7381642318258126
Ni 3.0786761397887727 2.941787790459868 2.1437750152910287 0.5718100006358733 0.9537198644410673 -0.24969885415586673
Ni 3.530184009776183 2.7031283705788574 12.155465419630133 -2.180113189556303 -0.6529555590679529 -1.313399970313783
Ni 3.6607116671955815 7.240437274449283 12.301453884764737 0.8175881795810952 0.9059127722601172 -0.37564485673208853
Ni 4.112854685868601 3.689495869223117 10.180218363264762 0.16539675237267645 1.790344234718007 -0.48419786064284354
Ni 0.7441853048214715 5.599820604360472 7.6395150011976645 1.155335747046778 0.2805181535295685 -0.5177409867056116
Ni 8.482806513607708 6.570309385864501 12.04357615436467 -1.7864402716779106 -1.08675799797738 -0.860552598957763
Ni 8.01385506739958 3.020601457795897 2.8280584350168216 -0.47282947090490185 0.11526435449265955 -2.016747351570727
Ni 2.392973300826445 0.1683530629107797 7.126521976927259 -0.8141719548106946 0.9229332180775137 0.8048841017508654
Ni 8.539086210184733 2.66908808305157 10.1532052135142 1.0240341365855976 0.23948797506113592 -0.08755840393695888
Ni 4.884238162014268 1.809557015407443 13.612909811315957 1.0922421610204027 -0.7794096116288448 1.1183658546906483
Ni 8.328962455889062 8.837863833916666 5.6019037079482015 1.620615944849512 -1.1625435776491269 0.49699192708371825
P 7.910960980330891 0.938998293772594 9.048256375772043 0.284034137102627 -0.6529982393804303 -0.31144672478762486
P 4.327332430429389 6.539131869949164 4.829240729377902 -0.544102764528592 2.0226655168273746 -0.38921256811419425
P 6.9597567857305025 6.220462125788222 2.219073272728012 0.1960594715638559 -0.18991479211869872 0.16122873703791588
P 0.9442727893791748 6.708329956763406 13.224227351388711 1.8266379269427186 0.2154913550362224 0.8535977649064848
P 3.452465743796495 0.8058711292689055 1.6297445815007954 0.6850249287986718 -0.28733646200298263 -0.9231473909708489
P 4.726196599938552 3.2134473268323136 3.772078085427094 0.09162563202779704 1.3788900815967928 0.2696614133207227
P 2.634955744990136 4.5690387229906415 8.579075723733892 0.009438005484448262 0.12410483560242498 0.2173687745645934
P 5.8253444130188115 6.902556583812017 8.635822116519039 1.6620541573896408 0.8614787103164583 -0.6422163182735778
