# total energy = -340892.65163413045 ev
CRYSTAL
PRIMVEC
9.07609298441584 0.00000000000000 0.00000000000000
0.00000000000000 9.07609298441584 0.00000000000000
0.00000000000000 0.00000000000000 13.28377950823417
PRIMCOORD
 96 1
Ni 6.051802623630156 2.1083673113022363 11.230624879326394 0.9939684275484689 -1.2763285193827825 1.8204158572924067
Ni 4.569867246284073 8.99788423618158 5.966502779456002 -0.3105126430091298 1.8186353683532164 -0.014971019487535507
Ni 2.7018348757404413 1.4394864907173825 4.787247840416069 0.9687507906322607 0.18195671361388663 0.85766319322511
Ni 3.6172042280897285 4.588518617253066 4.9500012464273 -0.04843084180787788 -0.5892546784748819 -0.4984638836435545
Ni 5.048286256754903 4.5105459029004535 2.9071016086401684 1.0627348955899052 0.514840525229365 -0.9778103297313676
Ni 7.4610657248941346 6.264273959096884 2.591771819618939 -0.7126869134903145 -0.24191278245254466 0.3876357105453776
Ni 5.284909075505567 4.383525982359793 11.763039381850136 -0.5062784945919667 0.2109962953793463 -0.12463422574333374
Ni 5.69854293464955 7.70899735543427 12.47195484834459 -0.5249403326675282 -0.03829632447703727 -0.4130742052231402
Ni 1.653282935751737 6.6499534520197 0.30090969257571265 1.479513032027194 0.27029159070555386 0.021359439512382568
Ni 2.6469789700778654 1.9211002858992037 0.4254581930118196 0.6493444446779268 -1.4172943924066042 -0.013586480435183053
Ni 0.7934284134116676 8.859845938825174 4.549016737998395 -0.4020989371585591 0.28870583154668344 0.3154519892922761
Ni 8.594297611909944 2.35667106165246 1.29854928927947 0.728227689438391 1.9417811824764817 0.04168992353961853
Ni 6.990597371829065 0.6676655317416672 5.05782523042323 0.14957675462128434 -0.39397245139668274 -1.106480416106972
Ni 0.6454445334237181 7.568980469819353 2.3505247315209745 0.20086357782071856 0.3084375056476559 0.2309449705871313
Ni 7.9383683759347035 3.863257107393572 3.823085412480745 0.05613978041636138 0.28090099079028397 -0.6292456170455227
Ni 7.5323765870368975 3.7831605872955856 12.660969021636445 0.9172089139992267 -0.4990120428375405 0.40155206351615363
Ni 7.912528739365982 8.65686819656213 7.34899866745392 -1.7520201423268276 -0.4567037689876328 -0.7341093450301487
Ni 6.8616079391228215 0.5641962571330474 0.1319691140148167 -2.2194430975041777 0.924735561393575 1.0456787114385668
Ni 1.759110179303298 6.4718986609395515 9.21699019557937 -0.37900528856388915 -0.6420659087386427 0.10924437355082475
Ni 0.11953395909286184 5.053641151582983 1.4027673415547284 -1.2301363370974363 -1.3683557577243723 -0.5637038265889711
Ni 6.4901597599126 2.0457331939995496 6.938423451626993 -0.2521195477822174 -0.479356216279826 1.1423118239832843
Ni 3.643243538702887 4.265110197915778 0.5294466201359752 -0.841447502697196 0.31813802076487147 0.4608900391548385
Ni 5.913809706738395 5.7824877181494125 4.862434194239493 0.5983777238220727 -0.8934902302260485 0.10005267974922769
Ni 5.27641385252407 3.0324406367703864 9.21442619932694 0.10845478776999386 -0.40666367371110607 -1.0280728254313456
P 9.04121350382439 5.73442980609062 12.589875078114684 0.54006767522727 -1.3472256606139765 -0.6948444859922549
P 4.090359104661768 5.953199950050039 12.642372107225025 0.004882524903281915 1.5998563437046573 -0.80263772891885
P 2.4400985078553714 8.602375334616712 1.5025018039230849 0.5733506056501159 -0.3995440319471893 -0.898088648230008
P 6.316624863111069 7.724726224480141 5.884196230729815 0.06765240904165122 0.12377804839062555 1.022784837559529
P 4.453130539031913 1.2383511953189141 12.651431863186703 1.0603036604405933 -0.3343002323470307 -0.5158723089279891
P 3.8820718480352867 6.008754714868145 8.404222443354694 0.4363596581136421 -0.14769830665164885 -0.7640686103964003
P 4.793293425916043 0.9800002100963425 3.792359207479077 -0.038903876154049125 0.6200960893357709 0.8925414931595339
P 0.2847233884462226 5.875508594578224 3.63526565301834 -0.4174597358853456 -1.2774376932865612 0.9253387421952128
Ni 1.6170965532440118 1.2451582650156268 2.684944266799665 -0.7549023705160999 0.5147137698435136 -0.6681314954774429
Ni 2.0196485029217466 6.442709946080047 4.8645734293428475 -0.2843385557169232 0.21156836583273242 -0.42691033977528414
Ni 6.115816307058043 5.740247581658077 9.16865092463978 -1.2024589257868257 -0.6567921592052237 0.8557646906508165
Ni 8.660162818295339 2.28939906086308 10.083252439527278 0.14530075295374975 -0.3407367320009938 0.9221323194427732
Ni 2.244399792121344 5.067772628273359 6.979616206994327 0.2378941482114548 0.567982399359667 1.0181131431154724
Ni 0.5434401402138308 0.0514723382186632 9.31024251237787 -0.7527521569423165 -0.31819844168916167 -0.37170078448267596
Ni 1.6739310471650992 1.0392217164577435 11.443112551760395 -0.7398105091799839 0.4791111901485554 0.26509719098880796
Ni 4.260626608008876 6.748746723551323 1.3868133854042193 -0.5692478963356519 1.4383717819021937 0.4344624410909292
Ni 5.423283188300345 7.789366158320126 8.070453663939011 0.5963331825882181 0.6997630063397948 0.43696361024622804
Ni 5.318191108276029 2.90365995420151 4.9353224813333085 -0.24867478376672658 -0.5078664079043769 -0.742475971827289
Ni 0.5933713578531583 7.40186237071859 6.787001547637557 1.069528264362655 -0.8535108616196333 0.010728185050781524
Ni 5.060348384257479 4.391276965721117 7.061763016484964 1.0189785764395614 1.4993370087316564 0.1624770076227202
Ni 8.207501759556868 7.0844350966214815 9.349867826496375 0.685069408883362 0.1230159734136204 0.3360221001341439
Ni 4.537147931275206 0.2302178199707042 10.510192758514396 0.1222958074181442 0.014579697586387793 -0.8044408435658597
Ni 8.061830468047214 7.242821994324594 4.735029447358646 0.4136565600891715 0.5311341201830658 0.3363627713030143
Ni 7.325850092438631 6.293154086796804 7.178899979435289 -0.31682495838040275 -0.9829345383318103 -0.9869837687005195
Ni 2.0752123438327805 5.532114618611388 2.485979972829801 2.3910349229439727 0.41467754515451805 0.2697524303726322
Ni 2.364848621381444 5.140608274028185 11.490136696834579 -0.5303239655769447 -0.20304387330148901 0.1819806248732866
Ni 1.5131480609287438 3.6263075492974655 3.9466237437738596 -0.8306313859182985 -0.4833949051255739 0.03998425370242146
Ni 3.6568667541892412 2.651317342497904 2.704564056884177 0.23821553610661556 0.05196430888243309 0.2583645002506647
Ni 0.8013364131806621 3.330454148092471 8.15254783209066 0.7573405476439473 -0.31445774369980684 -0.4911460098259025
Ni 3.826998116142416 2.533418895350839 6.959013476045609 0.24650014471291098 -1.4574977040983672 0.560694350338686
Ni 4.074820833567405 6.634651159341489 6.203711006200583 -0.00876591911808813 0.4169660840783787 0.8235189432432335
Ni 0.7568935089354709 7.5102944529407605 11.512746151929887 -0.6308718397950361 -0.16265107130673925 -0.41456493083605384
P 0.1487735000727683 5.551101805018752 8.016601574154377 0.33095342736198485 -0.31580525886663674 0.4595309540237828
P 8.672215869704985 1.3855291182547727 7.868859118238338 -1.0583624775538225 2.534669601049209 0.8689071415700456
P 1.6604530491656078 3.0287012864836593 10.462038639870556 -0.9464127892566926 0.9033221287148056 -0.3895416693188388
P 3.9613242914908806 6.381346481787414 3.5574626616034988 0.21104283234656557 -1.7176180106978742 1.068705511351043
P 6.966327899337051 3.877914997473827 10.338871520778236 0.15512416680207478 0.733268337186092 -0.27769071138310236
P 6.333932972326577 7.750348034818568 10.252700371682902 -0.9412608127421079 -0.42335964630954825 0.028561613687776616
P 2.449637481523698 8.282297841384349 5.983996948576554 -0.02104062272038312 0.4804414789242048 -0.38444317175000886
P 7.117190716002063 4.008928398903225 1.7455150997050233 -0.9959209232891493 0.3289906472086592 -0.3320512884118539
Ni 5.434619228368604 2.869270638093717 0.6647484754743026 0.5729567126458068 -0.6924397332055042 -0.2973457666098685
Ni 1.4386877945396348 0.9217770739571259 6.948452534313483 0.7851724822545509 0.37361985588225977 -0.3086663338290104
Ni 7.028580820736721 0.8136345190993898 9.3304604169864 -2.1900700436586993 -0.2596505660519399 -1.9911381356430546
Ni 2.691088781712564 1.6004782270911038 9.058143139964761 0.5016952460966585 -0.33433854178413386 0.17761334904352635
Ni 6.4303755357896035 2.0217632325741923 2.758828201287785 0.6315115302615639 0.1805983998137793 0.12886009089922323
Ni 3.844524051588219 6.7729345112069765 10.514404065633428 1.0680254545648833 0.5186791822491648 -0.2898381453789138
Ni 8.11341898025537 7.633266436035109 13.250264306155213 0.021827637398052727 -1.277645181311677 1.0748378495010265
Ni 7.500428739926991 3.960570975777778 8.093023184225432 0.31871754741742525 -0.03943609450843531 0.1361525107955784
Ni 3.258226600563884 8.356322455312867 12.39310175297787 -0.5004336057754155 -0.10948785702019853 1.2869839422140998
Ni 0.023574243773655627 4.632138319869601 10.340638636071503 0.4578525378800954 0.8580938530046255 0.05204144197727166
Ni 8.734904443565243 2.384044557926174 5.8443975632363685 0.3687746119748165 0.39034411061547614 0.5018819081861678
Ni 3.5953126919451 2.7584515434312338 11.251016137309866 0.5716644761969446 -0.517313669360206 1.005683916213184
Ni 1.122322423315213 3.3651974318244933 12.697366877109415 -1.2211531597622194 0.5859333274111328 -0.33884491429491964
Ni 3.042869067545751 8.29653823118987 8.18777668679438 0.24653125506116247 0.2773924634163932 -0.13987443973185587
Ni 5.559306593026523 7.951029525570589 3.831639630066281 0.48885412846793225 0.1816846908994226 -1.452692826510556
Ni 3.1890395441664956 8.435338920352308 3.5676242552467516 -0.44831374515172473 0.01712328994384793 -0.06693327148743956
Ni 3.1853455743444132 4.0854217101084185 9.270005469595954 -0.2468531571769555 0.8542299991738449 -0.7431118056390751
Ni 7.220585566648666 5.863509999726152 11.463676255509517 -0.2545862641551551 1.1378774423610145 -0.3850743775761046
Ni 0.7528673541121885 0.17492081619178132 0.3768702371259768 0.2902009280349712 0.2594461633506177 -1.2208937354532459
Ni 4.58675785522485 0.4967926529961976 1.5701695223641672 0.022980777165889456 -0.8767636614999869 -0.37560629018466923
Ni 6.243553238940089 5.693460322609339 0.5800267784197225 0.021545073160627412 -0.40161994063961154 -0.3998124551172275
Ni 7.81163889036777 8.97514862339456 11.230890808849212 1.0827915571304643 -0.0523898264556259 0.9672412959662696
Ni 0.03474328373202192 4.85886819732771 5.823608772382608 0.06915804705290024 0.5395902213702191 -0.13140728280110917
Ni 8.310215903233798 0.31012011168001147 2.0956753029503923 -1.643795468289769 -1.3082135410168374 2.08375544216016
P 8.767641910759968 1.7629765948910308 3.7992933424767945 -0.18965305381687983 -1.2292554771543798 -1.012274424946508
P 1.8732783522565644 3.547082334120658 1.6376911157090932 -0.5114330422097128 -0.5724486626611367 0.07322064715804809
P 4.877129296300757 0.9646797652322743 8.241854771292946 -0.3068840451176069 0.17454010943484136 0.10350747106704755
P 8.408627978862409 1.6208359035307394 12.515352186684366 1.247909087699825 0.8132368445909348 -1.1441403925515907
P 6.484686875876442 7.935391417454008 1.5975602632144463 -0.3123288702822621 -0.010918446684716681 -0.5998435097343218
P 2.051541893474078 3.1412539148955725 6.079242375382251 -1.5877194512318076 -0.26659408724930866 -0.5280529101545809
P 7.005309718466893 3.9885071898130873 5.841927050741108 -0.6505189246020022 0.340998984523445 0.7375443388536266
P 2.213178032445755 8.383260299125991 10.285656572717214 2.548612436382546 0.04487963412150981 0.05229186742518091
