# total energy = -340873.3243087318 ev
CRYSTAL
PRIMVEC
9.26065564348113 0.00000000000000 0.00000000000000

0.00000000000000 9.26065564348113 0.00000000000000

0.00000000000000 0.00000000000000 13.55390561565024

PRIMCOORD
 96 1
Ni 6.742099958507011 0.5523295807565416 6.921776125521804 0.3863799837614055 1.6833364638071848 0.08133119208032445
Ni 0.49175933640273684 3.6137671335499078 9.55988132652092 -1.253569628419712 -0.2416001363081323 -1.2947931538458732
Ni 5.058651670910093 1.8554371843554507 2.7235893872519874 -0.7522919294764463 -1.4770594282803788 1.0079518863117545
Ni 8.012032189300204 7.725313029675987 6.145801710783 0.2412725777653845 -0.014952507544774247 0.26739627143562983
Ni 6.231115500971886 3.331826472241834 12.512789551472805 -0.6416236789949014 1.218160652792799 -0.49422490586154244
Ni 2.8864259780302026 4.302222795989217 2.998083555350738 -0.11693171489275345 0.21614235835666004 -1.0547919865937447
Ni 4.500474912175234 0.4644848533781174 9.478137519085662 0.03937387381193219 0.11090659174459609 -2.673693005634679
Ni 3.0682311697792617 6.1696154867906765 0.6884232501445303 -0.3622177846929052 -1.057891708564991 -1.0272055923350438
Ni 0.04752938906544775 6.073017587690512 4.45374564375807 2.020312957434798 -0.8533265135229692 0.9339784201480819
Ni 3.73415565701862 6.57366715351863 8.402255845009428 -0.8931032792002748 -1.3680811639067472 -0.7760175552281603
Ni 8.755773965978607 7.274522833875218 10.956041850236621 -0.4812650032667647 -0.857409168232775 0.26747494719236514
Ni 7.8873189396422685 6.154502096767527 13.166331616040624 -0.666898137290974 1.7570659322808515 -0.5304232101589703
Ni 7.765532057170189 1.5708016722528082 12.94307202533346 -0.4262385105192401 -1.307515229398232 1.1681686371453883
Ni 1.0506028623445007 7.677129838321548 0.16536474977105853 -0.9933842729102245 -0.5621889326063414 -0.42575180069080865
Ni 6.502295280412987 2.803200465690717 1.1927289228238374 -0.1437110398691267 -1.0658788405355257 -1.0217862210916855
Ni 3.6476240906115702 0.30211036931690866 11.536569201386232 -0.2842056296834848 1.332215046137757 1.7857093070491565
Ni 3.7714297960156635 5.106473696694127 11.74970504333524 0.3299774366019607 -0.3338921982753347 0.5272985484870596
Ni 4.7575044097809345 6.4170972484197435 3.4782170646486583 -1.1486200255894992 -2.7958209200163915 0.8492436017028471
Ni 1.4618778404805777 8.45508973763202 11.341027679109393 0.28458692428230337 1.3711533750741676 0.06243615494803441
Ni 1.9589898358498465 4.096062079876873 5.405730858004827 -1.166707222108513 0.013419358729699469 0.00735669747538733
Ni 7.427638514416118 2.835427547357726 3.201066940509074 1.0488116006405936 0.5647096421456661 0.8695033803931477
Ni 1.9953286486260946 1.2676726308142412 8.633241600726587 1.1636488948981636 0.2169471136461425 0.6500895503740676
Ni 8.546260892520442 7.980082927302737 3.6514089205763134 -0.20532135648175606 1.5853818042375665 -0.40459984920354186
Ni 2.0411318514781143 6.749601089584678 2.802392010452346 1.4353677049685474 0.11767039283099089 0.176976743900792
P 2.5086004881071253 6.821361910227681 12.096169322894719 0.2026090997569156 0.04373086522904727 0.2520616979610885
P 8.468952939142225 4.141957889285407 4.777738016313765 1.1093554236619219 -1.0115411463249095 -0.7905463449719546
P 1.1369862582611279 2.7821602560506458 7.2021795179917385 -0.6998218846021884 -0.16774674066209175 0.8017051898022516
P 7.5476658723144245 8.331904496156573 12.554468058297674 0.18754089256988346 0.4315257270601084 0.12868962675962997
P 5.959593077271681 6.457594095583489 5.919844491084573 -0.731032762987354 1.7143997608708925 -0.3119771433697982
P 3.216494266758807 8.563244934985182 7.763203002273851 0.34429359611431676 1.4177170817663198 -0.6993544580474665
P 2.744663861317968 6.032002143810287 4.820772283126003 0.4543998034448045 -0.012247964129417616 -1.2104938802761604
P 4.7335100509880546 1.8275996534672236 12.928826358744852 -0.6955978192185117 -0.5605843071233829 0.23828675566418311
Ni 0.9377154699534542 5.348000856739319 12.742446403103983 1.2168758725431044 -0.3037156746919543 0.28515488097063146
Ni 7.890060093715095 2.813405708218603 10.856800033947971 -1.9604484198686818 0.6158650819735586 -1.0659032660155578
Ni 4.0915150979520165 4.795963912701362 6.602757651116497 0.5754481116090928 0.947867262315032 -1.1999191900841077
Ni 7.015437470714898 5.861930202771601 3.905788018534573 0.12772700573604454 -0.38082074450607317 1.0718651400259476
Ni 1.7742397556036298 7.688900131654528 9.124502713855277 -1.2506971919679235 0.4013913695685732 -0.2593214648472953
Ni 1.7977896029252403 8.105527768757137 4.705875328458595 -0.9495598195261067 1.3358171616667187 0.18812556142875989
Ni 0.43967740901904145 2.886935314091032 12.098717855329994 1.2603470563528618 -0.2931096170413339 0.37112614292612855
Ni 3.8412088363492596 2.755646998920575 8.088835436945416 0.6588729529936524 -0.35025855544850004 0.8571368884079947
Ni 7.686853526755559 8.662852547172065 8.574837423729653 -0.9452568212753785 -1.905845902032453 1.5253707137912569
Ni 3.093040466269468 1.7044236726474278 1.261379089233523 -0.4203403998672503 -0.26832392545622175 1.8731301569669867
Ni 1.0192648036200298 9.082462115394437 7.1037646782527615 -0.6745268574808253 -1.5064589644884183 -0.7060051305947648
Ni 6.387657624103818 1.734687495316332 4.9522041384590585 -0.7020525737049199 0.7938666675944392 0.32697078856515305
Ni 4.974963125788036 2.6455007606023546 10.663196766898977 -0.3020799388607443 -0.38582359703730323 -0.5865005127685124
Ni 6.288300049619525 8.643877463742264 4.654086037793485 -0.23234442203781921 -0.25393911748945946 0.20504624844349847
Ni 6.405113960006782 7.656515618841444 2.467312780950748 1.7806110665906432 1.2184550441047661 -0.40115945606342523
Ni 2.068395221715952 1.5070791007152535 5.696476550706289 0.09243655796486662 -0.04283200756386172 -0.6027619689326974
Ni 4.4040714868437485 0.813173542425071 6.321880113077209 -0.22520858232398633 0.6617402472391184 0.5753172424581834
Ni 8.239835057669962 8.592499346188077 1.1319410530622238 0.20582734958389712 0.2672957413020235 -0.3084480471706172
Ni 4.212375914858952 3.7932571613861064 0.45661051787769846 0.736771465243344 1.1732151984303603 1.3207466404868413
Ni 4.020559954350688 7.501621892415468 10.47425531390492 -0.14101189577040876 -0.284632175697942 0.37493188982546394
Ni 8.195856203981275 3.932972673199373 0.00049081474952629 0.21015940130034771 0.919202804500804 0.1474838766479976
Ni 4.050712649151774 7.943920066983866 5.3512170824470635 0.03548250917732599 -1.4898295834618536 1.0270762658460313
Ni 3.0553032944898524 8.726602900676573 0.4759671403203371 -0.06727908486263252 -0.5015296670530717 -0.32366075035531355
Ni -0.0548536416201712 4.5991935014195775 2.4233570789011907 0.01762002707460836 -0.19615331682924284 -0.022820597438941343
P 6.692073896677935 1.6128913521886004 9.604256536271487 -0.19974360528366247 -0.8069651526496102 -1.3319070279790353
P 5.631608436064652 5.409334179118802 13.324749948007538 -0.00193398379791925 -0.3032899000084454 -0.8314417976347358
P 2.871349630629659 1.2747848143545466 3.443559060873146 0.7140891931544799 -0.14181690817020737 0.836333064288766
P -0.13025760419645166 7.157394061195812 8.018517426452906 1.744414562065428 0.004157473811799291 -1.1335304782462283
P 6.258295525308861 7.3000266795392825 9.789972502902149 -0.5891472063627402 1.3890842485209756 -1.07640030889214
P 5.26353441654254 2.9763747263726343 6.50797576658958 0.8516997765528235 -1.0511765013283445 -0.3704072624822331
P 1.6797347646806902 4.109147386312356 0.979654201202128 0.7178180640692928 -0.5534572091602984 -0.4175067870731971
P 1.0210984134390149 0.579938373450178 0.5709240512390668 0.319068760109257 -0.00016789303643196892 -0.5123889783650789
Ni 2.45149928536035 3.2340987731521933 10.672237018945912 1.704957127400754 0.26853475591544723 -1.2254193912377411
Ni 8.559485108790698 1.8405738320348906 6.230676545894007 0.0567802422138377 1.953164227502443 0.3712492987675542
Ni 1.7408180493575849 5.502718630707917 10.203339463149886 0.11593515530743904 1.116478150749632 0.6376027307609664
Ni 2.631035616474806 2.625090275546582 12.877755694958296 -0.8971543093411969 -0.1454979565662204 -1.089845378653452
Ni 6.8288445199940435 4.574106385259828 6.042887118462989 -1.1408884612731964 -1.1608291660611814 0.6070564825429933
Ni 6.764121797646134 5.192671879497725 1.6598113901121834 -0.23348779161364303 0.015368769146586435 -0.09810712598708266
Ni 0.5655834311248816 2.3090055768516513 3.683829549946438 -0.21908550014538397 2.0494479271275416 1.6023109758927372
Ni 7.937687645730448 5.8917309926579335 9.159092188778967 0.22524354932697982 -1.5741208866117664 0.6311482333848742
Ni 0.020998536689638917 2.3937590973736254 1.2046399781227186 0.9517133755339996 -0.9054512592426666 0.7401416672671575
Ni 2.178152512496812 4.430992212822483 7.93220626365036 0.018299055419503968 0.9157603544781584 1.2317041958051884
Ni 1.7180460971106952 6.435785251524349 6.616270799843077 -0.5592064529392498 0.6663888017547233 1.2164210443938728
Ni 5.254023723188511 0.11836136594661255 0.7839145008943481 1.6510711760155758 1.0412237609910067 0.12814018201406316
Ni 8.95105341170051 4.601480883365483 7.068727913661106 0.9592253676403287 -0.0759187628155015 -0.008264039781005122
Ni 3.8875213752621085 2.9402396480207176 4.644042856739499 1.0098401044734027 -0.7134860123528423 0.2937346522198425
Ni 5.76586942169922 5.54867000405036 8.259817700434638 0.15381007597634155 -0.09485030961268182 -0.08953326827514257
Ni 6.166522427803097 9.332981372077176 11.122781807371918 -0.2879023618087816 -0.10349872931629917 0.061476876358558634
Ni 5.9816612196890615 5.5524298302448445 10.877971744898291 0.682309843860354 -1.2917209426784528 0.7503170651382627
Ni 8.520284753418153 0.47496143311659084 11.04319388057232 1.3296439429764713 -0.31575846478910136 -0.7491243303817421
Ni 8.905518767862382 1.2286019246208184 8.709699425916 -0.05232040667027118 2.113020252562548 -0.08382516214677176
Ni 5.419372729844962 8.0811629837382 7.343614733559478 -0.1421429240510584 -1.4086570284465805 0.9876663965898411
Ni 4.111258815800885 8.511987205954464 3.112911981166327 -1.4204743327964826 3.306118820180396 -0.30969914596889886
Ni 6.954252318825837 3.4603736333394646 8.18893108568513 -0.010183882511537299 -1.237248008441553 0.42339229931969663
Ni 0.9936590907437999 0.36248521383646803 2.7548579910590725 0.6413891943865921 -1.6420448041472495 -0.9201829090258863
Ni 5.309495050540634 7.529329774124575 12.53672556813508 0.3732920402291959 -0.9117684597099458 0.8516635239982493
P 5.215499395678524 4.005881815143156 2.8610258517094347 -0.16225666408179798 0.7851562843046349 -0.1611804002984837
P 4.22580386555354 4.44924496511147 9.61657691255016 -0.6443189664388774 0.5985654143528465 -0.5964254851917082
P 4.696495210349251 7.330559061222078 1.4192973457952591 -1.080941648405919 -0.07717397537884128 -1.2462985486795954
P 0.16510637747838336 0.45373415823236135 5.031683715587537 0.27190444371862854 -2.2678993932333524 -1.3001423339729286
P 0.19370513426115865 6.685452527887156 1.9006236275410844 -2.197391259910461 0.45260774454138825 0.0901845287058963
P 7.052757912990199 0.7649153397598549 2.32057769215369 -0.40816468373666476 0.0916739687672292 0.35251264158999934
P 1.484205281256198 1.37266068393461 10.79869497612858 -0.5771612376454576 -1.082696940534129 0.4077720762839364
P 8.73139992030402 4.807437865053496 11.277608857077205 -0.30136080130653264 0.8205542041879547 -0.7021793290907714
