# total energy = -340877.5130937875 ev
CRYSTAL
PRIMVEC
9.17788425771576 0.00000000000000 0.00000000000000

0.00000000000000 9.17788425771576 0.00000000000000

0.00000000000000 0.00000000000000 13.43276132592336

PRIMCOORD
 96 1
Ni 8.320376303283991 4.062131634729545 10.211719844144481 0.6952437783132027 0.33057187565285 0.7265824405254842
Ni 8.666942396051777 3.252458673103154 6.004122412854136 0.4370255738324151 -0.042274078177862676 0.3562687661983219
Ni 8.238188348496365 0.8974557547432775 6.898381510461453 -0.7343338023361289 -0.21510543245171343 -0.9364196825997227
Ni 8.601862017782759 4.8725296492234085 1.7200383285644503 0.7839743481813918 -0.5067150679087531 0.012238193937404728
Ni 4.063113668360173 7.952132047567195 11.430648437921892 0.7386254877329472 -0.20945877568889734 -0.4763757934952635
Ni 5.151307887824651 8.22151213254448 0.23314029064178443 1.309916125530241 1.9219605482061286 0.6153506042309854
Ni 2.572808799748823 6.321093499590859 10.060789535212878 -0.42302977377395534 -0.3657201414192089 0.3006200664857661
Ni 6.099007052918502 0.7952122869682796 8.170490437596925 0.05008457536121697 -1.1074355809313896 0.343436390320344
Ni 0.0391115543637595 2.945944867849963 12.50603491970841 -0.43849727328193516 0.8627503779400302 -1.3895156796314392
Ni 1.9248593391065476 0.9666973857985275 6.2836715937448435 -2.2928336945811867 -1.2425851043837504 -0.760251036422523
Ni 3.8980035280330507 3.7711468098784375 9.636394064958262 -0.10686096092031273 0.4103475503205965 -0.07532895175030252
Ni 1.6575259223501035 7.645076747134498 12.178477143318139 0.5864344354172675 -1.6661524958287306 0.6513951565593684
Ni 1.2268445190710284 4.405641491992666 8.73873639675822 -0.7013802302282437 -0.05187200627894293 -1.3573995158231849
Ni 3.57547431450466 2.517869983740032 6.029846187245957 1.3681161309097407 1.081893470796227 0.6316951070272797
Ni 5.5217181242594675 7.683256746231821 4.391935239432103 -0.9393522828654856 -0.2454886727292611 -0.792754408366867
Ni 1.7773523810555463 4.151157113393975 10.905078723424692 -0.8279774932352192 -1.0527806125906707 1.0413818838354258
Ni 3.0985547296264717 0.4261814865585421 12.693220625378993 1.399936617854447 0.64136476890656 1.2508092920657556
Ni 7.701750183294586 7.694655678654627 5.537924432530153 -0.32388495055097766 -0.6111687049391539 0.04814262114349773
Ni 0.019535126941983366 5.9154493649506055 6.918436105660386 -0.36918778825283516 -0.06146402084275221 0.7478282372781379
Ni 7.851450655716804 0.6064103558551407 13.264247483513001 -0.3938017301467734 -0.7406078082702987 -0.003974411266715735
Ni 7.9309494903757 0.9729842366114279 4.546935940094394 -0.34416504095625244 1.2423323649429958 -0.35191228900183913
Ni 0.3666142634476402 8.370111258838891 7.232682278519225 1.1786499962926862 -2.0622805601158354 0.03655234520273704
Ni 2.2201944811624945 2.823677091894547 13.044514246400393 1.1447942240855058 -0.1388457413570254 0.24945768467933813
Ni 7.4778281597425496 7.2145789015433905 0.8771487677233892 0.17730841620859786 0.8489330124409636 -0.621234316705272
P 7.8128668297059525 2.248801946832291 2.5626351148932023 0.5579525259274907 -1.3308217653346563 0.5972361540184616
P 8.408401392548994 5.6115329009821595 4.9761663198500825 0.5782801817412493 -1.074703380805691 -0.974116168709232
P 7.1747835947919505 2.842418331836069 11.782520265660391 1.0260377972791876 -0.7661506897364095 -0.06682657070624619
P 7.781652844867011 5.289462581673688 8.460087566326996 0.27670906419612346 -0.6758928845904166 -0.4610160232097415
P 4.381301742568123 9.060664458858517 9.49250227557179 -0.9188947863420819 1.0599899858549164 0.06584492351926724
P 3.3637864108556834 7.15203161936833 0.09112721419166211 -1.0851870539458341 0.2977376027316485 0.740240654738867
P 6.088993981039852 8.307664933392212 2.286565269977926 0.3657301687215379 0.2623332550904256 0.6361695978588656
P 8.45760403080879 8.938883110776215 9.135339397477615 -1.5327726626822828 -0.6267711873631012 -0.4366504498811835
Ni 4.9002560379909585 1.0925996039757075 1.7149207402239055 0.7664887898021187 -0.8301001960051768 6.633446156117609e-05
Ni 7.372677138190141 3.023874284276733 0.5471579341791037 -0.0702260833060984 -0.014191203898717496 -1.197321090339628
Ni 6.549072148046986 5.152840594519183 6.087620051745413 0.1132511807173727 0.05545715252703998 -0.1018398535566375
Ni 4.755144507767939 6.9743844889530004 9.349282307323278 0.1473308960099011 0.6565977838062305 -1.2277812066016984
Ni 2.498908474572948 5.846101270436334 1.715739407512242 3.8053779460317365 -1.307109509319381 1.211751149722029
Ni 8.362704706129387 8.511845327603302 2.9799369982962975 -0.44846441179697605 -0.341060948109632 -1.0359308880231837
Ni 3.6191151548190272 3.631615433369641 1.4200848750792314 0.14878254085476314 0.36548539970058347 -0.28758097391362086
Ni 0.407467780270215 1.9841117607825844 1.209478126212386 -1.4420361181276584 -0.8883320830638765 -0.15286750955741416
Ni 6.233316213204611 2.6213781639851286 9.810322316615364 -0.6896189759272575 -0.04432093340456238 0.3912285701029585
Ni 5.735122292290944 0.9299399587829562 12.113784989559175 0.3514674881549366 0.75205924464035 0.6611869458388097
Ni 8.069058294802746 2.5358035698544956 8.382620715273903 -0.031692446007274444 1.6782243393916003 -0.3173705464712276
Ni 0.9248186992886518 5.049754596956412 3.628659236804918 -0.05787733193275839 0.12532508116277127 -1.0211704418845575
Ni 0.7882949154972095 2.195001188488901 3.626321629648647 -0.17067779826595766 0.9648036330590546 0.5496890003671178
Ni 3.0786570762507517 1.5248412476025097 8.444572352751509 1.4509899848868366 0.3570331551681722 -0.026256619703683814
Ni 3.8985542010969545 7.871219818710946 2.313081095793329 0.3658150151258603 -0.0019509530787837368 -0.3972935453501158
Ni 1.8985371666519513 9.117438851746986 10.112907987346043 1.4070755428920736 -1.5708982659094106 1.0648298304457209
Ni 0.7528921442188414 1.1009881903158403 8.591312039666803 0.5291230032903081 2.4259798144502733 -0.7819539753172533
Ni 3.1853040929600995 5.298429374730921 12.45899367322444 0.36861314669628775 -1.027073951853186 -0.45180684590664766
Ni 6.345864609582127 2.0539646389387674 6.1630448235198605 -0.3907081788231142 1.0737086209925895 -0.30676140349681363
Ni 7.182896844600132 6.363724772621403 3.290636836623597 1.0332818804361108 -0.11498976067503422 -0.5594131696334173
Ni 3.2951174797868936 4.9291847296147 7.631903729657481 -0.3096790913642409 0.13515260877615434 0.4090082626838827
Ni 1.7592719487907085 8.47898850145705 3.2594329474574946 -0.41208381628541285 -0.6239982526036544 0.2716229079224677
Ni 7.391179753137304 3.853729413695194 3.9197064712699348 0.6444287525438643 0.36794286010214056 1.3716367424684894
Ni 2.5510663916090257 1.222971451854906 1.93422353455823 0.10860853973903876 0.08042822065008084 -1.3077144898932316
P 2.6737288165935724 1.1007128537838884 4.012715151763268 1.6700225203070982 0.7491574976125227 1.917006546634963
P 1.4304834181026127 3.7135739410473065 1.7884778125232803 1.151480634966746 1.2123497025379766 0.4342999473711359
P 6.743358782876606 7.8158221084822355 12.17047127475742 -0.11709703682602415 0.13774916585873695 0.9466300474738212
P 1.6728438114110245 2.8912171431823346 7.200336660533962 -0.9008759811671582 0.4233961559744386 0.31376663117005316
P 1.5679864821593636 1.8480496245763816 10.981779221130518 0.6916439767770863 2.1480975558816553 -0.4801681706581601
P 5.933860201053784 8.861256564534592 6.1881243104269155 0.5174411960770056 0.7705511327969503 0.3235177970195461
P 6.657545563751614 5.234477876242905 1.0742475063326773 -2.116025872158091 -0.9400495660428263 0.8708853483423389
P 5.083373187507733 2.6685616676772765 7.8322532749206815 -0.9686651728969898 1.5345302688033378 0.5084508196529373
Ni 8.525492841703716 1.3365477712850418 10.726556940626198 -0.7366999885754603 0.4979062113678715 -0.491176863063838
Ni 0.8742779254835713 0.5561430830051322 12.484905594246426 -1.066039791593422 0.39931674642773163 1.2771661847927296
Ni 5.886126024297734 3.1813117132467976 2.1993322321365034 -1.449871040791045 0.3768946699787896 1.2756965422257385
Ni 5.070248812818028 5.386527887071112 2.833184462342844 -1.0984110088352759 0.2905122886278029 0.15332079504474885
Ni 3.340713209478119 3.2910241433452097 3.776459887156668 -0.7224036265574462 0.17935989942098787 -0.4540303359205277
Ni 8.743072947136461 8.04729753089415 11.170348951768378 -1.1870737015800072 0.8356080131972835 1.980688658174957
Ni 0.7261780761004336 6.905678846346617 1.7386428180284363 -3.0240839728959856 1.347762506954053 -0.07564699721135358
Ni 1.9643334199040436 7.226904800290435 5.7511294404701845 0.7710452988245495 -0.8380418194497568 -1.2889186973429674
Ni 6.681105193002294 7.327751394059997 7.818901288697897 2.3611131956838753 0.4208322519020043 0.9233854751235838
Ni 5.078949447227707 1.5574594487544047 4.184184648190038 -0.19765998328175638 0.049041478808683286 -0.5225075548563195
Ni 6.921593297893434 6.08163331775234 10.276277083002789 -0.3374336357696898 0.9315770097954408 1.0738070942436668
Ni 3.8705524757974517 5.22912716963864 5.468679130321144 0.5738193177564183 0.6658419281123178 -0.9161089960668286
Ni 1.2162991298972727 5.368612656725445 13.345878340717645 -2.74376353719952 -1.3147675400852712 0.17400891952171965
Ni 3.9938481748054873 1.8495089081957263 10.866808781060268 -1.5784729929328751 -1.1092682632647541 -0.24968291331626677
Ni 0.16717975325896073 6.898042846527152 9.421738951283286 0.2680231063863513 -1.8340136505814995 -2.036444572889338
Ni 1.6596184799929374 4.417866434011328 5.644056569924751 0.24158059592410652 -0.04878642537508372 1.2859243906013338
Ni 5.266563760099693 3.652871413636323 11.950039600642091 -0.6933812711831672 0.6121938037695586 0.5879141052865875
Ni 4.7293454747240515 7.00057817102602 6.904157153113363 -1.0364222258373055 -0.5177980651957921 -1.3616202387727518
Ni 5.241976207796394 6.064544097002528 12.835701773933433 2.890338014659371 -0.09643153805687263 0.3355068510606222
Ni 7.7214183895603465 5.18858845425093 12.554487724812855 -0.09674906929729145 -0.5962251962554441 0.01051375504713028
Ni 2.912941195553335 8.215473084610338 7.729493092254054 1.601030823628733 3.804430494516803 1.1195560183440072
Ni 3.868028557587893 9.030634421106969 5.61197986395236 -0.17375772274286205 0.04072036053749761 -0.7566990574052065
Ni 6.507560576913047 8.80500531105683 10.291671148504216 0.06315889204667187 -0.21967042611457654 -1.2885260898902389
Ni 5.634092140833413 5.0473224575908375 8.394575827491254 0.0961857405946537 -1.5677638340454871 -0.2787973141837199
P 0.32300095678646806 8.570225850261492 4.884595813841979 0.5643242337817894 0.8044300449325823 0.8988646071640842
P 1.9138825893660674 6.598449166110351 8.012064550477152 -1.8347934661703176 -2.9779146734287747 -0.19088795466524544
P 4.658740010047199 5.478380154130247 10.829895330009924 0.009684831387931707 -0.3556198197604134 -0.87805384106632
P 5.3070106966434185 3.9548788776499033 4.592177403447841 0.3886659515821048 -1.557158547725815 -0.47453102697704075
P 0.3030151957205235 5.938311474987007 11.507323237551404 0.5359374551089802 -0.390927751033088 -1.06523966428963
P 4.355998315281749 2.22902360595375 13.40744083589676 -0.24437949882548235 -0.7281639260799911 -0.6406960249743096
P 0.4108342282675463 8.9149471882652 1.1069740065204734 0.3310367311044105 -0.10420475424438827 -0.02724135221445631
P 3.2397473032113777 6.50021826939433 3.848647619103803 -0.862701784090282 0.5244546512803613 -0.03936461784055156
