# total energy = -381174.1823035289 ev
CRYSTAL
PRIMVEC
9.13950929868232 0.00000000000000 0.00000000000000

0.00000000000000 9.13950929868232 0.00000000000000

0.00000000000000 0.00000000000000 13.37659569437930

PRIMCOORD
 96 1
Ni 3.5022872659559856 2.4899221334402886 5.2282287028763434 0.25660843679150647 -0.037707027632470545 1.2640335040655133
Ni 7.580354459177574 7.2633780081636585 3.1892609107303236 -0.49602673495697147 -0.30754070486499935 1.7819197580997375
Ni 7.406520998065624 8.273165799142365 7.147676394023452 1.358761686278034 0.3844724823260475 0.0621744166462155
Ni 4.4124269903467 6.388233463720245 7.972290421127447 -0.5978123382369058 -1.0226429126650258 0.5086778480620788
Ni 2.0588206335880486 1.6782149209410417 11.120044251750517 0.07070430849409759 0.549359384941841 -0.45847063108006847
Ni 6.791532577205369 3.7237741269752815 2.985735926741696 -0.36935156752420906 0.5460614309168595 -0.44735626633446185
Ni 1.376931006873983 6.364973413324352 5.735776711778258 0.24110597028053318 -2.206216571511575 -0.9382382238657003
Ni 0.10039567842389883 3.846965568738057 8.004206500493853 1.0480436121263177 -0.4124609971191735 -2.625638059108981
Ni 2.844800128262367 0.6203560544938538 6.682505546485249 -0.19739541676646005 -0.672590302579745 -0.07870583864233542
Ni 3.010572542439473 4.72438585092158 0.519934785444765 -0.574422755668372 -0.6446552667323736 0.8933405920220615
Ni 9.075952850861103 5.430815059291039 0.058864835593256615 -1.4449016126009115 2.4381282768873493 0.020366736581810083
Ni 4.674054574878282 0.8851705858124889 10.937654382316117 -1.037989056103793 0.6183076299767803 1.59702967288914
Ni 2.53610407239921 3.1966895036426157 3.2117203401381316 0.6838190814160288 -1.563748799348823 -0.9488399106409464
Ni 3.769855531335242 5.04119779077356 5.972021137974077 0.8117998550340924 -1.740811675205518 1.605185726337371
Ni 9.50527214645904 2.7003684675919066 12.396237762564136 -1.9720559222006229 -0.7157524397895156 0.4895840646554213
Ni 1.4301960653051318 4.717247894395374 12.052232127644201 1.65526618793353 0.23874698313005335 -1.8901009804933708
Ni 6.3751274078193765 0.09610102314648004 3.297357539434608 0.2819705697053789 1.2811827621512903 2.950536795636454
Ni 8.86748979016171 0.25968086911534466 11.349037391508576 1.986089517475554 1.6985640793902166 -1.1959560916713017
Ni 1.401735634290273 0.17879804239880726 9.052503612628984 -0.8554746702142233 -0.05856664469029913 -0.4723093367353737
Ni 0.8824241633590639 4.387101410917614 3.9914557222660942 0.17072176413001566 1.0864453518329678 1.793509519819866
Ni 0.4336002416118617 7.159918766324159 11.239857730988216 -0.4705188204938542 -0.4717853459111036 0.6007768201818685
Ni 3.52766768243905 7.427669821883344 5.8967243791561526 -0.039953657574802154 0.7072269188170078 -0.7207866597793134
Ni 5.875415613930994 1.0380654318136362 12.996124972709604 -0.8628632493688108 -0.7093593917789783 -1.1992249922305604
Ni 6.479089322653679 8.060599098903577 1.3736161069609807 -0.6235326258211454 -0.603939019959934 -1.8967071729559786
P 8.017579430057419 1.189781281154245 -0.13562026004700975 0.8575459509209553 0.10345399212129279 0.30109829167376534
Ni 5.572541425298559 5.639872188075201 4.373744932470243 0.2038974795510359 -0.10318839716473198 0.20734455755937192
P 4.802199630517118 8.275441536882473 12.7225465662143 0.30389385214103143 -0.264265439116132 -0.7945642078820961
Ni 3.226785906767834 0.6395883232750251 13.172949795116082 1.4893940385863318 0.11845612195707984 -0.7919182856188167
P 2.1788680842560546 2.7159513304308063 0.1473032943971363 0.9269297408314165 -0.9265332767239461 0.017198366156157475
P 5.794987934762479 3.767049702073341 11.460157369788876 0.536081179775696 0.49333247595426005 -0.1602853992880401
P 2.273169538081139 7.510556028971899 8.15339618954785 0.3730156466393576 0.06905134627170689 -0.4551878465637386
Ni 4.424655653383913 4.489582725294496 2.59909905210795 -0.624095440303151 0.42571426258465395 -1.0332407427855304
Ni 6.570246785383993 1.1153491198873826 6.296082536362019 2.4506163820520315 -1.0060911789539317 -2.547736461535496
Ni 6.668688436784459 6.497313503592545 12.870237375792884 0.16260247745699094 0.854471939981322 -1.3292806460997817
Ni 4.700138733554072 3.08149513225171 9.447769097706251 1.2720216644773126 0.05990310411353555 -0.016107189974507743
Ni 1.3690527501190672 7.999867061622352 3.9007625465927975 -0.7487188674132073 -0.8119710905046339 1.5174445169656448
Ni 4.214702852718101 6.668642739239476 0.6836727449192677 0.8804657929419223 1.2387287067521375 1.165732774010386
Ni 0.5436015439910004 5.385007840200971 9.587193221397573 0.13918024187830869 -0.27206025257020244 0.9562272042439532
Ni 0.856362853455766 3.9439174801721038 1.4385194161481734 1.2691003770654594 -0.6585659632761949 0.15455826699627576
Ni 4.058380690843296 5.537372594680326 11.953780422783842 -0.9356506656441822 0.3618066652974156 -0.268828375896466
Ni 8.400671089151452 8.085769306679722 13.158837479274707 0.10346427653393793 -0.112064102387807 0.8077169432139703
Ni 7.681930962163811 3.7372183447090186 0.8031508041767965 0.5025624791929603 -1.167522776031273 -0.6871165212203779
Ni 9.135140311121935 2.6050159702322335 9.878575391417908 0.5621948461436125 -0.80132209543122 0.48959692017122775
Ni 0.7557423431105551 8.370391895846303 6.650816126941955 0.28354665594324713 0.5080718390469637 0.9220035071743928
Ni 8.753721182174246 6.1924194834719 7.325224151591549 2.0118758824110388 -0.08599928697995513 -0.1637144795742471
Ni 4.867227237026663 2.3934363369650593 3.412931200448865 0.1765190875380831 -2.0169155017174747 -0.7256607000421631
Ni 8.672955341172862 7.785938574543096 9.091375772292567 0.3411884748264318 1.3255839139744847 -0.02022352613572646
Ni 3.8427613945997026 3.111929697209796 11.91763640655569 -0.5329778582600241 -0.666267959906143 0.4879930660192176
Ni 4.5240569532290005 7.56432376039785 10.563697662464007 0.5402342827121213 0.29345414486494625 0.7441613299495119
Ni 2.2469025892254217 5.331368061900968 7.817028442296226 -0.9280468851549952 -0.17795736264650644 0.6614905931221575
Ni 7.189046381495757 2.567224100532028 8.174972742386604 -0.8091210226503485 1.4989528859193606 -0.21248162167562115
Ni 2.5485886416883226 2.772762518352567 7.947972015589766 -1.0199671656050757 0.9862132090830821 -1.356270287314748
Ni 7.848142072772746 4.900933746205468 4.839598501330478 -0.0015925412981004832 1.461672147191031 0.6476068931615298
Ni 6.633949163089057 1.553369228049914 1.593233024439609 1.5274229683345955 1.467766690124543 1.1077893647263826
Ni 4.672720206564804 7.639030106934606 3.3202319025508533 -1.2019516471331042 -0.6667706105741743 0.06320800011705242
Ni 6.7021938767653415 8.731694965492867 11.103069441691463 -0.5619349076140063 -1.7182026795567504 0.3209369236662473
P 1.6159383066394206 0.8670515092270817 3.2630331994476443 -0.23925143357029766 1.1208827075752308 -0.7234865752089799
Ni 8.475861829665016 5.2670807556201344 2.609800503191861 -0.28806871218331676 -0.18034874569681844 -1.26528228887095
P 7.073760615014887 2.0382567383460986 4.078216167218231 0.7631741236065889 -1.7652564385114435 1.1742981470818936
Ni 2.6490501245769957 3.956977838527991 9.972385139658984 -1.058969772120518 0.6814793775392586 0.5173149549117865
P 5.331377201409965 4.176088427208218 7.605543859922614 0.4264233728365366 0.27994351197302114 -0.2218124121582438
P 7.70543777930261 0.7752168088801317 9.34015412112608 4.1073223877558815 -0.5253864190660114 0.036335601206240645
P 7.690202217805573 6.448334874880718 10.432527429347356 -0.8277646058934648 1.1546932283667726 2.6558346372970196
Ni 7.061010999964878 1.9879254623028015 11.058979536341823 -0.06007613935629008 1.1653764191122316 0.3981607784464175
Ni 3.453016172956273 1.1240956299969587 9.016266373409069 0.21982057853919562 -1.2189037016064104 0.6539405486890415
Ni 2.6764503725482696 8.6485894101884 10.856645430375428 -1.5964696866206118 0.21160461838730657 1.3163960768276297
Ni 1.8663608531413896 7.181360054429766 13.014129805432555 0.7735878627407451 0.04319196200644174 0.836304782153992
Ni 0.22632257522930319 7.2883014491969025 1.7983364016319185 1.5278811389179363 -0.319332812403921 -1.0861908126200004
Ni 5.638281913509824 4.625505503089287 0.18011687354699096 -0.8878325177196388 -0.9109824734735408 0.3283815528697506
Ni 4.571098006033586 0.3560505938263195 1.8971756216737268 -0.4521094647487311 0.7403627821390281 -0.845030592062764
Ni 1.2204717523642308 2.084977908335809 5.1558209428521895 2.2207008811706785 -1.9536730488180611 -0.7607238622938834
Ni 4.5791499134594345 2.616193589734858 0.8871639127246086 -1.0445767366236398 0.3396527549081957 0.452685134746543
Ni 4.894499531871986 1.8516462436571497 7.151556115592433 -3.625157498382666 2.5549275799672966 1.3502685612053584
Ni 9.135158590139927 2.4476793228588254 2.994203681826881 -0.8087914072250717 1.1988300707849868 0.7299122762296655
Ni 7.98604812401976 4.457347677064115 11.33947380929472 -0.4333427256641892 -0.08770958480284248 0.6343849951546171
Ni 8.445089102874062 2.758431768246177 5.6568954375319365 -2.94410569529913 1.59677796188965 0.9721497890114806
Ni 8.55412344520138 0.41183450093688223 5.0305091350022435 -0.33641265070434323 -0.7332446830370082 -1.0741472511919048
Ni 2.388391327999034 6.3983509001792855 10.326972498094976 1.795378968928437 0.03289289407327883 -0.6238211035958419
Ni 6.697203704853295 5.911315605268941 6.771085667678573 -2.84812487162643 -0.8684548845239752 -0.07119616052885158
Ni 5.311663280504683 5.513756103433571 10.102673410157482 0.9025112027777359 -1.980591984696092 -0.6096520111843113
Ni -0.074068408808805 1.3750117099847343 7.4594853666507905 0.4865365360783491 -0.6103102135936006 0.4440876228855191
Ni 5.750350572823953 3.3917631836622517 5.38117655802967 0.7641259459968969 0.6752418812699791 0.9831587385274746
Ni 2.532439129291645 8.448114280351879 1.925159884269872 0.25120912015280605 0.10493263354934831 -0.7280096598903141
Ni 7.534446705488546 5.088970004297859 8.961168843424138 -2.529234546076567 -1.762222022560494 -1.6598016139100382
Ni 5.772395068523323 0.7813238287915409 8.984590663129268 -1.0375445123672067 -0.8551131731097467 -0.06346665309507779
Ni 8.69980721860435 0.4016905599017531 2.3862243504159824 -0.4170804981690559 -2.377641532356202 -0.6750984137135793
Ni 1.1390478667151054 0.5562049268970666 0.4773291363561435 -2.0702023860660734 0.541029782030223 -0.06352038915114867
Ni 3.0733518297358975 5.740096043729967 4.081627031975695 -1.1347129285901039 0.9651689868182731 -2.369677283203803
P 6.138432403830033 5.671494889202822 2.1621665455159924 0.867168561612384 2.0832155104962897 -0.7039071104151554
Ni 5.045018105534064 8.463788538280744 7.343737141014702 -0.6834534705464939 1.3307783136912308 -0.6655495936828796
P 8.530808557751508 7.192619929513358 5.153574451540868 0.056976417385043804 -0.0815106550809822 0.8301696157905315
Ni 6.223247047316831 7.392208526977226 9.055446534525831 1.5470137459823294 0.013359709136357636 -0.48531706184895124
P 2.3083749267353575 6.284171014286983 2.015438126234731 -0.17203534073511662 -0.438358947931858 -0.12262310885057591
P 4.487508056752309 0.24369952368420075 4.788206128292697 0.13926354562073434 -0.1296743592704025 0.668689424863442
P 1.6027317161395904 3.84621612900035 6.243833791331272 0.20176089282400736 1.3841353891561325 -0.04431373431571078
Ni 6.126459647044721 7.772293287611438 5.322078664957005 -0.12782727875933467 0.3885847047222082 -0.8241388362154194
