# total energy = -340866.74955606816 ev
CRYSTAL
PRIMVEC
9.30383847383245 0.00000000000000 0.00000000000000

0.00000000000000 9.30383847383245 0.00000000000000

0.00000000000000 0.00000000000000 13.61710805286036

PRIMCOORD
 96 1
Ni 6.742826792155806 3.2587066949340717 10.274026173604716 1.2256109384232567 0.14174825971580104 1.991418642997951
Ni 3.940640851037607 1.9376732557719238 0.8538188532268488 0.6762476968266742 -0.4086537075579414 -0.007946251430270185
Ni 6.105802265111315 2.993891536055348 8.058822202700702 -0.27825635407858534 0.9908519934066741 -2.352412325475768
Ni 6.034962837795059 5.64872328097774 13.256663786455212 -0.2595243248867208 0.9239282350009315 0.4285489038199716
Ni 1.109091995208337 5.965463163241284 3.9606720156044446 -0.42589295425436324 -0.9369971523697476 -0.23096451097115708
Ni 4.224147421720685 3.2803753350994986 10.164817715785144 0.6486294208887733 0.2572872080260859 -0.7385277858128183
Ni 6.013833820270076 1.2602421575645095 9.462351848596565 -2.709925505604152 -0.3130467222848931 1.0374776636850132
Ni 5.082556788926763 9.023513970477733 3.8987010072687314 -1.6732605676284213 -0.7272830661369345 0.3025602209312725
Ni 8.221337003941404 7.133066999583314 8.806660099728154 -1.3425526806183394 -0.1438820182293522 0.016060395896972342
Ni 2.2462536715584056 3.542883141998392 8.302201317379707 0.00994322725564094 1.0071247624247688 -0.17545593638089138
Ni 2.480831354894992 3.8804450151121834 0.7044894520902443 1.3237615160537655 0.02500089291971178 -0.6441135352962907
Ni 4.543324909704858 7.326242601023743 1.778612039430065 0.04086665630737478 -0.8594537094666295 -0.21136859111710046
Ni 8.145668884377034 6.2580874957801464 3.884525678734578 -1.558996115155186 0.7744916055019371 -0.14807651592667403
Ni 0.4015118079257548 8.806427503762444 8.079425553343183 0.304898639256462 0.18600234443817 -1.0327884857394602
Ni 3.3589927715090555 7.068665828597877 7.587847935575686 1.4003755051640785 -0.3650472837219003 0.9377273456675527
Ni 5.870861732068223 1.8701366911687316 11.951477575628731 -0.2674003852006879 0.06641108043538241 1.4655342012495987
Ni 4.182615086083732 3.839777936467666 12.61081735962332 1.1059870214103211 -0.7562959084295169 0.8717479534529503
Ni -0.17022675307974142 4.0786819047664356 3.9904256915379075 -0.5034027157060685 -0.9220757551732248 0.3792433727166243
Ni 2.428627516351321 2.253519969527147 11.674791649044097 -0.3341963597793148 1.0907496356352764 -0.30189559076408007
Ni 3.7059887369919937 8.946999201598183 9.528830566747713 -0.2403500659511151 0.47491566400996915 -0.48043427983535325
Ni 0.890395034026481 8.729214946985769 1.2745803032746599 -0.7168780687535267 0.4187260041922789 1.1423028251222198
Ni 5.650556137187525 2.0309628456983884 5.538677477681618 -0.03930316847499683 -0.0735353501849895 0.18427250623125685
Ni 2.1711623899889934 0.2656059851621334 4.403718019934879 -1.231957706576891 -1.4135734919115914 -0.3611204378636684
Ni 1.0827342203742216 6.348371945829654 8.327597075299652 0.38871325988027244 -0.3428980013183708 0.052956497592373315
P 6.550665309125866 7.146148196694774 2.450207770049778 1.958307719376595 1.4300684042428211 -1.0377805396374127
P 2.584932005307599 4.569050023512245 10.416842887701474 -0.1538134184104512 -0.06525511245406826 -0.33760589968149596
P 6.024421588629138 2.9473537352363417 0.6188671555774028 -0.043767374893937526 -0.34587765277198496 -0.5536315299546336
P 7.488957434794955 9.422555609247663 8.82392709383851 0.9529387633006686 -4.892907274957502 1.7504314576834694
P 6.891018333828162 4.884580406754105 9.116095538284581 -0.23699220522247572 2.0358282794615774 -2.155595406920597
P 9.180348778235828 3.729927513782738 8.116763718526476 0.09588543574541551 -0.045623968486702075 -1.0055679594606102
P 0.02923080020254977 2.373241764996753 11.876243014944443 0.4720987633864644 -0.75139975667948 -0.7300020077299945
P 6.892181313656707 4.41447604854084 4.312619484005391 -0.48540679334928016 -0.4209111847690558 0.8430883807347287
Ni 7.749064851327733 0.4224091598688916 11.06767245050271 0.6524886467338633 0.2022406606739033 0.630811675981062
Ni 2.976316584886395 6.9673842412896585 4.118372080354976 3.259295689179271 1.6471163051328859 -0.5484628412695006
Ni 6.146925231848622 7.946659776116629 10.40859038283813 -0.03720951917076172 -0.2121098401584992 -0.4841783202588178
Ni 3.995245079947393 3.9508285543356503 3.997357051316028 0.3472508789704277 -0.7580599423084752 -1.0923498902428608
Ni 0.6556666285041152 7.248834663635872 13.278559440283171 -0.04775644144867259 -0.1603424777782206 -2.308055653737264
Ni 3.7104266680177167 1.6180491835335908 7.7325161135594875 0.8610868741946782 0.746296888235276 1.0385066191701597
Ni 3.100318146125043 9.220727437882868 2.208776879179549 -0.06889116654475877 -1.3120100319447923 -0.6345531453013653
Ni 4.725726666013658 4.492572469987209 1.633970842578286 0.4387641537900766 0.2758752554409184 -0.5622197858442769
Ni 5.189616060023185 8.817824706082174 12.507531725474555 0.6993845399544536 -0.3799421985558618 0.33847364699843
Ni 7.449099790111104 5.750051387479099 11.019086874801605 -0.20393321788497779 0.11175325601560752 0.5105935770275528
Ni 0.6078011699128434 4.5561362954960964 6.295951327845942 -0.8594249131112232 0.8620654360578637 -0.12965147645226704
Ni 5.5568292668455275 2.3438881541243095 2.8404470470934244 1.9115452664100756 0.7946644809053862 -0.157110086883852
Ni 5.3904673283320035 9.315654503407922 7.29902887303582 2.12583643049061 -0.5737694383550892 0.6258075378982513
Ni 1.1334866600918703 0.23878953108364045 12.156591862797061 -2.7600859285086274 0.6667132749736776 -0.8903817665040537
Ni 8.991592500143867 9.03137571411869 5.407639423288349 2.003119476374647 -0.610765041742832 0.454642772693546
Ni 2.870811054840907 8.190001675441122 12.241126540574246 0.9889943713726452 -1.7130085369503207 -1.5309700622559055
Ni 2.803255882560458 4.949493288864102 5.580100028022757 -1.0016220874389847 0.54846952613772 1.2378804998192294
Ni 2.0884419607443343 2.5267178870100135 3.3482700974898822 -0.9875280712397639 1.7398804216405002 -1.373661229097686
Ni 1.7062681814076046 7.25978528170144 6.107545804470267 -2.0471244212006874 -0.06630463676450517 -0.7835825120596117
Ni 1.9107293391042224 1.0989042919102936 9.175384249943741 -0.7188925280803942 0.587811261160136 0.5749171788062873
Ni 7.888213061853335 2.796957183809065 6.063208361486867 -0.6273882521218098 3.093812547740375 -0.046924175355364355
Ni 7.40537174855786 4.200543583120562 2.1484396249069744 -0.9203181490521699 0.3215100225608979 -0.5547502169401091
Ni 7.193048847220286 5.1415059104759875 6.446012010698736 3.0470701493785137 -1.0349947493621594 0.5414213610416869
Ni 0.3314715803476738 0.9891655152889064 2.9426711132546934 -0.43401584047181385 -0.15521955472935847 0.17168644203613012
P 0.7037051384938743 8.028059060276062 3.476924508426568 0.2872526440399246 0.4454060845866264 -0.11170337661427858
P 8.801859318995925 6.755991723814921 6.447877430343719 3.0628279264334024 -0.5350483676358075 1.045850975350373
P 4.142115476534525 6.741310266459385 13.227168757235615 0.13537912296466362 -0.2879854084408911 0.31321435821100896
P 1.4827341545228696 8.325735377190119 9.976056785773867 0.4997409505837651 0.4896977074151502 -0.39527728625103536
P 2.5837038986086567 0.23772052002524305 0.17273692874167024 1.4096852126007786 -0.4494404025570002 -0.27212067349449265
P 1.6469096909587322 0.9554204925838814 6.614033754023557 -0.563225601400972 -1.1216429827800232 1.9118651116433398
P 7.9426033024746685 1.585988155620297 4.32053146837494 -1.1133640306006827 -1.3583528808753895 -0.19884449050816075
P 2.7299137226531762 5.013550217820292 2.438170463632419 0.7890412211813378 0.8566890022372987 2.260719073434829
Ni 7.014880337487385 7.556345137980093 6.056399812378639 -0.8846384362623733 2.115219317096396 -2.273019230958421
Ni 8.301731473528974 6.390481119461565 0.938388885590824 -1.818776264806455 -1.0041530813909547 0.6794114392666364
Ni 0.5961276435858527 3.603888411884482 10.112432452388221 0.08072415462394485 0.3342434109671663 1.2285628219627291
Ni 2.353889780649786 6.7453016132309465 1.033497375969131 1.0105078199643887 -0.42552040140629294 0.5840314824027297
Ni 5.705281315999479 0.07694367584031665 1.4127339334508906 -0.812319217872672 0.315663848192766 0.3678808965159535
Ni 3.182619902631426 2.1039793712536787 5.490090971596648 -0.06734027711787112 1.0903644843817155 -0.4574434753671348
Ni 7.592071878312958 1.5195308362979933 1.773097654275042 -0.7527745255398197 0.9750823892772433 2.807091350723888
Ni 4.649230504811365 4.979684245213098 8.478120158932274 -0.5342901493135443 -0.06378521277676112 0.4503580292752631
Ni 0.5902243579761647 2.096992188443788 5.202892637745841 0.9719057913214746 0.32696564635883046 0.01593801138649513
Ni 2.2255340229330702 5.22240278734949 12.47000283159938 -0.7407173372649695 0.8901567949774412 -0.3530412603999597
Ni 7.7677469592934605 8.613326333031043 0.7972831474178178 0.2937022563200103 0.0047447137738369895 -0.2862244598857264
Ni 5.127308252729126 5.327852494363208 5.967602115741942 -1.4407109715583317 0.42196019485886044 -0.29543389429913636
Ni 7.266614299254649 8.745133814878876 4.020900414965068 0.4793988965923034 0.17395106970059074 -1.9864088484881857
Ni 7.770621845429621 0.8868102650029777 7.046240786351964 -0.9785922022027147 -0.6742437790227678 -2.1594811151282483
Ni 0.7334783524884569 4.944655292777361 1.6231188452021785 -1.4676831292718013 0.8852986955541915 0.010437393283240087
Ni 8.252895624568767 1.4547109925742796 13.414268021667871 0.2746236424220045 -0.10163802195847657 -2.386855337644986
Ni 3.4504215937098506 9.10495977383031 6.276602134650563 -0.7274229341489086 -0.2328244469980313 -0.4643216905442068
Ni 1.484632137603053 1.9465770293392546 0.3691056075993492 -2.6081054495418567 0.34719534314214395 0.3915957236343901
Ni 5.365877282837274 5.860813586349605 3.619005288887825 0.2335764946727074 0.136929498170919 0.5941325753924735
Ni 9.137188270838912 7.476443771839825 11.039880023752104 0.44293679711052747 -0.08925250380993016 -0.2832862031930089
Ni 8.824523469894586 1.7343378625493362 8.958600157983874 0.37150229531862466 1.237043862850547 1.098748851790669
Ni 4.45141228789539 5.697261407101842 11.155325774988121 0.1298795333026731 -0.3003827536639795 0.7754953641761031
Ni 7.389266803892186 3.848076960524154 12.665176897577178 0.9246656273875882 -0.7428505815578884 0.24143121483043578
Ni 6.056966416151106 6.748055549464938 7.803597440680081 -1.4861606192506984 -0.02724700864141114 2.8425910862923947
P 4.08502712271097 3.607693681883477 6.783635289147474 0.06621747636733757 -0.43037952927080714 0.5483903361603523
P 3.848281644973978 1.4379826907205064 3.3750279373850165 0.12333221910245855 0.6582036948407696 1.3893647558758717
P -0.07163955743829437 3.0760444311436776 2.069228603592929 1.0394373585145456 -2.0737474231048543 -0.5694705538694192
P 4.724479951637459 7.50296901576925 5.780489825935609 0.38458766774767317 -0.4333129008675183 -0.4877264426213923
P 4.264191143177104 7.0280452691465 9.639836526190281 1.227606371586731 -1.229653998144379 -2.0145290037631693
P 7.522600115275069 7.809865436764 12.397601289777423 -1.1163331405313355 0.22039907675048495 0.06883305961331371
P 4.164630766015131 1.3093850331994539 10.71569707058588 -0.32441896867757675 -1.0734548531105705 1.2385685270251894
P 9.212958732628195 5.343771362256315 12.5458774963813 -0.5246924783227803 0.06960027679664142 0.20470223484051844
