# total energy = -381171.72535543423 ev
CRYSTAL
PRIMVEC
9.20185443862778 0.00000000000000 0.00000000000000
0.00000000000000 9.20185443862778 0.00000000000000
0.00000000000000 0.00000000000000 13.46784410862862
PRIMCOORD
 96 1
Ni 9.272800836892682 2.596652928482472 11.871284934428296 -1.58660487801139 0.12327976859796833 -0.3691533354704739
Ni 6.728156790261255 6.967441815677851 2.245574572278836 -0.5584546623748897 -0.5142545708189079 1.8476602948306566
Ni 7.104807100227109 1.5168245002555822 12.106164111891903 1.030217125467858 -1.1688250397824644 -1.4136177148859652
Ni 0.7513065780532374 6.872497080550622 12.78375831397982 -0.15393323181776714 1.6331896677494646 1.467290264708757
Ni 1.408399048229596 8.101551983826772 6.735780526746321 -1.6080815598279274 1.015275416556361 1.3796637265380238
Ni 2.695830516697365 3.9887002811973287 5.1416595281827115 0.11111870775540217 0.5017520674765229 2.0926936251900536
Ni 5.380499183839648 7.232307996711203 0.3282973249229156 -0.34758075150602075 -1.1627451521369716 -1.3159978129479464
Ni 1.3828178926128396 3.2209067403676372 0.9526063479353108 -0.46152998673168255 -1.4561828419416858 -1.9494114453282299
Ni 3.464627059671742 6.526194486852417 8.133312184766064 -0.5517026883630369 0.02629904290584503 0.9696493911871301
Ni 2.2276125522198758 8.667420028665779 8.832683495804563 0.3287911296033434 0.6027874228539941 0.994894538907164
Ni 2.640030470776497 1.1160929369627306 1.3553503568157108 1.2560605131623659 0.1625582544826168 -0.9232245240656873
Ni 6.025355948036294 7.773855540005213 6.322182930437877 -0.8982498563982207 -1.1338179275796603 -0.13670684063715166
Ni 3.24397578969541 8.520935706268963 12.734290984352283 0.41295824847056617 0.7682242844359866 0.8926173407027916
Ni 6.010724999320236 0.18722737373649592 2.5677526639337143 -0.6036186605060379 0.23645484466176697 1.6709537738721156
Ni 3.8798239382989608 8.643587225411318 7.134980901443983 0.5053462125856845 -0.6252660635724845 -1.3509218785186412
Ni 7.313413142612674 3.698160926001836 10.148976581032029 -0.544780507321907 0.6836054227433259 1.2556414233470763
Ni 6.481289436705017 6.383409309980039 10.087967365256972 0.8020008666657995 0.5778181545031661 -1.7237840302992702
Ni 6.359539699307426 1.7010548299689208 0.6701259769445508 -1.02075520872401 1.3774284094496019 -0.8296939617056937
Ni 5.6432857457473204 5.763544782709691 11.962448627525694 -1.3718707128561665 0.8638140433178542 1.033808442363542
Ni 2.4637873508024914 3.436101310602697 2.949565214295612 1.2819669486154825 0.0465927601578746 -0.2758030074420863
Ni 8.092662992342676 3.5721691336620416 0.2851277445414583 1.3057663650279254 0.7678432469474841 0.7047350056330896
Ni 5.0452756230056774 3.8229288716880236 6.105903461552739 -1.6809548509488859 0.11038491491317119 0.22868008581235455
Ni 2.9985991365743927 6.131269293773297 3.3540722985055695 -0.651060398927769 -0.2962437917949414 0.2952469750993109
Ni 8.612788618271288 6.596551866653035 5.205591252959165 -0.6083410056823716 0.7290064765859445 -0.11158844830296911
P 6.261852811527754 7.964195901132051 8.638800420680441 -0.7069312419534599 0.5571580550506533 -0.33084621236015926
Ni 8.220743605662689 2.625868816641897 8.136369040843721 -0.5403461256996371 -1.1727943088428576 -1.4390490104748765
P 4.827219276009174 0.3198537031984782 0.4876357179244239 -0.9168049936925888 -1.1105211618352488 0.30410725370341823
Ni 1.1058512728614898 1.4196161089119075 3.0185745224063547 -2.0372642405771564 0.4775893541873904 -1.0987416527018175
P 0.6131572954973064 4.095561417951786 6.189619173586755 -1.2718591707575193 0.7643442326552901 -1.1866152738863498
P 8.112253740654932 5.041162394027013 12.03677844793054 -1.8689084055761558 -1.0235266008215598 1.4075013175755824
P 9.01449557814521 0.7597400777376825 6.976680477634406 0.01837336030086513 -0.15342466761246482 0.5517862492157787
Ni 3.2011871660918425 6.265579562615806 12.356437071812806 0.1516009841401647 -0.6070796224714448 1.2322199590993423
Ni 6.4642476020998965 5.798309389155773 5.107734130870533 -0.9589685144345161 -0.47645498347263104 -0.6190717618363144
Ni 6.561078717407497 0.5663769073949804 7.221768192522917 0.4696207341596171 1.7862325265424785 0.8425898438317554
Ni 9.368224068455907 5.9155686215386245 10.71240429404745 -0.9704433478433351 0.9766751876856599 -1.9101391300911683
Ni 1.8500880660728731 5.648107517525444 1.2753264288225012 -0.39938719465435085 0.9114822959280947 0.6215436204155748
Ni 7.2739923977701615 4.036715558178708 6.518638844090935 1.3222227108117355 -0.5570863212724535 -0.9023579650293233
Ni 6.962969714372187 1.2566512650368151 9.750692711046392 1.0843437321089324 -0.6555986531177548 0.0807488372142932
Ni 5.086315894246949 2.161874503397535 10.821210702851328 0.09357658510658079 1.4741941909174416 0.5124110898522658
Ni 3.8438354851992718 2.0821496356768234 12.899285757338545 0.26868259434722114 -0.10078107327481999 -0.33845153551124296
Ni 4.778725502591798 0.7372636278421827 9.008237396873643 0.18221253837843457 -1.5572156262159957 -0.34883442140746374
Ni 4.65764750057551 4.876844877534775 9.747715911103219 0.7281747247132685 -0.08922473589578828 1.7659452370483522
Ni 4.044711969772579 6.368189442573523 5.880908916234281 0.4796629488869675 -1.2905251225981387 -0.4522123088751825
Ni 1.550346856338979 2.791971492914585 7.6431634403672035 -2.210378159088432 -0.3800473566751584 -0.4480792605434154
Ni 0.34602285732023863 3.6327909513610313 9.575745212191393 1.4043406604594137 1.0714421935559162 0.9774704298934456
Ni 3.910208461984763 7.6015048045009515 10.315897302173179 0.6905635992287139 -1.0752299427331224 -0.4547055076106814
Ni 8.507574613479203 9.100634138479187 2.733312430788636 -0.9696568473862979 -0.7533579088471155 -0.628414379393479
Ni 7.920763147710795 5.272598237522351 8.35236601279453 1.4749891760149112 0.3687985232342164 0.6292229913377033
Ni 2.9721254010674114 0.194267712643827 3.4713775401611136 2.217800419694432 0.17227085378469043 -0.20116799643501482
Ni 1.8270190167451004 1.2340883177086546 5.199005485666031 0.5338592324237128 1.0795110866069795 2.380506255498507
Ni 3.4981310120460622 4.196993460528587 8.033771123296905 0.40165027965691474 -1.3239908584557523 -1.305421580093997
Ni 6.077668491087108 2.6313071126740923 4.499553198307594 1.017186517536145 0.47818764989302165 -0.4542740765002176
Ni 4.707659579991723 2.170956733826937 2.070452238187607 -1.7191339331217683 0.8135075817538183 1.6917452566961704
Ni 4.648997757309413 7.723742240189078 3.839709373624253 0.8149851947406093 -0.5281112741963422 -0.037355043609690504
Ni 3.5493393325522673 4.080948872944805 0.6486212428883061 1.0678786445743738 0.8430981509267417 -0.21548801260211276
Ni 6.217076587343892 3.7417685146593214 12.433917607211601 -0.4839744317781278 -1.5504896203460716 -0.7409875602072207
P 0.1145474458503847 3.368964579890519 2.5352406714786335 -0.990707754519326 0.5730323030787486 1.185781722241461
Ni 2.353521527868825 5.420867719699616 10.353176775464606 0.4396884653765589 -0.2235085689137441 -1.0728534720811458
P 6.820442189426885 7.9238457689811606 4.289346953417801 0.8311965143931491 0.347481249813679 -0.41437801163622834
Ni 2.139385170905681 2.924671437212874 10.98780843889818 0.9421624986207711 -0.023478542737914405 0.242153437708441
P 1.0435455157819724 6.857636085471104 8.890676343661932 -0.6458847682641006 2.2380889947401394 0.985823172733515
P 2.667544015846318 1.8000391792385069 9.247210479421387 -0.2872482731645505 -0.25812307366382 -0.2682113111377574
P 4.55247030320158 5.891496570066166 1.8043548490170171 -0.08407970135973906 -0.41367481492161656 -0.08890257666967914
Ni 8.538621670691771 1.3255087425476746 0.7275869576095996 2.687726858019926 -0.4461259934717865 -0.47285441060556627
Ni 3.463394011163596 7.829057465381085 1.4079822042190064 -1.0037095660956328 0.18787642153243125 1.7913539069294437
Ni 8.404246988867493 6.1246163529420325 0.832366634867471 -0.5168297877452519 -0.5618222932955421 0.2844285443275682
Ni 8.015367414220101 8.281208991834525 9.956602610052204 0.8580259758811676 -0.06557264369448708 0.13191533278577927
Ni 1.6840774083455698 7.953448135031198 11.211442029930408 -0.5690105835138651 0.741096060760627 -2.658716586830505
Ni 1.6532695993510012 6.226950177263597 5.420403026045427 1.597813859353332 0.8051365840813037 2.5549059827007414
Ni 7.471142131255416 4.670042398638738 2.727723224342011 1.9223277017375604 1.1452562513235889 2.1145940248075714
Ni 7.324740625549446 2.384973466681082 2.5770180112684304 1.2446913520934757 -1.1073669324769833 0.8553833960519979
Ni 1.6071038951318404 1.0252154215414764 12.5591557676647 0.24759029245329614 0.6800094778619514 0.07150932089389621
Ni 5.723194650558801 5.4728581978415844 7.6348403629372195 -0.501434279125788 0.8487646051838996 0.2931543542363403
Ni 5.422698888752757 8.618144097612637 11.782020504107624 1.0525497275267874 0.6975366881124374 -0.06725851603734223
Ni 7.560050449805452 7.358649459523456 12.209719022310715 0.4078517804819363 -0.08557531206865907 -0.1236718618300644
Ni 5.820080976993631 2.86821805961978 8.53156936937354 -0.9686170932678737 1.0536275339719985 -1.6157087373558818
Ni 0.9402270930247992 8.513804269001701 4.257589513034869 -1.1462828928158906 -1.6810828918863179 -0.19684340091773195
Ni 4.992972281809403 4.69523707636488 3.5440629891599476 -0.3330841005517425 -0.5286272946008123 0.33436888080143706
Ni 1.3942281922404578 5.208212861317155 7.823012767134808 -0.23684745211449534 -0.9571903394881709 -0.5284791990587221
Ni 3.3851506420235675 1.6513372098979369 7.27189529512086 2.1342411096145373 0.6183045446529868 -1.3561291337511934
Ni 1.0957752421419398 8.736995250830633 0.7979185722175107 -0.88758337782331 -1.1172949902239724 0.920016558651351
Ni 0.8693580901118454 5.002689440201954 3.9991149401638917 -2.5590925099782638 -2.4450188333595957 -2.9665455123598843
Ni 0.31278575872753195 0.992852499129918 9.405013082900435 0.5584466919550898 0.3246485681898796 0.24950190765371225
Ni 9.021719033957854 2.619225077665171 4.798053998049711 0.36040207164040505 2.41460422562348 -0.6994752998960468
Ni 6.058353798411002 4.055744993364122 1.2656423971062873 -2.664857152510604 0.6815354275881748 -0.46748234766037555
Ni 5.320595110794653 0.5684491650370284 5.042455254589658 -0.6131762222874859 -0.30519920121601635 0.2860894769697589
Ni 7.018328071275212 8.645942900173148 0.7332902670525008 2.0534092257681347 0.4936181255154789 -1.971207201047083
Ni 3.2839578476647646 0.605254742819727 10.863365318677198 -0.2812000100879415 0.47360440139771337 -0.12846979743934003
P 2.82170268492816 8.040626504928015 5.201025292737209 1.9959882646465044 0.37089988584793543 -0.7929878645339117
Ni 1.0571642604988067 4.754846690064647 12.755610761132306 0.3167789356338157 -2.018220079461511 -1.447692030861855
P 9.077169409406263 9.27620552307189 11.866787067929925 -1.5926634255006442 -0.2797815324738601 -0.43710527803041493
Ni 8.09523030975889 7.797872380350442 7.365887638303364 1.5482298777776176 0.06691758775815572 0.5820383632321008
P 3.697378768366072 4.2115231888447235 11.732445512781984 1.3743579980543943 -0.05598320023383906 0.5982314280521955
P 3.873962356957999 2.360790992954162 4.525572362200378 0.6454232552466497 -1.0026189041346154 -0.6023575344054272
P 0.4655650698140677 7.185350933001739 2.2972908351555605 0.3819486874629293 -0.1500927750257544 0.311015036566845
Ni 8.043055794526152 0.7321823637660774 5.02069102823543 -1.4729181524184958 -2.2736918315454133 0.26584821022221955
