# total energy = -340864.5551137446 ev
CRYSTAL
PRIMVEC
9.25778515387195 0.00000000000000 0.00000000000000

0.00000000000000 9.25778515387195 0.00000000000000

0.00000000000000 0.00000000000000 13.54970436395529

PRIMCOORD
 96 1
Ni 5.8735460609434265 7.627405630279017 7.085303076605205 -1.8534735590783242 -1.6475238249839494 2.406207516919353
Ni 3.4962394854384766 0.40573630838960895 5.8301668584011015 0.27069679656377255 -1.9672060503074897 -0.9383724354507195
Ni 5.832274856014882 3.119345805796037 6.756045328986056 1.0921853396405383 0.10791742720928511 0.11678336224034726
Ni 5.18713685990663 6.742657646292659 10.591532637691593 -1.0272706412450243 0.0770256227264351 0.34821221444243255
Ni 4.933029180929801 7.200084796476465 4.313778728639784 1.5845451672688842 0.06060270128372144 0.741879990114503
Ni 8.619386536357645 5.666171679965543 2.592844471176865 -0.4210443679128104 0.22379267581306622 -1.8571389237450533
Ni 5.359507556309631 4.771554897313004 9.031379255759077 -1.0315939512107264 0.7745947067387047 -0.034209041781541084
Ni 7.398571703983868 5.775071003333527 7.79966986215607 0.48416726451522424 -0.6258463615559867 -0.108840967464819
Ni 3.5608680815816287 3.523549950790475 7.84474971977811 -0.21689749135512965 -0.5785864001277584 -1.7352241538154118
Ni 6.969528922196409 7.556500255997338 3.1296839741548768 -0.8697003268953022 -0.2376254679311004 -0.6360348720532143
Ni 4.987594564924606 1.995284083047254 3.0712710547701416 -0.1582254314352178 2.42589702492848 -2.2444856422951025
Ni 1.1446510362887303 9.12561147056531 8.445625320667908 0.6074786576820764 -0.5949936378411882 -0.9434966440511622
Ni 1.6292960739758837 4.671746718682532 2.34489784802775 -0.8128666057357098 1.2353901292972078 -0.9052584265055701
Ni 9.09818991179493 7.573682704706934 3.8946593664492095 1.0516143601967114 2.894033718343403 0.8675902225308348
Ni 9.04583713838288 3.2232551831217413 3.9650231603162815 0.7026012471195384 0.1637785000429631 -0.33565314683049935
Ni 1.6798713526938382 4.383450040198948 6.64469361840731 1.447375528062701 -0.2855991675969017 -1.5076750962837067
Ni 8.58854885497205 1.3812800174402802 7.592156614405209 -0.03644384464933078 -0.07879788413550945 0.10332697962512527
Ni 1.180839717326344 6.383853678276593 7.268684056548251 -1.4509218506530623 0.9496215260019775 0.5527799805876157
Ni 2.9946156703087587 2.854730540997338 0.3994456435737843 -0.4426886856554634 -3.5345723918042413 2.214228386072458
Ni 7.573192042109084 1.131949355453835 9.87327665671891 -2.115591098613518 -0.15809327673272772 0.08735940055227535
Ni 7.881966940714236 0.9326940518026294 2.890721105438839 0.6525588378501664 0.10210724828541125 -0.4820381339873633
Ni 1.9936454551261342 5.284917583651648 9.153827347277112 0.3056841112722349 -0.6923104067164916 0.3843045892896156
Ni 5.838496087444218 2.3541991444817003 10.798531152603955 -0.06917167389965506 1.5697510396788448 0.031861110374654805
Ni 7.114728020020389 4.3760438123068806 12.52651151012769 0.5729662257275036 -1.0401680660329828 1.1269451117192268
P 6.198383216289498 5.366395348249254 3.188177436267938 -0.7706637471154146 2.1854212320327777 1.1992707578668313
P 5.107131083102573 0.47489288711027383 11.65537432144998 1.2504701635587818 -1.218832996269475 0.0780455793505172
P 9.350362713734956 0.3140398008579238 5.36214602499618 -2.9467102228015123 0.3717344659340888 0.9255824827749027
P 3.928457687434659 6.773587905526904 8.532628131272995 0.5913930649741235 -2.2194544103580873 1.2719995529901256
P -0.1017828641421943 7.955677423810034 1.8002679190857704 -0.22908529167057318 -0.0726794299425974 -0.40226914418783627
P 7.943327538800013 3.8757160870582745 6.067652184652672 -0.8516203294651398 0.15382524548499313 -0.9690436392823312
P 1.7361679424584147 4.099837800857096 4.4377858311291 -3.3295917064913563 -2.6327427884745624 1.6845237992470665
P 5.072118140742825 4.451244798765958 11.361291527425717 0.06922463862477755 -0.1259848262339572 -0.27322959028795524
Ni 6.455934791236138 5.829765996316444 1.1300885406959529 1.5843618476134842 -1.6617875339918156 -1.07874001276891
Ni 3.2583607033301405 5.643314209133649 11.377902770809136 0.2119244636205705 -0.7091459902165915 0.06015558644397381
Ni 7.227580417525765 5.435995374864955 10.446659413894865 0.08520250211027262 0.04365578901673772 0.2743012260855792
Ni 1.4074795486084684 8.013362681304374 5.821196990645323 -0.04225016691846272 2.3194309854537405 0.053350133486366184
Ni 0.9834822595724808 2.1386408816830813 6.170616342143651 0.7501296317178049 0.35439108955963483 0.3475977207868853
Ni 1.5333576494190169 4.328884656204142 13.421780966613216 -1.2314959364491243 3.195039964523994 -2.0210853168244483
Ni 4.881935466259402 6.736936335246036 13.107332897442742 -0.320774429946454 0.14820507108473832 0.666424025868033
Ni 3.3171291216536942 2.5837459202114603 5.3939742893623395 0.24173280523125462 1.610180608448801 -0.4798177292972768
Ni 2.660159676487865 2.7091241006392948 2.9619514279692827 0.5369216733991204 -0.4179978677770027 -0.8774863985986243
Ni 7.275295040720408 3.3186473983715676 8.941503754510356 0.07149929359156719 0.16071400218502646 0.8158639978011368
Ni 0.3513357129654017 0.5459371281649293 10.746880119284679 -1.3978275419312443 0.5409493065012748 -0.06699343530141365
Ni 3.5901689706796196 8.75685538381928 8.06131522957005 0.06641622264170498 -0.5411760778001001 -0.3774366585251887
Ni 9.018609993094667 0.2914304386604154 13.675851614450586 1.1701784684865653 -0.8659424025147667 0.43688750559265405
Ni 2.287524577883364 0.8248760377068867 12.879060918688905 -1.99188426978046 -1.5611488998321308 1.0407074834762207
Ni 6.448954421447866 0.5488959162078102 7.417215956923661 -1.101717961721322 1.3005966479015278 1.327473931908346
Ni 2.546316696001926 0.8197787013601714 10.296569428326663 3.0018665562586815 -0.7306738369860384 -0.18521018755417779
Ni 2.275369106355509 7.573386455591251 10.110369452892199 -0.46347168383908566 -0.29597511151458705 -1.9667206260306385
Ni 3.468466130843224 4.871122373536983 4.066537548697388 5.121744969393644 0.6173218690247433 -1.3531278850310244
Ni 7.205167320367396 8.076880343263717 0.7512701675800625 0.3079495102676438 -0.37308866596913814 -0.9286096996370006
Ni 5.192052743669989 9.106447855894585 9.626577057191119 0.4994625001113978 0.6481753640704903 0.1539633137247542
Ni 1.7679406601153833 6.244357375929506 4.471523976512925 -1.0806670545882937 -0.1659845065553464 0.07824689672804588
Ni 3.168911985963698 0.39607210676894766 2.308300898677586 -0.7239601724112886 0.1367909157105257 0.6993241190301633
Ni 2.483632234680441 6.790344496132706 -0.18048236750178787 -0.2937423655293264 -0.33196155691152507 0.793254487931737
Ni 5.756981291707152 0.3266414976162763 1.5997183771104264 -1.1602558100562146 -0.9032442242890185 0.26206303214817445
P 8.34593008701279 8.831028756158332 8.905366917067985 1.14925354540844 -0.22698958548380907 -1.2989295446117501
P -0.14167651068281475 4.6375947503152375 9.941960162632968 1.140596126843758 -0.41586848013882566 -0.29562235616085863
P 3.322174614405165 4.763889451444714 0.9359629756384905 0.48890812163431935 3.4250002026003528 1.1447921672029768
P 6.942820212860642 6.537218142351576 12.577810747622095 0.6970070408612126 0.9301153376482498 -0.9510078648265428
P 6.493947255892174 2.1351414390040797 0.8485444904929608 0.16037847322247864 0.8770886489395734 0.3962455637015756
P 4.409325548896858 4.613006073713573 5.997586491458256 -0.7455034457997032 0.5148040155644746 1.2475774153920192
P 5.321291420386564 0.7880643077478529 4.519286740188868 0.4741787858439447 -1.2056892597986655 2.537004934050605
P 5.347750169530974 2.4537666207056796 8.692785032103492 -0.6648589953737581 -1.318817798895245 0.39376470626125093
Ni 2.1070533197234145 7.305956824193567 2.352905831936048 -0.07482450131005823 0.330435864295618 -0.4656383524731013
Ni 4.7259510490676 6.906242704858695 2.0625224487438736 -1.516863190540878 0.4569271978523485 -0.5117251195288348
Ni 5.762674829399179 3.744014839567588 4.523216669864095 -0.18093521432790774 -0.731055131584857 -0.5184922630493393
Ni 8.057957430999483 8.124400552976192 11.317457767646516 -0.05374531204225582 -0.6508788790445823 1.5415552939709192
Ni 5.039280777826371 3.862699641537966 13.613522652067921 1.1307400599852848 -0.2016243672461431 -0.09892036591699738
Ni 9.426832016720551 2.5947719419857758 13.53416214286896 -0.6689218525892221 -0.6256753831957612 0.28953861186062396
Ni 8.522679715656976 2.696468708728725 11.191933314217815 0.3821176089406258 1.8999274796654892 0.2415962796533904
Ni 7.601604183860027 1.8738960078962712 5.24789477619769 -0.8360533282648182 -0.9138135151644327 0.4420888472879354
Ni 7.096980846434023 1.1036945960455982 12.537365337103514 -0.3204908372677642 -0.20222883359936136 0.1396857207598175
Ni 1.3070510983920358 1.1720170483499188 3.973748622551623 0.6387427579026805 -0.7399249232706611 -0.8197947003141107
Ni 1.0708387175594145 2.2187299785509245 9.324215026162014 -0.2455318672623707 2.4390944974553608 -1.9093485158690728
Ni 8.797284130325101 5.577195109627219 4.769712598124852 -0.6974996642269149 -2.474970128306047 2.6747353308562647
Ni 0.112482086110772 6.928655802017063 9.303985840453317 -0.6135965976543561 -0.4718131138252455 0.19958085445355306
Ni 0.9542369171836801 5.978603403592402 11.508196835000332 -0.48057337651637877 -0.5184788933129005 -1.4388723756876962
Ni 7.120921478095131 3.644327012140362 2.5783597409769548 0.638509558845952 -1.9639623465592115 -2.0257292433543626
Ni 3.917616821357645 2.045174285685192 12.10586091032043 0.17486561109506016 2.1193713915915566 -0.8149160320655706
Ni 9.08883029129633 3.911997345944539 7.805388395867232 1.5635945331591456 0.11454341716623498 0.4683606365002708
Ni 6.255540780046528 5.853188192025106 5.564619334666489 1.3751326714368899 -0.794709989431341 0.24430287995127603
Ni 6.701747494973851 8.704410032558577 5.4255451873092495 2.0144845236784787 0.4432800393825591 -2.400704584823252
Ni 6.948485977198073 7.46483892804814 9.417600153653089 -1.0822619098792394 0.032510056812563366 -1.8855730107160302
Ni 9.244685099500021 6.890856266412924 13.330293685019484 -0.7650152905803856 0.400049253718382 1.4157391321043424
Ni 3.419890533656128 6.8137574340565035 6.358510492208425 1.078112149376924 -0.8818824707837909 -0.07411513394785944
Ni 3.5091263219706734 8.241131962340038 11.732051924595037 1.6247852457358531 1.088406075103764 1.6850842997362268
Ni 3.439081921681447 3.3112226549097707 10.043691183179918 -0.10237618567608174 -0.18506389178430063 1.7877523056211146
P 0.8156673191015876 1.4890776644093195 1.8700623591836398 0.2730843229593426 0.24898485880797766 -0.48600226084143394
P 1.0563502842455579 8.339051552858033 11.881843809490585 1.0829921031770446 -2.6472947181468083 1.9739724224970454
P 8.216617348017296 7.103526100333637 6.201266090496485 -0.022785630435947855 0.08325951945128887 0.1570506944008263
P 1.425624806944033 2.3700206988161288 11.513319167366182 0.9264859684257786 1.0012215095664563 0.6546622573464144
P 3.1060516267297764 7.914924654833935 4.299483783029608 -2.3046011195297598 1.7480241337935574 -0.706795487706544
P 8.827066424236076 4.7349311003867305 0.6963418784185454 -0.23063515265619636 -0.8529385340559311 -0.3862421726319606
P 2.7176042315757116 1.3180956357360811 7.703657375320282 -1.4337612797133759 2.8056078241998264 -0.027927836758519644
P 3.8585521539184082 8.566302397941254 0.6694396813790975 0.1361234573298559 -1.0367703532053434 -0.9610493082229449
