# total energy = -381173.3505504375 ev
CRYSTAL
PRIMVEC
9.14105913001432 0.00000000000000 0.00000000000000

0.00000000000000 9.14105913001432 0.00000000000000

0.00000000000000 0.00000000000000 13.37886402919209

PRIMCOORD
 96 1
Ni 7.254015309728581 8.25959578235248 11.29043636955863 0.9601918453186561 -0.8936177569428481 0.1616372853302442
Ni 1.0923748274155392 5.278952406299864 13.091980949558032 -2.4676597106875633 -0.26600016241905156 -0.9918961184004724
Ni 2.152911346485709 0.030267874416648532 12.057379442959144 0.7502347898371015 0.22211785921380459 0.4564145198819881
Ni 4.338511119799739 3.8979669244518407 6.759496817666338 0.050182020171029705 0.8519363180436618 -0.11776063855195203
Ni 0.584684983502924 3.295836229930502 6.689499158707202 0.24862593280666212 1.0600997719599032 2.3639843465840835
Ni 5.976881398684962 6.987909942446914 1.2084214849737642 -1.4479347430002807 -0.18865032358397835 -0.19260725134919732
Ni 2.834550971810384 2.441010101616632 7.572249393921283 -1.6412115096126767 -1.6217958240902264 0.9625140656939295
Ni 5.19118909925884 9.22762478478322 11.343844834723571 -2.0790688353177678 0.5910914745733046 -0.889586781406584
Ni 1.5577827031250233 0.4852823660926313 4.194353877738591 0.4799007759293864 -1.5712821316113905 0.4918276092739594
Ni 4.228361359374329 8.543297688125342 3.9935641190185565 -0.24965488829180876 0.5940716402475511 1.750375150524237
Ni 6.195270438213878 9.126616083314275 5.204792823197851 -0.4336255470119306 -0.23662710857357308 0.642002659600875
Ni 1.9271089081430983 2.5009663073120887 3.1323803842004647 -0.12083413527095319 1.2742263854381153 0.7427374530187918
Ni 2.752930456388104 6.765261169444284 13.118190193798009 0.6236123300191453 1.3789044797744963 -1.256588360641378
Ni 7.7604939633294645 1.5510274605561951 6.608917981688272 -1.1738001243995526 -0.23159417413535596 -0.29175978788165885
Ni 5.2613284446318 5.1581990174849555 5.099969557826374 1.2462764371924084 -0.22192116982196616 -0.4886147587636166
Ni 1.1644520772872695 6.519129015982494 9.786572202688319 2.1710726766205903 -0.04979198382146263 -1.2838698220651503
Ni 8.109399042638795 8.321727560079575 1.4803716453521951 -1.1632431748193126 0.14181562261862674 -0.6133253462708406
Ni 5.737824424855476 7.709614829177777 9.322432191856096 -0.5560794772744939 -1.2049937763935377 0.2548166349984063
Ni 4.2951276539923535 1.8819977821929412 3.8395464166610696 0.4996933851752814 0.5163613327492655 1.323047006485244
Ni -0.15285130323464208 2.4013013415097455 4.841677053634799 0.3442185199020072 -1.0791537032675609 -2.0811825392266607
Ni 3.110400707939643 2.16935611154839 10.992837311854252 -0.8787354405143769 0.5757484164583311 1.6738604059959494
Ni 3.2130548000207506 0.41284952902749433 6.021839868950545 1.3927380432234786 -0.7936622648931171 0.037350672734316324
Ni 6.164794147653022 3.7351098180834517 0.6130286650092366 0.26991209587894804 -0.10876460570092882 0.683311802762307
Ni 2.271132661969677 4.680075928767028 10.570077960812053 -0.033830318285883676 -0.8561914937755899 0.42590092467416324
P 4.14228914824025 5.423335432517237 0.6031490084890886 1.9507805577616144 0.5873356070752982 0.9578128035635182
Ni 5.756243658652753 2.4853168143786197 7.852295790217457 0.1882695432057919 -0.8009935084472076 0.3584608887536343
P 5.879867339979993 5.838513189260943 7.234995508357863 0.15610607109936986 0.31008095478834985 -0.39691687873698733
Ni 5.383580967115569 0.02524669073186204 2.1832569199034872 2.747392906421991 1.011636020031561 -0.8035766957933516
P 1.1257122694297688 4.214000755753722 4.682629026533569 0.6287056853816527 0.2954894301274201 -0.3642376433364114
P 5.322564398581161 6.741860058515732 3.6205750916766255 -0.08379533735010085 0.23758587294241662 -0.13288643844979692
P 5.31323137738661 1.9469724292554977 5.826936952198475 0.06920715512328081 -0.20896435255098206 -0.06452389071499856
Ni 8.804274921332434 0.48398616393260446 8.524556689052798 1.2065071277142705 0.7917984722115009 0.5834666110381951
Ni 7.523603420472662 5.9108646709013675 12.963624027903133 -0.3216450054768654 0.3542877312125511 0.6051464100044739
Ni 3.916249042364772 3.547553570414692 9.273465367238101 0.07293499759682923 1.5124030978869953 0.08662817881320564
Ni 4.915787275018447 6.9245898270554775 11.860871356254322 0.6807209021066792 -0.9172343679205237 0.4149233426167371
Ni 0.4341683067257632 7.099705093484487 3.3741495102223333 -0.2559155244895399 0.4225983426634915 0.9588942095531551
Ni 0.588654945407717 7.678873447907184 7.578885802723677 0.9062341601552779 0.7127830727485467 -0.08005901023612018
Ni 0.36826858449681216 8.555665540893441 10.640437605705864 -0.5461110532078723 0.5168580698800259 1.3559159892991228
Ni 6.638045051947154 0.7323231408146937 9.352909396522847 -0.11816095931416425 1.1389259382301868 0.6464599240412802
Ni 7.456453201378466 6.749163764621948 5.844275712827099 -1.593686210338204 -0.42751506323881855 -0.5161988390294723
Ni 0.4612258412369011 6.115468993523935 5.934195395675955 1.2039409096489913 -1.1368112058800293 -1.0218031903725497
Ni 0.6016946660091149 1.0327385587835582 2.1169376230684347 -1.1293691477796872 -0.14468934462199598 -0.6780166158016387
Ni 3.610837121570303 7.6783067022518825 1.9287771514026533 -0.05146602908977588 -1.8734705710255413 -1.1597511025056542
Ni 8.52269374123747 8.847192193133038 5.029609912932564 1.3715783784267281 0.025082396889924544 1.1095330868903666
Ni 7.947821684524312 2.9056866926095983 8.541989602588673 0.4037809528466723 -0.2704090901200246 -0.24062003178305014
Ni 2.096785244493011 0.4354288587558598 9.726541040309419 -1.3133048394968156 0.9827489046835656 -0.9736040049595038
Ni 5.167349217500377 -0.06448285809069887 7.364355204180284 -0.6526233725395147 1.105490798500193 0.013822250595072968
Ni -0.5848403815051838 5.557151394580935 7.942282202796694 0.43585263657023643 -0.27583823155539594 1.016993170578416
Ni 0.8481421860049028 3.076386827562635 12.148931718937627 0.9976253075747659 -0.5193119307371573 0.24194954922775105
Ni 6.993549975823053 1.3176653664565876 12.215798565204171 0.2571416835871571 0.7516139295728151 -0.9565799595976816
Ni 8.886059975815929 4.2871749327002275 10.05083107606078 2.1091402007818516 0.9572415044410805 -0.03664387647527883
Ni 2.126841046341869 4.7778944006601645 8.01284203688165 -0.42921507664906083 0.08481683663607972 0.3766992661385319
Ni 3.4222662163573765 4.222218567755585 3.6657419780864173 -0.07517879932568343 0.8202320449618454 0.117928531588384
Ni 2.807210064471596 6.819449366938212 3.676177410991118 -0.5430316429516002 -2.0024491897804997 2.9891226263294524
Ni 3.0899521590540298 8.13124617354475 8.294574044449394 -0.10172878190006997 0.4762094431207282 -1.4039645080669174
Ni 5.678663491289231 4.784329706165517 2.780101340030302 -0.9438871946213615 -0.49842428865487065 -0.4880732844378498
P -0.17959347121178185 6.1850598753595065 11.371874063801782 0.47551010306085856 0.18464120242458523 0.28229478581401707
Ni 0.02916637681239444 0.7729231541698351 12.956386137421404 0.5659067477775608 1.0448842405617296 -0.0604134680910508
P 3.503027472237749 7.936751862128032 10.54603697575655 -0.20842184978395073 0.21182110527348683 -0.2386533949749825
Ni 4.893236282572847 2.0936772844478124 12.71116443343168 -1.2130372155233045 0.06300179764351731 0.574192641935437
P 2.6713373641426927 2.030951337888546 13.332425536137107 -0.5451687438992612 -1.232438759978368 -0.41386764765871303
P 1.966671411306681 7.601073895128707 5.500826931608882 0.1517799329201902 1.2836798175415312 0.7639125444345102
P 1.0810673374863913 8.189163923092915 1.578638943240095 1.461856238177379 -0.49314298565127324 -0.1303004228901756
Ni 3.2197094909410575 0.7487368262769232 2.204087565053481 -2.277135310009323 0.7510788830049516 -1.4677142396200529
Ni 7.495997422424135 4.281516617206176 6.547187496449365 -1.556686750295719 -0.8437712657343662 -1.286969029815764
Ni 7.479132168649456 1.4955320916314931 1.1039647760664417 -0.8700993621059337 0.044118844696085305 0.28036568711210424
Ni 7.250559989443037 8.293015493897318 7.534039767483258 0.5368170295004561 -0.3540193080425129 -0.7263438421521169
Ni 7.731919013031553 3.4672402264231863 11.764945083565172 -2.116622625201826 1.0564871149079804 1.634720245461378
Ni 8.232410273015951 7.190969426105839 9.431751030022363 -2.030638250620206 0.80750045632779 -0.8453419526555958
Ni 6.834458985744728 3.337994793837721 4.416189096494095 -2.501162727541015 -1.1416541357946275 0.9247088219206978
Ni 0.32510724642206906 7.698170223364283 12.958085460281414 0.42215148493406 -1.1605178054683496 -0.5266740275291832
Ni 8.41388771647866 5.002005743095829 4.12376753458266 -0.2913054739530596 0.719961849885173 0.6941590298894561
Ni 2.4188338925882467 2.6216008623605638 5.316252497371722 1.087112295993005 -0.1882967968993015 0.7184058182519627
Ni 3.728089484804886 6.196385647406567 9.183613328225524 0.45652713420045243 -1.5466861874395812 0.8453154702930343
Ni 8.225243682794083 3.1799093202446067 2.617307306968712 0.5953595058210391 0.39931803197931226 -1.4321692526359076
Ni 8.625174153198405 1.7384100281047814 10.619031987947508 1.4154737942580977 -0.8414976392088411 -0.9321133419148849
Ni 6.932926472823773 5.725228045613466 10.725192590244315 -0.2611852575289114 0.63722195038278 0.21898394157051318
Ni 7.649256416888236 5.571630831967976 1.9926612701317037 1.8770503179569993 0.26084072970529915 -0.6567602775260237
Ni 5.99677234297423 4.698385469856828 9.024204229295515 0.029494667025007266 -0.30345162239729023 -0.7493333610687546
Ni 3.679230524682578 3.3090999064763333 1.4909944699655036 1.207590076365804 -0.5546969951046705 1.3345331527479727
Ni 2.795802022893927 5.313203954209741 5.634588961424737 -0.7372386346877496 0.1024638602938816 0.4800141615787992
Ni 1.1495338690703178 3.3740014250672385 1.29833476908135 -0.3932502285186775 0.15715739518201968 -1.8566794676101315
Ni 1.833961517376715 6.1130557539594275 1.7817432180879058 -0.36961433426729245 -1.388387993784899 -0.3247586114051826
Ni 7.3043185571660105 7.6322540472292095 3.510319294967321 -1.4686030699829096 -0.4238774664862313 0.2745881611983787
Ni 3.0683609777988585 4.102169040480323 12.820015249379376 -0.3072882225345611 -0.2559985711216494 -2.2999816184798774
Ni 3.9608025637185844 8.81426609877185 13.537403728070995 1.671632287996379 1.5992984143186584 -2.1416926807965764
Ni 4.115131062080591 1.2104224627793345 9.182797031660712 1.883723616212117 -1.3962457992664212 -0.5707411930517268
Ni 5.362090337508918 4.310831993279561 11.86372062433105 -0.6640367565827789 0.41270190948538604 -1.2674584705866623
P 5.6996605037122325 2.234138796372861 2.2792499223230185 0.9026934939918712 0.783165222016535 -0.5003140494784157
Ni 1.0637176075870198 0.8114106688001375 6.545501885177793 -1.1042219590900981 0.08856396238333779 0.510683822748514
P 1.0667981444553487 2.572760184356169 9.088288537215712 -0.029339115283749474 0.08701795805245659 -0.08447719390847386
Ni 4.356701827123104 7.010168421005908 6.1549327732507875 -0.19664182642988715 1.6926358868312397 0.6531355362892429
P 6.421027171261707 8.683274723925699 13.199573955793317 -0.9088823964114024 -0.5740879980367726 1.7915570240791856
P 8.328226852997624 4.065824190069416 0.4225116283444784 1.0582128393498358 -0.5884787195408059 0.5212932228332442
P 5.635307448658716 2.6538870825948 10.252289960296427 0.2709212538697528 -0.540372093841566 0.823630272010117
Ni 7.341348986998653 1.1421387523745372 3.57899332858956 -0.03701488666145238 -0.461372892328528 -1.0926262838326988
