# total energy = -340897.81307744904 ev
CRYSTAL
PRIMVEC
8.99564542424774 0.00000000000000 0.00000000000000
0.00000000000000 8.99564542424774 0.00000000000000
0.00000000000000 0.00000000000000 13.16603637216764
PRIMCOORD
 96 1
Ni 6.323102045986155 1.7989581413449536 11.433346424920218 0.2000253981901394 1.1088226910869032 -0.5325785659390764
Ni 4.761395053599512 0.4606795893593539 6.022697868812674 -0.6463977033447771 -0.7768454504460943 -0.28496719043985763
Ni 2.67982072408351 1.575551290492613 4.733755933436684 0.6907705730331974 -0.17366593436000413 0.9087291586629896
Ni 3.4635123463667816 4.321714898612202 4.851144606688048 -0.46555659139257244 -0.48927424672448644 0.08784970992513258
Ni 5.0667882156525055 4.503642829018391 2.618316597650551 0.7413511141942265 0.4174479088108037 0.43427140812604564
Ni 7.37670800528672 6.072969132968229 2.547469594016253 -0.1774156312104235 0.06951003107568028 0.1303256197011562
Ni 5.127967599290386 4.4052214738673765 11.552038567174542 0.8982267164697693 0.3701938609198463 -0.18828471271444347
Ni 5.557680579293022 7.929868225645573 12.280278333178005 -0.7470589632122812 -0.982333671523018 -0.13529144834686377
Ni 1.580453917177313 6.53109935645154 0.5288575850352101 1.2237587157058667 -0.5554133044454047 -1.7384136072869867
Ni 2.6998630217963755 1.6003882671466623 0.3923477681489869 0.01561919459449568 -0.07234698630384315 -0.021101814975621722
Ni 0.6357519384877278 0.19438599957250421 4.631508730342545 -0.4653203070120502 -0.7838216246536114 0.2937562494863973
Ni 8.556531863693756 2.2451421478791227 1.204583472511565 -0.11677590604117953 0.19917693414691504 0.49635994992667415
Ni 6.976806593785178 0.6143854817877287 4.71669299344487 -0.7019458729237266 0.10463335714137463 -0.13623375765547507
Ni 0.6966182736694112 7.4868506862545505 2.375034768087795 -0.2815774480320183 -0.018952115622470584 1.772033352223961
Ni 7.78872655099797 3.7904950571230422 3.815464269762899 -0.5261924599070744 0.5287941591959796 -0.5558560484097782
Ni 7.55316658335475 3.806399358001115 12.472857107611139 0.3533225390858044 -0.287913160442059 0.524332009659568
Ni 7.661429174456337 8.851328155591563 6.922820128123602 0.970870922299057 -0.3433448590478022 0.5709383966641973
Ni 6.629826563542517 0.6601751154582979 0.31835048953307116 1.510041025412722 0.25063499281689094 0.6708046714342318
Ni 1.9792578599531059 6.310921942259395 9.169038155179772 -0.6317316166921702 0.8764358458469229 -0.3104095417723622
Ni 0.09200206266991053 4.716623726976113 1.3519015572173607 -0.20519820064033048 -0.31827943143874216 0.03613942603503453
Ni 6.339411150902414 2.0381523496865577 7.0311106057255985 0.409488801864727 0.0942234746619603 0.4814200407873902
Ni 3.591718283083011 4.262289665806461 0.6065583708182654 -0.6588289871295945 0.6055948103958022 -0.988400446542388
Ni 6.134310438221385 5.613003797845142 4.7776645776764814 -0.7307147175263028 -0.09854344219355286 -0.7199682776430761
Ni 5.338501681728405 2.866705255046158 9.219740310744863 0.35792224264134487 0.0006900840884891341 0.498715080422412
P 0.22428302670388148 5.431156828246589 12.309624826817448 -0.2693238274756458 0.527757233291033 0.5819643154610559
P 4.060319437687405 5.977255467050416 12.501480351369022 -0.2092104071235171 1.3826145816362319 1.0280836240646232
P 2.3699927089010533 8.417684078595874 1.4427737668384668 0.7057935288045909 0.6099883114778075 -1.528034376666349
P 6.324118553904267 7.703321894585966 5.693928622901218 -0.37768297020803987 -0.743157828385662 0.19875501611814803
P 4.582066864683006 1.022921813206048 12.583912846576212 0.3155180666435211 -0.14111859655160214 -0.501908133438413
P 3.977784392123877 6.132646243842174 8.130369464888279 -0.30521797026909375 0.0713627680137029 -0.1475152441065653
P 4.663828284751334 1.0359924858168172 3.7342039071373927 0.16198849802207588 -0.3702977334875623 1.199326036584799
P 0.36579802063114525 5.6339996339590686 3.4543727707490657 -0.3162279482263522 -0.816204411859691 0.7913495575995404
Ni 1.5296914907887582 1.1646931830241631 2.5535002746206987 -0.6200009585188032 0.17193018261582002 -0.7475976093245704
Ni 1.9778725305779796 6.428081226555787 4.761523691327202 -0.17862944901286656 0.4574792137010767 -0.40283915775869333
Ni 5.819498835546591 5.483043710296772 9.235447606991018 0.21645423317012397 1.1613233320887806 0.06090711989801769
Ni 8.631393623822332 2.4796316337324735 10.156965109066883 -0.06660879826848529 -0.6614407137208287 0.2894581363316757
Ni 2.273703321684485 5.24792452927291 6.8610452327673235 0.01579608649199215 -0.24620781028347274 1.0867556839845347
Ni 0.3496679290562174 9.211090997795615 9.302291548469919 0.00851960743523694 -0.36416128157252126 -0.06319565882187826
Ni 1.5908528831360529 1.103666725356264 11.337299920126561 -0.5079512543086994 0.2697398319671419 -0.044115759372291764
Ni 4.05861026508173 6.820750139241735 1.5347515412660862 0.22839315069955504 0.5076028698303452 -0.34699531131619593
Ni 5.560199359975069 7.783500081082722 7.92389961499365 0.5181865588834623 0.08710203312583063 0.4287803031044874
Ni 5.123370824545649 2.753225189674615 5.081589650417653 0.46485519445017365 -0.17248245557486422 -0.8620919184204249
Ni 0.6710211649881012 7.364213053974705 6.903334660854376 0.4083893981529612 0.1282096017994179 -0.25585587489619804
Ni 5.107187658663493 4.404384878855125 7.0749140009154665 -0.5003035079554545 0.16840417174043254 0.041844189729295676
Ni 8.104347761749137 7.14985582228715 8.939382929106893 -0.40692386935102814 0.8094925470571542 0.8371313918203455
Ni 4.477825327027403 0.38282947586443444 10.426368493431532 0.2607098605543897 -0.9635458493925534 -0.10901477403852193
Ni 8.285475079724248 7.137234931941032 4.767263812588682 -0.17817436375331894 0.20882577009058878 -0.19460499850551646
Ni 7.1705637977517 5.970877554537659 6.939922648954707 -0.12962190876591226 0.8669348483350231 -0.07976796135826261
Ni 2.3820468735937097 5.213885007484094 2.472990148812631 -0.6473089023051368 -0.05984036919640017 0.8904365310013891
Ni 2.2774814927075573 5.230230094981525 11.486445020391372 0.19739258855298264 -0.45657701360178143 -0.4734987290577845
Ni 1.1723844597497017 3.236327324491369 3.6994852141289525 -0.20840488050308625 0.8722385199361237 0.12143757318290697
Ni 3.6928113448860556 2.6934671179930323 2.6406069071221436 -0.8369650414458102 -0.24913423990164835 0.2529037342464096
Ni 1.0084748068654457 3.235544703350876 8.096559332054435 0.47572607572640646 0.1668507112103836 -0.05667585542548949
Ni 3.419379710559188 2.6545969346818605 7.070437767817656 0.08077891912128024 0.007756246906651158 -0.11467582897904122
Ni 4.143879986814339 6.698292419867751 5.99597090708256 0.5422878228070401 0.7729183474775463 -0.4956747509341915
Ni 0.7690332182782834 7.34957713908295 11.325924926653528 0.49584084419841057 -0.24805849033896635 -0.27957970087569917
P 0.12937716973338162 5.554667038119859 8.01196788197692 1.69062091328374 0.015536919293334532 -1.1676117362006537
P 8.365212479601645 1.6641314096930557 7.927468187481394 -0.20323747736953388 0.3592766997867103 0.8364665045428369
P 1.8783627023465082 3.281899263545847 10.278447700491103 -0.20217638309487115 -0.34281983978226765 -0.05402093430114568
P 4.043524567925322 6.037445329706063 3.7473438462169177 0.07663712903876478 1.3458195242950692 -0.18140752597863596
P 6.9160769924119485 3.9861503422463924 10.387765480785562 0.0709112822985811 -0.44474273997101466 -0.39840657590863643
P 6.297923234810971 7.622163182752272 10.110067211896213 -0.8544611413480445 0.1127089350606575 0.04503801407624502
P 2.430641349466645 8.386487180719655 5.762774095457817 -0.2973768769581201 0.2981070702559253 -0.08438463419466757
P 6.888145513777098 3.9963154214275134 1.5541191655819746 1.6386697170274294 -0.5593362936488948 0.9412086193479339
Ni 5.374556228062859 2.8379101944631766 0.5897554049754191 -0.014993130974722565 -0.673606145438769 -0.7602428088924068
Ni 1.2561339174277888 0.88204461053006 7.008241876261663 0.44661655995495986 0.3407058787630584 -0.17364176599028805
Ni 6.774449552918522 0.7762720140455828 9.305148565414985 -0.10283564181100355 -0.7859877790669947 -0.764849968647115
Ni 2.77377124352389 1.488896239384878 9.18204585827349 -1.5502211971760336 0.7210283434764743 -0.09869950815544291
Ni 6.354955625968765 2.0537328073340815 2.747790920353097 0.13055521921345903 0.17982321221065162 -0.5175268138122764
Ni 3.9457239122995267 6.790317871215422 10.501335502610036 0.7825882664671425 0.6975963377057792 -0.7025151151636353
Ni 8.093678926431606 7.227587193264202 0.271235797310839 0.10993780007342356 -0.18160447248079045 0.5145703022871138
Ni 7.641530807068159 4.0304359040239675 8.223572446204807 -0.7524495381002332 -1.7771084527540235 -0.23543360248610423
Ni 2.9953159958005737 8.27835052865217 12.407540626702994 0.3424123199312038 -0.3245899470378023 0.07191838340685677
Ni 0.07324254397583076 4.833126329166114 10.059918288516643 0.4177700680369128 0.452687191629072 1.0990280735939846
Ni 8.572220269084797 2.344256167717701 5.764736045696226 0.2899998677677586 0.3590280741110139 -0.051066479658512055
Ni 3.7020408769567017 2.7116743040661206 11.49362084664162 -1.0910185730259467 -0.6017265856896475 -0.4707201378713829
Ni 1.0480916287359394 3.2866039860341005 12.40139210314521 -0.18310651094761368 0.03839196951463711 0.5028003062353793
Ni 3.2300843466580083 8.352024863602066 7.801784629705329 -1.0332104037682268 -0.3438917326902078 0.9259830606474311
Ni 5.675424580533461 7.7138737865146885 3.5276423016607756 -1.0033095024437366 0.60102775985041 -0.10786523381511101
Ni 2.9211469003595614 8.393269897270597 3.4670125519502983 1.5277348431480593 -0.4331689190904862 1.12632727562957
Ni 3.544419180132272 4.3003772279771395 9.175700330083787 -1.0215764190737244 -0.18269230622833052 0.4252517211259386
Ni 7.219922903474543 6.086795439783613 11.502204491380226 0.007894315146412211 -0.5255453132413788 -1.2267651066323582
Ni 0.6400500578087364 0.09930022969614383 0.2654533965164809 -0.43357438205902105 -0.333566953725432 -0.04498042136543221
Ni 4.611905420119979 0.5699137101525882 1.6255310957406743 -0.551736884035082 -1.5712620770067325 0.197005380416893
Ni 6.0682374235440975 5.613525545272138 0.48646560659181753 -0.9017810094799308 0.8960605620563858 -0.92924399078689
Ni 7.818133315460878 8.573317737810546 11.341091584617574 -0.0829414739902378 1.1970616660306546 0.19864368735126436
Ni 0.13970776878789454 4.90189803743131 5.725224472875661 -0.7002309471151489 -0.27130280557888764 -0.24342767643517432
Ni 7.828370359804343 8.764718082710294 2.4124260673127935 -0.39367677453313493 0.5369630681600172 0.06830649768588237
P 8.44687494757175 1.6118397236046864 3.4311082328922375 0.4140507102037966 0.5926395357867148 0.3483973338700451
P 1.8413456219656998 3.2721299927576193 1.506931608632869 -0.532455924318283 -0.3847987553172147 -0.21851960033958492
P 4.602019205942941 1.0850547352449897 8.251484134420014 1.6611103054191327 -0.46762144434140107 -1.214336136840386
P 8.453558712024469 1.5606904844685314 12.239555046936466 -0.20870210002853087 -0.13210482308876603 -0.0431798778215837
P 6.210638488532724 7.737406394601249 1.3287035871357011 -0.008442217230082235 -0.48730683858547047 0.3043869897273661
P 1.678830294101863 3.304973093722463 5.908271461556304 0.5866048995568607 -0.6327045221284007 -0.1455465504159687
P 6.858612810280088 3.9331300088892878 5.932220568019932 0.9517293163735996 -0.13799907708601394 -0.3111687885358899
P 2.2698981637255344 8.449321763091453 10.050135524260474 0.6229127328489594 -0.6307029183173396 0.1405688946957192
