# total energy = -340888.8817494175 ev
CRYSTAL
PRIMVEC
9.11206201255931 0.00000000000000 0.00000000000000
0.00000000000000 9.11206201255931 0.00000000000000
0.00000000000000 0.00000000000000 13.33642381672938
PRIMCOORD
 96 1
Ni 6.707079147449923 2.2148142773824198 11.361272651788676 0.8307391151407563 0.6736938200565687 -0.8633504734178744
Ni 4.420024441245926 0.6634073305406725 6.11352306303191 1.3325312918265955 0.7421496988361218 -1.3435736656836863
Ni 2.9072398810846956 1.9955871738230953 4.642476303604437 0.4793086508713423 -0.7447688816265238 0.37564100007734663
Ni 3.7913650485544212 4.52761967125667 4.905657261415357 -1.3808850005396347 1.6134230266454985 -0.13942141135483732
Ni 3.695979981840966 2.7627134631307304 2.417333503761214 0.5699091840687346 -0.9873534933351125 0.3876999881244097
Ni 5.1993608938508515 4.476710579956702 2.6997053756918503 0.5572228468503178 0.534863505318511 0.0756030313472956
Ni 5.988884631953068 3.155598247376435 0.04313650227564911 -1.2642119386249067 0.07235187139984958 1.0499742534901273
Ni 5.691211785239738 8.13445634896526 12.27031019720974 -0.09725429106848411 0.6336684287035668 0.5856710748886816
Ni 2.1116201733959965 6.843614286887677 0.15816444139206473 -0.2488107951239586 -0.3387628961040747 0.221470969658425
Ni 0.8183861950008473 0.485993657831052 0.11757384928452218 0.3279436940013836 -0.7670531469460209 0.13240075706263005
Ni 8.17536039601118 0.30067435998954456 6.851627434353077 0.27202040047120246 -0.9417554929903394 -0.2183599348332691
Ni 8.869927334321563 2.6290941835848667 1.2771612119473215 0.32297323736998573 0.10237335746260434 0.06292929253436905
Ni 7.229564791827979 0.8304031825802993 4.47905146872616 -2.6171277076451247 -1.0023520236264738 1.6910356322236553
Ni 0.8234142309019252 7.505077103362945 2.2288368298437624 1.6721989591331266 -0.5320694875131418 1.2462784940749374
Ni 7.921944835219445 4.207257789759571 3.778076017097132 0.2230401139177578 -0.32634883871043796 -0.48446371270972044
Ni 8.020191089451817 4.2647731261271025 12.960790375640395 -0.6524814476450117 -1.7828407272521103 -2.0599884216475495
Ni 8.439473517781288 7.613619987838554 9.304395925450484 0.25813927161373607 -0.2877599226936463 -0.3796928015492171
Ni 7.476428779925124 0.7763230936479002 0.2501388632382243 -1.136754127389849 -0.2923467707333804 -0.0280407081873001
Ni 2.1267006362743657 6.769332756141775 9.087092378213592 -0.26267983979656695 -0.24681896150491045 -0.07641421439468131
Ni 0.32766428811385223 5.200381444813013 1.1965012376879116 0.5140730509357211 -0.9989052027284538 -0.6808211751299694
Ni 6.637654345836451 2.247572140855372 6.811364876483372 0.41750293041845515 -1.1333312177512287 0.2090458565211948
Ni 3.669664346316658 4.244435003381169 0.35202447509816154 0.5322476649622188 1.2207314988437685 -0.6569343412100428
Ni 6.4214433348528015 5.932663208412563 4.591464246002037 -0.5195662128398084 0.5544972203890386 1.147557902873572
Ni 5.8709563234504385 3.24287357876557 8.761029990627847 -2.1015315351966577 -0.4686604271288767 2.1492841199905888
P 0.2299182860941827 5.75029439629916 12.378295423481024 2.3689164937783787 2.1480875285793264 -0.6532399230775912
P 4.100300404100177 6.352173438296087 12.599200057684403 0.08603631086547764 -0.07643863987471351 1.0458910845596892
P 2.416117954668782 8.656841760659534 1.285762087422181 1.4128836649334182 0.47428934327987987 -0.011349363574548195
P 6.540355746068944 8.06465795280314 5.791129191672649 0.07761800489479535 0.22490570637158688 -1.125549774033597
P 4.973919363896937 1.3989020072585978 12.438909772189906 2.1538180033052 -1.8217862552773723 -0.1698481032758107
P 4.327546122362199 6.180629756031328 8.074791477133676 -1.049180039723606 0.7535615402174893 0.8007806211054531
P 4.932350136313178 1.2317412268938357 3.63340198373614 0.2995075501478777 0.6177044491751427 0.4081865381135357
P 0.7078213439314559 5.462262111353392 3.178683656864258 0.009114303596442368 1.5730186546865232 3.367620893349936
Ni 0.6768612903230966 0.14049888647829184 4.493254440018314 -0.1876429653653865 -0.47922354735670364 1.0778375555592985
Ni 2.3538643459769286 6.5239084738662525 4.669388779200367 -0.6693491699346279 0.6007742490787072 -0.9959646320428911
Ni 6.281901214901536 5.963607771515245 9.259946375017268 -0.07404777104503377 0.17505895805278884 -0.5133462000720256
Ni 9.02637232958363 2.4950921974281925 10.080135847120006 -0.20781532654820337 0.5713330609994547 0.305424429852945
Ni 2.437002801144445 5.637723980347879 6.884208523820083 0.44892849591758816 -0.45091904398505567 0.6616019218890412
Ni 0.8583179850140659 0.34340628670519385 8.853158406324546 -0.2387778363679888 -0.6787568364017729 0.47597958649810934
Ni 1.867061537025877 1.3288666974802625 11.358778680374895 -0.6773149617489238 0.2544857340215488 -0.8057541630606445
Ni 4.086923896846131 7.117650444352373 1.660491087809788 0.42095386508153315 -0.555471925597482 -0.7711347732145623
Ni 5.95289198641255 8.078043572119348 8.01057604145831 -1.134141629467666 1.1365394402758813 0.10925182974999248
Ni 5.323421620188613 3.0809340100197242 4.983421422319633 1.8196458118956016 -2.038540536186418 -0.6381989695840686
Ni 0.7563868128433179 7.54819538151427 6.453868608056835 0.8075341377792027 0.3377869053440505 0.43713715970961486
Ni 5.789184677607245 4.968853057334777 7.026014991218645 -0.966275846729207 -0.07086808776547149 -0.4007475653369873
Ni 0.9853055057183121 7.797565186706008 11.244126158219562 -0.08842949368800253 -0.17797356059642253 0.11507177886587923
Ni 4.810312287775416 0.6080260391315173 10.337835899540389 0.19800733931884607 -0.5868496685778151 -0.5481658788543721
Ni 8.539642417129874 7.252508964352289 4.377601413437574 0.0043258810688635175 -0.6915159358396542 1.0431878266959131
Ni 7.701341810273634 6.800386663990406 7.109114264518864 -0.19146105355989607 -1.2372492939931337 -0.5845703856253351
Ni 2.724670603603727 5.0792912507401144 2.382205592919884 -0.3650930493581712 0.3244737331749121 0.605232541960377
Ni 2.3610355388985456 5.695221092591087 11.406963265088379 0.16127244579165775 -0.4688545454175539 -0.5967185909520949
Ni 1.178089404883058 3.318348789654713 3.6620885778350414 0.03628289359143429 0.690389792655011 -0.512797012436775
Ni 1.6088165832881982 1.0805721156236587 2.6287424579854077 0.21308068871220076 0.8248299487451731 -1.9168630790785635
Ni 1.231750338955998 3.696809179497723 8.069789866212867 -0.047983984078446396 0.44660087622567607 0.5157573806166795
Ni 3.660506723843691 3.223155076246663 7.222740768474741 1.4586415878948233 -0.04836913533200702 -0.40943403736739165
Ni 4.277666694086554 7.279717581968489 6.183806220901056 1.0174577689196607 -0.8526747388715832 -1.552496109253139
Ni 8.642490262754135 7.444828148346766 0.29817218771981635 -1.1395435172095278 0.38741151034971344 -1.1196910012599748
P 0.3479987660349208 5.790633495491028 7.936372874447003 0.6999882349767236 1.0404236336872146 0.6978544764631724
P 8.895951383856683 2.073978244604128 7.902738430594051 -0.9599313925684178 -0.8012179657531878 -0.5867681646076023
P 1.9235472103690856 3.347625845381722 10.2335984644364 1.2928820528660896 1.3305877949469793 -0.07030964415884021
P 4.465138261010763 6.33849623299069 3.7216359040647347 -1.3475321361108017 -0.08892443104655008 0.1540227062077799
P 7.181571560419901 4.404506599383773 10.515743446019197 0.120265921472309 -1.0133866841740804 -0.20674651896405685
P 6.475013148304119 8.16340537045443 10.181985921937512 0.39946432774918944 -0.10605183475545606 -0.2686985351868211
P 2.4186602200120233 8.812329989394572 5.657604677573271 0.5722329471059048 -0.4445355090562151 -0.17215721102496157
P 7.089220810406444 4.2725730513379085 1.667906483997351 0.12396445336981876 0.08309574017991496 -0.6258792716764512
Ni 3.3104668558844477 1.8536850297718312 0.1000094382607492 -2.4788972312745954 -0.49069658099330976 1.185551608508526
Ni 1.761416288317834 1.5091852956071785 6.87931443523279 -0.14490660283912463 0.002049169219544858 -0.5061139439896445
Ni 7.250850569038777 1.1248658497939017 9.168324589976784 -0.8765823987271161 -0.9136469076795812 -0.5007315966318086
Ni 2.9243523338252255 1.8066850131394276 9.097188543089262 0.12025280884618646 -0.5288810624828311 0.219587379482467
Ni 6.725922892001262 2.1405054104500327 2.296545830152099 -1.0484886700835363 -0.11082405933311881 0.7754382856859225
Ni 4.32057539480815 6.800195310685 10.464278518927339 -0.22277811850562276 1.904684020513868 -1.1484850426735318
Ni 7.467517183130536 6.535708594366244 11.372208948795697 0.40123864604079285 -0.40844416265029654 0.5707370792866687
Ni 7.819807730443832 4.1945282389190375 8.315634214554068 1.896307623524715 0.47295108408443065 -0.7144059530639503
Ni 3.2339437578466566 8.67546681571898 12.12070198218794 0.5400270517973216 -0.3827886668657214 1.0323179738609445
Ni 0.2513225201130884 5.128204800426571 10.24554802275585 -0.23336823531664327 -0.2719224414407575 -0.6423358745705776
Ni 8.905637505935056 2.348898272098553 5.438593529887191 0.009430806395596661 0.9129087439619762 0.941872735294494
Ni 3.968275735432691 2.931168156322519 11.355564856050304 -0.5275895973649172 0.43137068953948293 -0.8795810763441239
Ni 1.6991080072530074 3.6408975660707306 12.338286180939427 -1.5893155920743338 -0.3915432731298999 1.2676795854585328
Ni 3.1767017833439892 8.662946842308177 7.735352582293884 -0.5223450611365262 -0.037183036808200474 1.8181710271222882
Ni 5.713919044147832 8.168781487130104 3.306219723710666 1.0864654064376258 -0.21549238347748692 0.7622984058698549
Ni 3.3729938264411654 8.636202939862248 3.566213282177263 -0.7895657262262402 0.12881175415979104 0.6820823012305801
Ni 3.769158953065246 4.485640400875615 9.392790218073133 -0.7058914878350359 0.221409006072238 -0.1674135256923891
Ni 5.257760100248113 4.913624848569945 11.400162021890546 0.685515238171529 -0.9816253326020837 0.5418659047782732
Ni 8.050306454897743 8.677826839818978 2.494218350666842 -0.9245905511752787 1.870303229041153 -0.5561239573591842
Ni 4.6972862687160255 0.42650191518054814 1.5256735720896009 -0.0555463698067366 0.4270995729679547 -0.8070865087188229
Ni 6.266401597163708 5.818397948899119 0.18177835048529345 -1.0053545578982235 1.0344453046165927 0.7670382345476855
Ni 8.145527504492279 0.0716280982442802 11.332945984145182 0.05361367156039799 -0.00015709440315456814 -0.19852875903995484
Ni 0.29168075463549603 5.030623726732037 5.803438676447506 -0.6767590892454538 -0.31214477929591405 -0.6818658143443999
Ni 7.623397230538547 6.368392908944726 2.4221884104812106 -0.9902734951953849 -1.038328955941715 -0.8017013331475097
P 8.66409496214061 1.672017846444916 3.307326839263368 0.8797062890680786 0.7485815705043946 -0.9658166477046011
P 1.8582501729150716 3.0876222636467467 1.3607024202624052 0.6643082650766108 0.863085906902578 -0.18994281714315675
P 4.835543587902427 1.3264246648208047 8.15012909588417 1.115056330701441 0.4406526290620411 -0.29884703374574334
P 8.965130159791775 2.004954373725792 12.21904482427923 -0.9159254193011129 -0.0889264879290791 0.9553771975388321
P 6.2651441325853305 7.973965598103196 1.0750465611285271 1.7288462753135259 -0.3675181138598961 0.7102327955228672
P 2.00089039400147 3.5673176641113162 5.943537543396879 -0.3405788662668909 0.044959081209193535 -1.2787404712583847
P 7.279398659792814 4.058931641883986 5.889098439215291 0.5368422263114367 0.2989352225841755 -1.1071501884804869
P 2.6922043261199633 8.711842167870309 9.991101887733576 -0.5557043533232623 0.13550125036482472 0.24667986482388488
