# total energy = -340894.6026013724 ev
CRYSTAL
PRIMVEC
9.03422088663094 0.00000000000000 0.00000000000000
0.00000000000000 9.03422088663094 0.00000000000000
0.00000000000000 0.00000000000000 13.22249546063264
PRIMCOORD
 96 1
Ni 6.26789716719714 2.0833184016131017 11.222552907293654 0.1029827089118291 -0.43059215950224555 1.3719776707476758
Ni 4.948142066954521 0.24369720060742167 5.765616177073314 -1.6169582934922666 0.920032499490951 0.2486110204083267
Ni 2.7233387345830917 1.5101151651177045 4.827519862114092 -0.4206242496562563 0.2166087564701173 0.7194684551885222
Ni 3.6858536447371724 4.307317688340097 5.026663899799109 -0.83925229481809 0.38205410269254203 -0.2522241916808817
Ni 5.072434875675107 4.655785650105645 2.4784508236842484 -0.4163161091992056 -0.6535445988022036 -0.14960297987352944
Ni 7.257406328874487 5.899879151784888 2.5551414199880846 0.8021250509484895 0.3843696381995961 -0.11668154655516035
Ni 5.19042179833035 4.328349354185534 11.852592233207787 0.04899982693747045 0.33335715170747104 -0.9905048944799005
Ni 5.505878717570456 7.807816226483271 12.607160161003398 -0.39263444931154956 0.07460235799692312 -1.2414232228651652
Ni 2.0483830700734518 6.615777904615628 0.3653980914022954 -1.2758826900946156 -0.8666494558841205 0.3508666213461441
Ni 2.807835801014523 1.6612034725056288 0.22156516667780335 -0.8776501778699981 0.2240672696306915 1.0670600053278205
Ni 0.5703565535452696 0.07777289594656925 4.653445786938132 0.37210470478931396 0.241275663089178 0.09787264137877338
Ni 8.336462686367973 2.1926776434769395 1.3806403273898418 1.5960919915662188 0.5344516145920731 -0.6030489040454968
Ni 7.091655481251536 0.7037522430673417 4.948743746054739 0.7459528746322959 -0.29473121180515693 -0.7309121782490895
Ni 0.9122214033836564 7.451885998399711 2.4739951460231793 -0.7043701660945031 -1.3392606401306288 0.6886972354439365
Ni 7.575058563750522 3.702259789571929 3.9009801223049916 0.4039372759188785 0.7656038160940041 0.06918890029083569
Ni 7.590236054566817 3.6450460697269325 12.653187708747957 0.10555252652153434 0.4453148104244008 -0.2284646273674388
Ni 7.930916518068289 8.902140417000291 7.036747294535299 -0.03748488431933544 -0.15731448958517424 -0.06411431398140571
Ni 6.830945939598777 0.5576101715257992 0.5377086866929327 -0.639013495065564 0.2448171005835332 -1.2096569861971618
Ni 1.9522047562459082 6.392912713575643 9.280010250112047 -0.001575057796603739 1.3237895410782232 0.035522618386642044
Ni 9.106946200813029 4.802853729271396 1.1480407635197631 0.025462920157794857 -0.24860690664326862 1.2143034838302378
Ni 6.404060941949041 2.0498466138307374 6.83977237324611 0.6083134948785459 -0.43913747796909536 1.8742509008349917
Ni 3.531079375293862 4.272788896733027 0.5631147222129232 -0.980676338425253 0.5251061688214311 -0.5901769331788351
Ni 5.815038784965946 5.453751263993063 4.480455818249052 1.234240331963481 0.9335899264604115 2.3392387642082872
Ni 5.199067547563204 2.80368005948149 9.105988573416287 0.18209889561870574 -0.0014205344966104567 0.5010954077291305
P 0.19226899571406494 5.54104893884893 12.389531204295034 -0.1631339244804287 0.41991179697026393 -0.5555130632480626
P 3.8786439149870113 6.128128738376368 12.545384159692787 1.1193467305466787 -0.22059782302485234 0.17638821838717364
P 2.3648969931382644 8.566853383271038 1.4253317138893231 1.3526499169533412 0.23923600695132993 -0.9258563052615797
P 6.480363970183817 7.697174125276627 5.681732534229041 -0.7274129068465794 -0.05752174836555255 -0.4135843120903393
P 4.646137102372429 1.033749740562702 12.539314970210416 1.2587105491907031 0.46826627701425155 -0.587163343163492
P 4.023408267868146 6.1412102899846985 8.09614699457754 0.09616491465904728 0.23410254237950648 -0.12969235699253148
P 4.412439880684386 1.1383569823257238 3.592155224498362 0.7273177760296119 0.14193697868783944 0.1849512774658363
P 0.24405856943638107 5.611588134261805 3.7336753887175145 -0.39136689545303566 -1.1565079129780083 -0.9869742556188228
Ni 1.4524858711194046 1.2320508854541716 2.5478164738250775 -0.2269718448719962 0.033076727949310776 0.19556350576404385
Ni 1.948735615487898 6.293120711458505 4.868853228770468 -0.0012269304285656287 1.303584783995574 -1.196794528412197
Ni 6.128833407592839 5.765115681245205 8.805904284160114 -0.8228160036389378 -0.06434159950086339 1.9804423464921053
Ni 8.431665304357328 2.4837331325415626 10.2536480928215 1.15216840506239 -0.2765792234864785 0.28251770045810054
Ni 2.21750368202645 5.4199090731610156 6.92025734225402 0.6516975182911358 -0.8707639922731262 1.5575110459692272
Ni 0.3904445649374712 0.10696878706027141 9.282800017471613 0.9896685146215344 0.18095784003572707 0.10728647849350556
Ni 1.2947212746164554 0.9818752451655804 11.459328087982358 -0.08534391278414334 0.9711051497970502 -0.25693111023824783
Ni 4.229776971866134 6.815379977291351 1.5600960878510788 -0.8198409801710137 0.6162944562014935 0.677421148309485
Ni 5.626060955861629 7.956383986289203 7.749109149952599 -0.36300608492215547 0.02879455563418912 0.8091354208280517
Ni 5.391288661907432 2.74346697835613 4.874697466156814 -0.5379729974817702 -0.10514963465616084 -0.8159871536425624
Ni 0.8386530337620298 7.59225972000899 7.12855123868829 -0.9418138570321006 -0.9196175234407195 0.26978251227961925
Ni 4.985968349125847 4.245785610989036 7.2628657084579915 0.37245591748114565 1.366035337121312 -0.9680841035825394
Ni 8.13182855274899 7.245426952194483 9.225321594959405 -0.1715195774409627 -0.3133511408991893 0.234229554875674
Ni 4.722440130607206 0.559858789063999 10.284258742900576 -1.1661660048930624 -1.5133428360924455 -0.09319477628712981
Ni 8.183368781979325 7.334450163208631 4.407824297316502 -0.6636078965754765 -0.4325256290795325 0.5495326772949116
Ni 7.435037176749479 6.2910338064712645 6.993523065481394 0.44276016232334714 -0.764746096079399 -1.0345772022087667
Ni 2.268004975873526 5.189843608204015 2.5475653224889507 -0.352467904394993 0.24785563029954089 0.23271157556925084
Ni 2.2372344200876335 5.132584717255399 11.440685070096343 0.528416978362219 1.0769176148481905 0.48629176705739474
Ni 1.134138001247623 3.3201303213888136 3.9110948358275652 -0.46677400873944125 0.5130698064821873 -0.519305502979254
Ni 3.4939848650011798 2.924332077250309 2.7424912825179395 -0.1334795919491056 -0.45449699114430114 0.13324999243680277
Ni 1.0519175584386358 3.345688131816967 8.128740656105533 0.5344922380220214 -0.1517796758098741 -0.1219250543422868
Ni 3.5091262189345787 2.480119444251969 7.111388929578935 -0.24042694193563752 0.3656489218616412 -0.2774621403120641
Ni 4.128114886059132 6.9170601315398015 5.902284061341613 0.003733498900503247 0.1865034524443046 0.25522646884231526
Ni 0.9732656328156227 7.502604113544163 11.531774407390067 -1.0452159128695355 -0.7089562428032887 -0.241597565204971
P 0.28629897185344516 5.717785398872247 8.065286096584407 -0.4180408051997962 -1.1595230456552483 -0.2620964564892712
P 8.474324894615984 1.6753420279386653 8.112225197200015 0.6701259001996523 1.1356917475636055 -1.0789780969216451
P 1.7228529947261022 3.2710202975332314 10.431067539931549 -0.40620627445871327 -1.121029003345108 -1.0907794604319472
P 3.930482273501237 6.189272344236299 3.7759212116670127 -0.7304642920783936 -0.04999227275772681 -0.5786144251522164
P 6.7884037942095325 4.054648603131686 10.278691856090457 -0.3037467850402059 0.5338666886228806 0.23063566687682863
P 6.206527705819109 7.917410358085932 10.242210769384934 0.034209813112489475 -1.7917467714924884 0.010144287522853498
P 2.2485000933304424 8.401527144022113 5.830803500129299 1.766254540758655 0.07245805796041069 -0.9778267847915999
P 6.949267128420809 3.7882565366435417 1.7121944211159448 -0.4085251523998771 1.1927645813171974 -0.747760617264996
Ni 5.233018149043939 2.731532772779746 0.8187994302990005 0.4016284252800438 -0.4443367627818477 -0.8153608329124732
Ni 1.488225248303489 0.9602111838694646 7.07912592052944 -1.093889981036471 1.4801964312474636 -0.09885994499270716
Ni 6.953224117097913 0.6484917217428706 9.20979809348938 -1.014623384794659 0.14354880325964955 0.015486782781689459
Ni 2.6416784134589917 1.590402284691759 9.290218016108078 -0.208422364004583 -0.27488666627540403 -0.14311994325234706
Ni 6.412769930726962 1.7240003407580482 2.8153468521244442 -1.0554707578283242 0.27988617637252444 -0.6493598712968945
Ni 4.1964497316153535 6.631488414454639 10.389602273652603 0.5528920806854477 0.9629228710965738 0.13849015778981955
Ni 8.184461922686927 7.197961156510666 0.3474425777133753 -0.09857712364496571 -0.7486119095216978 0.34091979454607735
Ni 7.75111745721954 3.9218726611512795 8.257474687734028 -0.6850748082000008 0.08212129208178762 -0.9343350321565521
Ni 3.073134726795065 8.42666034607624 12.36814991410758 0.7635243078571561 0.1365590022053777 -0.10325498873660927
Ni 0.10897257721685129 4.879924666267711 10.18694121383974 -0.35355650947348144 0.004331023275186089 0.03328473019505881
Ni 8.740771166428472 2.2545801238776844 5.756016414132008 0.3975650538439476 0.3475702099830595 0.7610331660041861
Ni 3.6773343745944547 2.674671387542985 11.261347657926592 -0.27418732621553427 -0.03878277719515256 0.33730816593541907
Ni 1.1956971812608563 3.306669332510076 12.540703529935692 -1.1556285956968486 -0.18822712000363068 0.7072510871867239
Ni 2.980533964374219 8.44824309938584 8.020064401328428 1.5879562498329618 -0.8686299766492589 0.4015250669329601
Ni 5.676670660357392 8.36737778968545 3.5454799231278944 -0.11565876171760082 -1.4849488583307846 -0.5141694673042694
Ni 2.972303789294669 8.477270050572004 3.5533866731055257 0.7294530772050598 -1.227840599084724 0.43204020480268174
Ni 3.273604084660291 4.41512304423941 9.307790478838303 0.8251063423350113 -1.0288467274828925 -0.48247136487004005
Ni 7.217773202558365 6.075233376037436 11.32196005160795 -0.38046747493171246 -0.5546273182089997 0.3456010020718306
Ni 0.5696627253936676 9.153924148577753 0.4085392056255407 -0.144799387837299 -0.018148902994884874 -0.21333137127042617
Ni 4.553418895082171 0.34886998458776486 1.4255440180763368 -0.5148739495704616 -0.7444858031684662 0.7852583571001379
Ni 5.960327122649071 5.568702688485048 0.41001539729183983 0.9407879868707475 -0.02009831341177184 0.1831378784061814
Ni 7.805033686500282 -0.49073796630479016 11.57198391698838 0.013275891173299715 0.35804899802719625 -0.6051065579054741
Ni 0.0646479800787639 4.719214913808743 5.886324207010621 -0.2855315475837598 0.22193068290366294 -0.1222415571414411
Ni 8.123806164746092 8.880584766352865 2.417375877901821 -0.6607431734331718 -0.3122841330872557 0.5663613188164762
P 8.439443768400679 1.6897696784348695 3.5368061678107963 1.3782647893079685 -0.19259568138497155 1.1135823172590757
P 1.6009452202766492 3.1747968126020676 1.6074588934186425 0.6952358078934027 0.5372230066896232 -1.0154019148318965
P 4.714218989748379 0.9954536789137298 7.989745556578734 0.4047214623830707 -1.0719682412627152 0.4972685777838727
P 8.294796860388955 1.4376336122491733 12.327953955840353 0.3372127780081354 1.3866684399906313 0.015952409564198335
P 6.274853517154607 7.660188025632632 1.450745880207965 0.9027901674707355 -0.32113129906524046 0.6066556475601487
P 1.9499823379478078 3.350620816332263 5.935009622492176 -1.12288842515135 -0.04108057209039377 0.46470864156998026
P 6.841832175571179 4.037302899341635 6.0830353290546695 0.4447478821773373 0.9307642840861583 -0.41107954339061464
P 2.360081753492381 8.46692586784304 10.215924800766429 0.6511812407763494 0.39646744990439464 -0.5514391502890051
