# total energy = -381174.9706118773 ev
CRYSTAL
PRIMVEC
9.15936404957962 0.00000000000000 0.00000000000000

0.00000000000000 9.15936404957962 0.00000000000000

0.00000000000000 0.00000000000000 13.40565512926629

PRIMCOORD
 96 1
Ni 4.25290348872217 1.7240030180666328 9.282799510895618 -1.3244042918440868 1.4928765978182936 -1.0347263261921213
Ni 6.966062890084617 5.19938639395647 0.9289244039585053 0.4428462942792502 -0.15415357535868934 -1.823191620265331
Ni 5.485790554829081 0.4428415226566073 1.8994204144587141 2.0799502094814564 1.8862476681855516 1.1778195299715908
Ni 5.0481744494796414 6.319356817534437 8.673941763317703 1.3890443964219756 -0.27942209225191234 -0.12982785412913125
Ni 8.720264332098195 3.351942623832522 11.254691563144872 0.8056639173396836 1.2220389048012825 -0.7330508218586472
Ni 3.4797798707319765 3.83376182107397 3.377823323469915 -0.11644886171906396 -1.0673094023344651 -0.06906651578035847
Ni 6.209884095965168 5.9473034415183985 10.864278241480775 0.5087511245021754 -0.5344747545205246 -0.48786373953020495
Ni 1.616545356633345 1.845904996929199 8.085714567786528 2.0432389701033515 0.3232393465471788 -1.1827496202833565
Ni 5.934755112489793 0.32562913829232293 5.712525121329609 0.3482371541430971 -0.6575562910647578 -2.159804302795622
Ni 2.8802903209135207 3.612709724156909 0.3635736365892613 -0.5180068387724885 -0.3172576750424472 -1.2320379249955233
Ni 4.286362646343702 5.398932303604067 1.2803316570085717 0.6954301832923959 -0.9240215660456861 -1.5357919091245809
Ni 1.7573614226813647 8.828363149029293 8.904653325777517 0.24977495880944076 -0.4640797497367298 0.4683737491263934
Ni 2.844174947658197 8.711489661142425 4.439215948894928 1.0326627587948731 -1.1999952947376817 -1.7476947754785965
Ni 7.186592903239175 3.213599586133206 6.861912675083614 0.04442917684765252 0.1857393205847704 -0.9211056779504717
Ni 3.699329831911307 0.7418856062003691 6.734250372041419 -0.2842647650561943 -0.5902298979039577 0.7831783346426577
Ni 3.610767938934964 1.6612522135593488 1.3764124721013988 -0.976401108088667 0.14076532697724145 0.680560465269415
Ni 2.532289435429687 7.845600001983091 2.053425049096726 1.184145986410251 -0.31300995550968674 -0.9967218219238897
Ni 7.751258550162185 7.813505589635474 11.483016195279971 0.3541712602393449 1.0864934314620835 -0.3554095035218202
Ni 6.455474129719919 1.263992267115046 7.758429416437 -0.455422588282364 -0.15431761174037942 0.7111535075649236
Ni 0.475638458242541 3.0428049208803483 6.361694146927812 -0.961227742782338 -0.0987730417058557 -0.2327349726080185
Ni 7.986837398786816 2.8371955120963013 13.302606338706116 0.6017646380164345 -0.09631198175987285 1.0315903516663008
Ni 6.454750539943817 5.007598465832397 3.0514889141299992 -1.2584372409246585 0.486080422377537 1.820842146196548
Ni 8.601348305982581 4.937126317258606 7.528804154577766 1.8261501886730227 -1.297397938458572 0.7031519774166858
Ni 5.895553033480717 7.051400686843392 12.889605108854104 0.6130075579201055 -1.439093747669883 0.9883973612185943
P 3.2745001990610896 6.7881605581703015 -0.03167949314688993 0.6105303000242066 1.1174227740510885 1.2415412365002683
Ni 8.870990830269536 5.477336461622217 2.416985862576031 -1.2723751911619894 -0.5563766967999386 -0.3365630602392784
P 6.1404011587308585 7.946655267802513 9.785967354341354 -0.11956092498548442 0.016663576698610013 -0.35198196589750996
Ni 4.243844877474513 1.4302713657904558 3.939975640841503 0.5153228641824222 1.1449515755989765 0.3536408416571716
P 9.090375922892287 8.991894438428368 13.144660429629413 -3.337861402699316 1.007313224286491 0.7839571217902112
P 2.1820170276107476 1.8898424672578287 3.4726145000757147 -1.096841093244995 -0.18079714608814668 -0.18205133021022193
P 6.497268308813006 2.2315325507703414 9.635717143111245 0.7715818880543098 1.378834031547877 0.36612123351236947
Ni 1.7073970906733025 1.1056909747052683 5.562717307392988 -1.173193086943173 1.3801774329496488 -0.04206324771863724
Ni 8.897223249494301 2.631613581405017 8.950916358690352 -1.9524826280543857 -0.09075248539422436 -0.7109894711832336
Ni 2.033717760966837 7.8200820131701745 6.3385026366355275 -1.1132503878409536 -0.49897938982739226 1.6112722988510833
Ni 2.974201282614467 6.178559070214925 9.746889842686139 -1.1570738127838074 0.24170760842027406 0.42102637019068134
Ni 0.8547115710231942 2.7118038154527873 1.8656113691226628 0.2686725670448921 0.19192513768050817 -1.981493927685071
Ni 7.9419931513969955 0.7436561113107556 1.6051529393736514 -0.7492832245571095 -0.1358447497471725 -1.3512067567489117
Ni 1.1894808389050395 5.438207657527178 5.98152282637305 -0.5253051722061147 -0.5610062251521499 0.15128628111322331
Ni 4.144859627976597 6.198370775097316 3.323302207745261 -1.6022086459869183 0.510351893330392 2.96957555743546
Ni 0.08580126059005004 0.05921528990506358 7.306913059894996 0.04880699420037401 0.29327236787144334 -2.0223572415583364
Ni 7.845261105505676 7.443604664219234 0.6425697036528681 0.4589190314713968 0.5356242947439356 0.7189974290893747
Ni 4.071227498735019 1.8774498474215484 12.255571016749965 -0.42162080924157064 -0.890848164617511 0.5391233090361296
Ni 8.603418322304087 6.930112385385875 6.446525430843316 -1.2751884922410683 0.8219821948837328 -0.48716902745602547
Ni 4.280793752876992 7.670436319980858 11.341318998390673 -0.1772261409074367 1.8946667454871822 -1.2536462472939185
Ni 1.5191813146084685 6.396093971258276 3.612408381072937 1.0871063824557343 -0.1806444225603663 1.88630089002099
Ni 0.13056398963800614 7.947516248042433 2.64049816473184 0.16345351260337654 0.29658086341938594 -1.7976901335601168
Ni 8.539476800443724 5.666367421105698 12.06054525336194 -0.9876651110382604 0.2578086277471947 -0.5131567097690388
Ni 1.140011112566718 0.5082934236825305 1.4899986641573437 1.079490003561057 -0.0014979247017651623 0.3700704479681046
Ni 0.724165900113697 4.8333140827985925 9.514610197065965 0.2569128554058027 -0.42948170004688613 1.080893825887119
Ni 6.683047693986154 5.606043848125846 6.847327303444816 -2.6016931182576095 0.6482141877282256 1.1209433856098372
Ni 0.35817602323410985 8.38629559265219 4.9362836557471965 -0.2599117901331266 0.8002131786377573 -0.08190223409244604
Ni 3.287762958501543 5.275116017612319 7.595322205602908 -1.7913269103462504 1.3718576002300438 -2.1825909616728345
Ni 8.106275508664933 0.07009386683008198 9.17129157858901 -0.6794754597353523 -0.2564444004098164 1.3354705769605775
Ni 6.471255714330349 2.6551439881747165 4.373662378925781 0.21173188799379022 -0.16416313707589145 0.5767136085850777
Ni 5.686023416795763 7.243646583180187 2.171367434792091 1.201785553868885 -0.07656642370182944 -1.7762165370673733
Ni 1.8761766957901789 5.890533701869275 11.956437171436509 -1.5795088903965573 -0.11131873958135023 -1.7400215752040549
P 5.128328046070393 2.244978497495884 6.184162769265803 0.6041899596284755 1.5366799681564889 -0.2815432523599732
Ni 8.916549508071204 1.0849816521259414 3.623320847645697 0.9428410127450342 1.5512892334292316 0.4317082753845598
P 5.362358962136021 3.182118851190637 2.461493045361288 0.44092799421061485 -1.008116951134709 -0.21492262701694595
Ni 1.4266625762742 2.044022045753101 10.348066547400267 0.8871552891469558 1.0953225997179394 0.43860731649723816
P 2.751298994118005 3.86960241340166 9.071486565990321 -0.023692972741565645 -1.2199941064571118 0.5982869638804793
P 0.7213796215074911 7.200835714654855 10.311844925519592 -0.11115341764807954 -0.8132995795080703 -0.1721682667685551
P 5.6100190122122795 4.609889710539627 12.808674798174573 1.2747148950387597 -0.45781911353899857 0.18194745764250603
Ni 7.873966553079144 1.2324474166226969 11.222745532498177 0.23409585751128714 0.7907242653107155 0.10297859514677105
Ni 4.071401526655853 5.556967974450465 11.806642180609845 0.40148881437838596 -0.8662542773282307 0.5344300173255183
Ni 4.131660984085925 8.48424583398935 8.637357430612552 0.3901101402277991 0.31042368283974925 1.0942789889447735
Ni 0.9388714735388455 6.545648070805048 0.5338773599180794 -1.0148139035389103 -1.2278691383298144 2.065227044338669
Ni 7.232307290233169 4.294523639894423 9.337883927521922 -0.7992433585253204 -0.24565219489031886 0.3957416274819636
Ni 5.615633702500261 0.7051455643028918 10.806003618284645 -0.5981270412638473 -1.6900524423747796 0.6711977931075924
Ni 4.6225479519392865 8.73026635786406 0.1723764874596017 -3.583617727267667 -0.4182516356590216 -0.8474145189139082
Ni 4.188302492635486 7.637132871551653 6.454259598019779 2.1725526036002263 -1.364418113232863 -0.35827011289906685
Ni 6.5382381451231915 0.4576778608759765 12.96871179011057 1.4023223444778041 -0.051421034784453375 0.43364483028564027
Ni 4.98799742632786 3.869465022937843 7.800911463785596 1.5071950713234947 -0.9473396719463362 0.8794985439326467
Ni 5.701456945564523 2.605610146286614 0.30004428612034856 -0.19379355834781462 0.5341243131596414 1.1855019862175131
Ni 0.982808943867475 6.713072090012264 8.137715026468356 0.731886626347217 0.3315128994098807 0.3132336414847186
Ni 7.875102314246696 4.780134813937217 4.999170018845446 0.2937030276509587 -0.23313375070833398 -0.07299284741795815
Ni 3.163342154469001 3.0260524436589473 6.40370723482658 -1.0402534266579375 1.2148192471243915 -0.48867158014348094
Ni 1.9360239818288 4.815590712966219 1.9986896042485176 -0.14853391517906675 1.0282304340551325 -0.4988837447897924
Ni 7.882329052643463 6.639788016612354 9.162309906001088 0.37112537159518016 0.29162197675221385 0.0528341130818961
Ni 6.569544852144926 8.164254284395644 7.4680894767442485 0.166807516677274 -2.233550226329521 0.5490693645052479
Ni 5.072043752726756 4.622337286561433 5.258971722177414 -0.2630181969725922 -0.2002295437811455 0.45182561495972506
Ni 0.743878683862139 0.08153116497462226 11.165235716217293 -0.5866390952289058 -1.275379782316268 -1.2124813430198345
Ni 7.229953333619774 8.434098314696199 3.5522038798283924 0.057068462878217846 1.266250052100858 0.11396517606526178
Ni 5.164571650425279 3.672621125745311 10.873675749205848 1.673727479962511 -0.7221598859777563 -1.2170105983487556
Ni 1.0908986014343205 1.8177307924824897 12.88385394403873 0.41431964759446704 0.674796051981812 -0.590788341510589
Ni 7.686153789041506 3.1159332850879324 2.3273294255712806 -0.13752008056706638 -0.23910128114567855 -0.17303215743074715
Ni 3.001248885257878 0.35625255674067396 10.836394388880931 0.6895822091520512 0.31707564093862806 0.12566780921417067
Ni 6.103424805235616 6.930625309784123 4.958577548342545 -0.10864556362456128 -0.1707258778950737 -0.12337309964272303
P 0.6640548243845474 4.3809056041782055 13.096668108745334 0.6684850221621197 -1.764395633173045 0.9789213034073593
Ni 2.9919338118110956 3.6463703877920373 11.388506211156784 -2.6941307046637406 -0.5427884165925426 -1.5601397418413259
P 8.442112758418848 6.671415301382995 4.158877119031619 -0.9192701674036298 -0.3630143124522716 0.8377235168783895
Ni 1.8129496043416633 8.340333902823323 12.981996532025237 3.8055463532888014 0.956782819637107 -0.62224193203418
P 8.201642809282337 1.2050883955946339 5.682590487073192 0.10939015510006966 0.39249920928526594 0.3474485968035307
P 4.985451123065121 8.588479399205069 3.688003362074246 -0.4287034271199649 -1.412673091584509 1.4131968252984628
P 2.935072478519427 5.209278507351283 4.986367975426992 1.4910531714563096 -0.0020707664860996596 0.05706666310600494
Ni 0.46678959643631013 3.642569251626438 3.8183466110337196 0.7949511589078697 0.16663499565515175 1.7408078185507758
