# total energy = -340884.80541023554 ev
CRYSTAL
PRIMVEC
9.11780858819201 0.00000000000000 0.00000000000000

0.00000000000000 9.11780858819201 0.00000000000000

0.00000000000000 0.00000000000000 13.34483451103658

PRIMCOORD
 96 1
Ni 5.299671482298838 3.226382125869437 9.716774661496489 0.44895934915552355 -0.6113360837549535 -0.24189504184073177
Ni 4.669977391847113 0.4115496103690953 6.419652930180342 -0.15979483280486673 -0.2532094384122865 -0.6109784433052188
Ni 2.73918114661605 1.7319733131354058 4.924844757434121 -0.3861403569467737 -0.5307373989652795 1.443389289721443
Ni 3.935902629716443 2.400965158211192 2.787935892213679 0.6233104825080104 0.17043997122353874 -0.6201387696482481
Ni 5.544119928115796 3.317222851929652 0.4863721704609684 -0.4223031800205759 -0.8087135027992847 0.2041705307067645
Ni 5.322292765181042 4.398056989027302 3.0882619156264837 -0.04363599152239581 0.45238508700762087 -0.2617105339047622
Ni 4.904788314082254 4.856773934534618 11.527000654280513 1.3542704832758998 0.5640018174453642 0.2687854384736726
Ni 5.573196619414202 8.307517974101104 12.661258766707343 0.9042001604443847 -1.5352596907701945 -0.3617305606438415
Ni 2.5091114847995897 5.472371893049266 11.501272022262375 -0.33063306790808866 0.14185161806288474 1.3839762378704488
Ni 0.8183679899088575 7.95898062647712 11.72521178142599 0.42153493439598366 1.7482431917828989 -1.0042584966205672
Ni 7.961679497792369 -0.052558695302770304 7.039627436773772 -0.9798970370570673 2.1030649411220486 -0.5130458952227873
Ni 9.148079621673634 2.76138301030737 1.251041739004873 -0.733984132306194 -0.17150029416725301 1.4363416388460424
Ni 1.7392493243163807 1.4689336557921229 2.9282033463577855 -1.0849394567114024 0.3148428949533674 -0.20739315140912024
Ni 1.9872263620218562 7.051029256299849 0.28966001103247324 1.0437023044384863 -1.461488056204683 -0.6607051211063847
Ni 7.729895687978386 3.949178158888748 4.01937069582561 -2.310150845703396 -0.10982724263748828 0.008699841766843082
Ni 7.98477490671644 4.246838135096894 12.77515660689594 0.2823783466667588 0.30966032231116347 0.20959812948023904
Ni 6.826877052198241 1.169942479543347 9.363883560314965 0.05180361493485272 -0.03728613804496804 -0.20814725596632538
Ni 7.049424522004295 0.8879778988827317 0.5460336385832617 -1.5297870976913976 -0.4759353635237352 0.7273247180081475
Ni 1.8834930547462303 6.368862177945229 9.533349884391345 0.00474831331826279 1.6115070405697085 -1.8603654011021509
Ni 9.254393268754043 5.23427855975504 1.4979446988693477 -1.2992473329624852 -0.39403698608603105 -1.0047966285122245
Ni 6.357136676217493 2.151401621827158 7.102454608006384 -0.19515135792728971 -0.3511887805722533 -0.08022304661781024
Ni 3.57481917759995 4.761620485055104 0.5699222968466123 0.8098699850012311 0.6808671978765565 -0.9085183282037643
Ni 5.943799063602046 5.912807632519172 5.168520924871344 0.4702707090387901 -1.2916157845591563 -0.8012215652976136
Ni 6.510616746655272 2.457003209236594 11.821000742157779 -0.28123883374567693 -0.5014959856016589 -0.31573815307412717
P 0.18050799016680566 6.352933366500163 12.874709398975478 -0.9656605817427112 -2.6750317790507605 0.64264852071499
P 4.038605624631855 6.702136314144463 12.436064397094475 0.06577704639580931 -0.5823492096043004 1.8796517601355887
P 2.5393826090111635 8.55427322546792 1.540314243176204 0.49164943182488224 2.281258845259394 1.626974025857056
P 6.499173896990957 7.797358353051108 6.015184209890376 -1.1124723720243486 0.8558053140807649 1.228270487533291
P 4.851795611095004 1.0980850307748484 13.061496823854485 0.061631399658551925 4.228993417105833 -1.9694938179004016
P 3.957420657770453 6.1191618744337335 8.275785265187388 -0.01476970211000682 1.1130691250680829 -0.25633949940083595
P 4.890491590358233 0.7782897508774133 4.034543640946236 0.670147497466207 1.0538679321175786 -0.2618624861015942
P 0.40150269718574183 6.121961041642455 3.4566186435814013 -1.919646298250655 -0.9136870168888974 -0.32959897021661944
Ni 0.21328833527688126 0.35841375778843565 4.963851653967113 0.5951455900380203 0.49369140195557554 0.15720598903176797
Ni 1.6223681371874143 6.380122671439595 5.075641456831097 2.2808520967392782 1.5857911238608433 -0.8125866126014458
Ni 7.632326019247045 7.680695993326081 8.820561557978849 1.766049109616068 -0.3326938070918593 1.0749846594915358
Ni 8.71382575636501 2.7955839099813504 10.505974782021966 0.3392398357404932 0.0896332841881166 0.1024018967076946
Ni 3.903671176677914 4.682933797722007 5.630572252946182 -2.360251876124845 -0.48884615804813225 -1.36449601765865
Ni 1.3582069893989437 0.8629805151060896 7.1885823388542605 0.6239946530592286 1.4184274775697832 -0.9827697306191719
Ni 1.3898184314596447 1.3484418164981615 11.757359350626341 -0.18663046494047214 0.4868065019102842 -0.25764176315202725
Ni 4.30800039449787 7.01951811013262 1.820688678034862 -0.6741057107830067 0.1513824403714554 0.09664262562641421
Ni 5.364608514417762 7.827766244390144 8.154841182591952 1.0389959001017524 0.2855104645378373 -0.49244107448824215
Ni 6.910915893119349 1.1541869064597325 4.9281536101378505 -0.0967099885292399 -0.7085788048592119 -0.5798647526195497
Ni 0.6272815183232964 7.674705593143249 7.028016819433104 0.5682279397115698 -1.33185689146739 -0.1885744760407204
Ni 5.149099992771749 4.375244232166652 7.434060185250582 0.1413605373590791 0.14112888096424725 1.672783627992003
Ni 0.4895488149414843 -0.041211582627678774 9.070043945867257 -0.564963410027685 0.19363260728991813 1.410909829036499
Ni 4.551062933423212 0.8347928101361857 10.684341910753567 0.34895500614572805 -0.8187963409565833 -0.096690191034898
Ni 8.281441041798365 7.3567402574112535 4.836221482400489 0.1783214308541445 -0.04033700905614988 0.8685885818883622
Ni 7.301550162576116 5.988403382771629 7.26779694729936 -0.49771903505772996 0.3379044047585213 -0.9821513803088828
Ni 2.206655541321778 5.800676823617383 2.2766283390738513 1.241518867902765 0.15672390718902685 2.019036661825536
Ni 3.2966074869168907 4.338289754326438 9.206614128665642 0.5996799875732639 0.700465174613142 0.43873612876561857
Ni 0.8306022653507522 3.9487222684638748 3.9853548876641276 2.743060083374592 -0.7239061792449016 -1.3757564210638178
Ni 0.5674522825246499 0.4225994824871696 1.1943617942612499 0.18032560576836687 -0.23118048363670507 -1.2288793247618834
Ni 2.049810999548436 5.516748267006415 7.1494414105363555 0.8368071757117072 0.2209503212682646 1.481354713221623
Ni 4.883215579177258 2.7491651469207707 4.932330478210538 1.857850347989781 -0.02101748279193154 0.8722038100434463
Ni 3.924642136222077 6.964902437232822 6.139050550109248 -0.0896728791768004 1.6182708416561034 0.293445660224514
Ni 1.044955560660137 8.139704708705317 3.235735173826134 1.0051974634950689 -0.3175870333574079 -0.6330385084290516
P 0.08632011660717283 5.894371423737304 8.271168006964274 0.4918301803771208 -0.4983499837735095 0.5465445412008652
P 8.609718618940988 1.9315074342938656 8.075252743998456 -0.036935439573768644 -0.7037695563960266 0.6316794232979961
P 1.8596226320998746 3.607670641616306 10.76638577517543 -1.2787101322410817 -0.681861957689658 0.20317808488650818
P 4.0264789393302305 6.027901729182635 3.8566570207224506 -0.06684713953153648 0.6672364944669993 0.400581214962452
P 7.08371659976325 4.421207104802359 10.68749120180859 0.068351749101521 -0.6063000639929429 0.4528517422313943
P 6.452727780504885 8.320282905997551 10.415950099822274 -2.0720237555455285 -0.8971813059243903 -0.02298874758568944
P 2.2378110929576063 8.60349115573722 5.701300005241845 -0.08458029514524143 -0.12329545232725218 0.8842856809086448
P 7.134019549243748 4.3436601435314435 1.7256738192445091 0.2852484691257023 -1.0825419030135033 -0.16025454605010467
Ni 2.671645539075348 1.8240540611512752 0.5734071232543424 0.5994511593919095 -0.4947640661944641 0.7156236275211353
Ni 1.200669494179794 3.5780104105740618 8.492746253727047 -1.9887156422444912 -0.2954526633522137 -0.5697245788617543
Ni 7.8666901688658095 0.26603850455809824 11.523811244868101 0.6296048001571544 -1.2819301818402762 -0.7750747316989168
Ni 2.7340478204319787 2.067791317905431 9.568072322711378 -0.33557344263249944 -2.244380741286122 0.3923865949668016
Ni 6.475285238727607 2.139211111866051 2.5037575076498797 0.7020384326375328 0.26396102050183573 0.7740663450390605
Ni 4.188921815521015 7.148097445563829 10.352214794863315 0.32461205852498937 0.9252258707664324 -0.29004486207308117
Ni 7.316868080851852 6.685067776637213 12.025430214698526 -1.338259195449308 -0.1185067726893572 -1.0404691422131693
Ni 7.534491934069277 3.8083627244539433 8.38678820117804 0.8948292607524461 0.6656544946918601 0.8456679685364467
Ni 3.18311812454898 8.918702913302981 12.590197302620671 -0.5063579416796505 -0.7743568796962856 -0.6332341693796256
Ni 0.052516753383681974 5.874066064213455 10.861867465760852 -0.6026316140024202 -2.027251079315528 -1.6814770420009428
Ni 8.915748743349804 2.517025742575387 5.870619532601415 -0.12794323551190867 0.6103665207528326 0.4781894496652345
Ni 3.685089953568257 2.917470773975423 11.915789479297393 0.15683420751464602 -0.771320149752491 0.27586137148384754
Ni 1.520339860100814 3.7441368813978206 13.072066187464744 -0.3388372009854358 0.4999870051563002 -0.8701201880415401
Ni 3.173362069456696 8.450521682575301 8.397517126437004 -1.1578785680732897 0.5446295835663395 -0.5422186601320016
Ni 5.9085860871848475 7.866991056546226 3.8146075114938554 -1.247650691832116 1.3081978572875534 0.042192574207649915
Ni 3.406531786162293 8.353617613864273 3.9205518873301157 -0.17725982235884954 -0.45757511584899263 -0.8205418628927803
Ni 3.2587594638439255 2.5210831673567573 7.321296600439069 0.279155468854087 0.8372733167148484 -1.1007573975802656
Ni 6.163474423731398 5.87124866138774 9.420906334658094 -0.5882036115025483 -0.32042938790220943 0.6217415953589938
Ni 7.930624242050013 -0.2519952559103072 2.7362780363904577 -0.3981363529663853 1.0165964493606299 0.9428258432363827
Ni 4.7605354658439065 0.3437441156968689 1.6052230100887868 -0.35075657813084105 -0.8683980631441109 1.8743745708970494
Ni 5.915132673686025 5.7487691398413325 0.5849210918249375 0.19184131971745025 0.5405284169137724 -0.6214795999468588
Ni 8.220151133078424 7.811645958966631 0.6417259505449758 1.5343438638241444 -0.35100597513748577 -0.9987956737337832
Ni 9.142973648915056 5.017602958621352 5.96145752331908 -1.6893163355397034 -0.5285869282811799 0.7004985989542388
Ni 7.345105933768492 6.254998985428923 2.9744698420164575 0.20468140890491202 -1.2008414447880609 -1.3127535949790359
P 8.624899770089263 1.8879243096759968 3.4982551160850615 -0.05959225774133608 -0.15728672167103233 -0.04697688297017071
P 2.4033631418460244 3.6321154861980016 1.9330930211915742 -1.4351447903244638 -0.6846474908545951 0.09496138126924936
P 4.594700764892067 1.3337074379662628 8.476585849946146 1.4599050279882793 -0.5702351999495856 0.14967599920330996
P 8.551191406195779 1.6844877664806233 12.787647092756613 2.081273042057938 2.9117288216303208 -0.15970767240769915
P 6.411250869649931 7.748824258419117 1.4910315764665718 -1.9136764538204658 0.38211400939619994 1.011298177076168
P 1.8370834094941484 3.6668361009563375 6.05005435670807 0.10052987649596236 -0.6283925250166081 -0.6732880999777179
P 6.780202990499733 4.10781890893609 6.1232101814066064 1.262331433772742 -0.5649222723771045 -0.8079521991532279
P 2.2443850328842765 8.899136096267428 10.299102648584748 0.7178391471152153 -0.030592785185192473 1.0143025111201305
