# total energy = -340861.46344637946 ev
CRYSTAL
PRIMVEC
9.34816387384202 0.00000000000000 0.00000000000000
0.00000000000000 9.34816387384202 0.00000000000000
0.00000000000000 0.00000000000000 13.68198275625468
PRIMCOORD
 96 1
Ni 8.114794912783681 6.583565720070747 3.044460366105169 -0.24029915810852162 0.7507901481199393 0.2725665027826596
Ni 5.710335064700171 2.3122963034500743 2.4720059387725613 0.20922017731553 0.30528944693697746 0.6154485632614304
Ni 0.8898890828517397 7.36979301709835 4.749604663501069 -0.48910172570236415 1.6322337315940987 -1.138178261430885
Ni 7.41452397977925 8.541258134832301 10.664312084610566 0.09716893044352942 1.2174811102272711 -0.776443072801353
Ni 3.746725262399012 1.4252584104870856 1.6185924553533406 -1.1839269284209095 -0.10248700022233317 -0.9104276294113351
Ni 2.3561578869189943 3.3666476279831246 2.3757937044970987 -1.7312425434598442 -0.04002744823553106 0.6349262123700679
Ni 3.64667186771277 5.4066973637935245 7.918789162769213 2.520309732783111 0.24458904373312718 -0.7102705907393381
Ni 1.1276315787557403 1.5989753341023754 11.335796282718537 -1.806183772853425 0.5638413806080999 0.32886620581565296
Ni 0.2281288444889459 2.599051220949886 4.062700669584918 1.8642588226192862 0.3457048746395466 -0.38030780942539666
Ni 0.8667000283008014 5.427067012211848 2.6841447494755766 0.594755296578137 -2.5769791604506973 2.677967464640317
Ni 4.290928604607702 2.4944172261145026 6.666477387219276 0.5827572436759964 0.047727645093266186 -0.07828289217230389
Ni 7.911808889031736 3.373668098823951 5.967054332650614 1.0464281880100816 1.0244871649626162 0.5841970614463164
Ni 6.20579708205657 3.2384843054428663 8.727325852155847 0.48854791008142306 -1.2839981201128983 -0.6294829298673095
Ni 8.045637198695218 7.797387366938901 5.622883929322208 -0.046688405195474424 -0.7525145870102137 -1.2642078248598487
Ni 4.515705197640562 5.469732030743849 5.1822975017525215 0.6189231520735922 -0.08471553517152507 -0.414531506494957
Ni -0.1992215182824367 3.5320072933671236 13.405879798445593 0.909223581800905 0.277735962798741 0.7864289803694713
Ni 7.465667782668947 3.729094625906603 3.6191303082037902 -0.17452468281587363 -0.03771962603796084 -0.6498422102499518
Ni 0.8604470416890451 1.4881154623295874 0.8876539369422302 -1.3920415313770864 2.3716863432140314 0.932155250896414
Ni 2.0817986343125727 5.194662317706132 0.6206872120867083 -0.3404935056419362 0.001602568600429498 0.07871535172403218
Ni 1.5496170304544858 5.01498126573339 8.336336106405076 -2.125964214317726 0.4131847626590755 0.5548301782484252
Ni 9.019398005094091 8.70230829681068 0.73827869644602 -0.29708994184532056 0.1584833130822948 0.3981435520552369
Ni 6.052851777893101 8.716358586655902 6.516742242425632 -0.5275955109021881 1.915089017897276 -0.32441305514030583
Ni 4.708024966759507 8.904565163804191 0.6912929567121143 1.6780531039210582 0.2145181924896757 -0.6743808188212643
Ni 7.1587301800222045 0.9108775796983763 8.796104965619739 -0.61084885970589 -0.017794862089575807 -0.32805193744447375
P 1.9852414528013889 4.23820496207473 4.702579661480171 -0.20675860314891487 -0.23741360903061046 -1.0953513960733456
P 3.580617743929439 6.1010322129312105 12.838789347369264 -1.9655890835293568 4.479942598729032 -2.3498281096883593
P 4.504889372390447 -0.033730978608462005 3.023745770451124 -0.5379002352623059 -0.16645733242670685 0.4338394627949496
P 0.995112011992013 7.58881114137229 2.5475166648229766 -0.2632061446136822 1.022075727307646 -0.4735930885438037
P 5.4876711566340575 3.2612844763893056 4.795288204049719 -0.6758162657162103 0.82187677965412 -0.7525762934860846
P -0.02525780314890766 9.248343879079027 12.286542845225226 -0.46900598339375354 -0.883336429621498 -0.7754177168606323
P 3.06033635229555 1.2457175809678878 11.913886717867305 1.2010131944792348 -2.1200797305124905 2.6928744636591366
P 6.786972411183328 6.238384780260461 12.864087347621522 2.363223042938027 -0.3811591016820984 2.7095825204424364
Ni 3.5983231657304056 0.07385890554765333 6.844028927530846 1.3290209646804918 1.5841975541214781 1.088915667750331
Ni 9.225029559136255 6.324490714900746 1.0480572060015871 -0.971029045143476 0.7761471388274891 -2.2791083745752942
Ni 1.775403225152871 7.294727263633852 12.463669978910733 -1.6690899811904998 -1.2734298576787488 -0.6418193399454754
Ni 9.265768855972903 5.94435699150344 12.513609738332658 -1.5932555505586883 -0.4669326458044926 -0.29648418994052167
Ni 6.948284321741657 8.658175616598239 3.3760014004509418 -2.0681503886330512 -0.07992736975426235 1.4830529268596524
Ni 7.935076468156659 1.6893159868397245 11.96032372039967 1.1708027323341255 0.7602317531488133 -0.0865890980451541
Ni 8.333383021533415 5.357862557305537 10.432689831395633 0.10887927690192217 0.31844835291643864 3.8194961306006734
Ni 7.736717785371703 2.157098091866313 1.0259637562210149 -0.35294253003856635 -1.0781347750847432 0.11495582211330524
Ni 5.236084030483367 4.3732765774929785 10.390863343135834 -0.8005255676718536 1.998750914993306 1.130787882504085
Ni 2.4050020415705515 2.9220209241186232 13.30051477721906 0.35516293472865285 -0.818425844991042 -0.03828346896123084
Ni 2.3155775088630306 6.024022041444219 5.809944421616853 0.5382704741175312 -0.20129809425497588 1.1116092526931047
Ni 4.66611714947665 1.242314849428526 8.85373358957772 1.0186929268783422 1.0021730748464481 -0.9062470156710845
Ni 3.461718451486729 2.786070581324825 10.59899366130017 0.28559711071437266 0.825133853138837 0.9672325542155212
Ni 2.910924653961418 0.3337771150716395 9.96650345789039 -0.8238786405754973 -1.6912014683775582 -0.010045557161460118
Ni 7.128507567201442 4.7838572696367185 0.8289082074376721 1.1528988554705113 0.06415159497724436 1.4954664700326568
Ni 6.380196421612446 7.184727422909473 1.3862176749710478 0.9599694448952047 0.20171409874647195 -1.2296689105427145
Ni 4.496952781519792 4.43295525372179 13.016846623329956 2.420460170183625 -3.1768959466251157 -0.9414757569663913
Ni 7.0006620822225525 9.189955249422828 12.897457487116196 -0.6583132238354404 -1.0825437027857163 1.4516983238077708
Ni 2.906568409737949 7.950949649897969 1.6130237543148844 -1.2520958720876627 0.12734931068165165 1.5335797319646103
Ni 2.842823282356328 8.727847479683035 4.949621710503285 0.38257320842080567 -0.1874789289836965 -2.414610139160751
Ni 2.266602479921498 7.581416743988676 7.886609044496961 -0.8581853842771673 -0.7130584378971204 0.4477876974449256
Ni -0.0006833507569433176 7.492796153348147 10.259748805356628 1.8970720124945648 -0.9315091326719829 0.5417581755558153
Ni 1.6804819722663806 2.2092701927486744 9.041984103094785 -0.2694647239288843 1.1109052846475447 -1.0643827156059735
Ni 8.557224798209308 2.878925890062417 9.704096767224156 -0.12223590071448626 -0.7039104528492651 0.20608934499603215
P 6.016515466097769 6.172741975674195 9.392886119009713 0.8278425103192517 -0.26809381172328667 -0.2588992897082122
P 9.042338398494076 3.643250439846268 1.9945045480825807 0.4295801732979634 -0.27512449331782296 0.23678805963146962
P 1.0036655816582667 0.39183855900289727 5.573971533076593 -0.6840836479313251 0.5052307700537427 -1.5969486831395594
P 0.2875149231980268 3.7331797733865515 11.377143210187215 -1.0166620124912424 0.06995123237815695 -0.6974135322710119
P 6.876565210835103 5.680776171492855 4.469356067845752 -1.280010339109744 0.4238566405506249 1.2623702574304774
P 5.196859136145005 9.032046070403863 10.143206184949834 0.7917228817785591 -0.36688665092348427 0.8771647535931474
P -0.024700652600154967 3.5562751259940026 7.761582965650685 -0.07328826717118991 -0.49541944039027586 -0.39522586418780964
P 6.792048464001662 1.6319743515033318 6.350464587379091 -1.4160348089678902 -1.1460147267561684 4.511987028759088
Ni 9.098324550112865 5.326770565272794 4.87286580906539 0.16629252471406847 -0.8548632618824697 1.1681709511382334
Ni 8.340693285444901 8.430360870405234 7.834823022770026 0.4782069331667313 -0.910858803411483 0.3540259929107322
Ni 7.760256461240148 1.3184089008856887 4.663476293268216 0.9856115709433413 -1.078398056048459 -1.85402171827231
Ni 3.089306311197976 5.903935532228162 3.0735892437882795 -0.8753757800135246 -0.9474021497531554 0.8600604898126929
Ni 1.9559630045011636 -0.09829593993514342 13.626761946535327 1.5185637181717524 0.41051492913639626 -1.179167302248737
Ni 9.0906684041493 -0.038834141101148155 3.2768893658361664 1.1812763781719398 -0.30034470133719243 0.0018869326100677182
Ni 7.917660839426353 5.01960860670038 8.515364656560656 -0.7727250005198175 -0.4520827252758537 -4.845425941547088
Ni 3.008921452662332 2.3382841981737736 4.509129699385652 0.4659072898637718 -0.7634492316448465 0.032298969243021794
Ni 1.9190003657466643 0.6396237870298009 2.7458921743023574 0.18775095169816053 -0.37773516360221393 1.0434840177800933
Ni 3.6926928769662846 8.293485059418039 12.056822943296721 1.8390375861586519 1.5534404754442797 -0.5864660599861513
Ni 5.379755956385718 1.052332121202 4.82181829226046 -1.5500975271139756 -0.5809620994487866 -0.9073564466851792
Ni 6.693948835501482 6.818457026085997 7.423036417525797 -0.5058758598369094 -1.686420244938831 0.808170228701305
Ni 5.629164960424674 2.1764113978012634 13.432381842165624 -0.28362841702377606 0.006119739744492687 -0.15350617158267757
Ni 7.013945822655063 4.151687708237378 12.428357291026282 0.15686068987720728 -0.7326029356879512 -2.1271780321201685
Ni 4.055018348763358 7.302710595322354 9.462103661345022 1.0380949855540378 0.21764233994095422 0.33832606567697215
Ni 4.18770618247134 6.24675138665532 1.0458286038065763 1.8720009284585504 -0.11739734167526232 1.5519600342440112
Ni 4.794093508745514 7.2476312155698235 3.608335048913528 1.0723392514488888 1.2300391493979397 -0.2134902654457936
Ni 8.97300306929779 1.4018599570721868 7.1079406725317975 0.7752755348558132 -0.31556820315516626 0.19364854812951812
Ni 5.733798955260058 5.175592064023993 2.5069222645216582 -1.0186857277894907 -0.6821563490016251 1.8100643388547535
Ni 1.9789875313732754 4.837412898727393 11.899493350419075 1.3447059795159164 0.4271329973090514 -1.274186019118483
Ni 5.754607967366156 7.13548129722442 11.450984354224087 -1.9212285551361103 0.12060196465548906 -1.8436755991512956
Ni 0.20076583490414718 0.2821154239201819 9.45305931309136 -0.013637131167460384 0.8925970289878175 0.19864548712347724
Ni 1.704768501220399 2.9102702825115405 6.569404187079045 0.04412578667462078 0.058350929135067245 -0.2876910171289239
Ni 5.947152092410773 4.44709902520271 6.757736029619166 -0.03950474296284164 0.5525123287485258 -0.2599773532637394
P 1.8116180108217959 0.3580225121059512 7.870477853441127 -1.4959166701961981 0.6745937061630188 1.122454680048041
P 4.296602939894496 7.423180379244769 6.896745091532964 0.5711140030101132 -1.5156236617068222 -0.694232820550185
P 2.2620873169173445 6.411643643860836 10.179955685574944 -1.9011603236313255 -0.10661696323030671 -0.023374413059882325
P 4.008875813383438 3.480031503919725 1.1527257890421787 1.6602739255607666 0.4273024330073802 0.2420282249844864
P 3.8641008041798646 3.369713825633978 8.600863895385269 -0.3404757650301233 0.29663537080640523 -0.49379758851613675
P 6.96381162143089 0.040906628964545326 1.4634381801383565 0.022676358551593206 0.9805428981711823 -1.6078131366578892
P 6.316713042810776 2.6436045685229623 11.016445253667623 -0.7015720345240757 -0.49971164000772644 -0.7041472514504196
P 0.3773750803278946 6.630063485666316 6.9497632012183805 -0.8091367063796323 0.1385536640379033 -0.06821085264828253
