# total energy = -340866.32163868914 ev
CRYSTAL
PRIMVEC
9.24862282330467 0.00000000000000 0.00000000000000

0.00000000000000 9.24862282330467 0.00000000000000

0.00000000000000 0.00000000000000 13.53629436703087

PRIMCOORD
 96 1
Ni 8.778857398559866 6.835314831803654 5.136333594862875 -0.31973441871771385 -0.02781933620511338 0.40719589206549234
Ni 2.9595500124648875 8.904499937815725 4.480621968736733 1.3363586359924855 1.1092116989952059 1.7059295186163523
Ni 8.234215256915535 4.892345679654277 6.782888089218026 0.41908647285549117 -0.3851808212469818 -0.22340623900792492
Ni 7.2527514169573655 2.981515491355772 7.99553697599378 -1.2107795298373794 -0.4565554163352266 -2.6033144559111165
Ni 6.774199933062195 6.669745988391186 0.7085582561819371 0.31188844031073387 -0.5486189072313907 1.6286958936441691
Ni 2.735964558912412 1.6459773802992386 12.426047132404417 -1.1309274934057425 0.9250366375737618 -0.6281081610069699
Ni 8.446813346711222 3.382471030874303 11.692244760587672 0.08840712509049937 0.255717806656437 0.7868760952092191
Ni 6.149344486819698 4.981252689581885 2.62426801781216 -2.1896776933162867 -0.8443960438025586 0.2099969075805545
Ni 8.2086428151752 5.740268656578559 2.7087745330634387 1.890279415052764 -0.23422981198599013 -0.11544998814090439
Ni 8.709363247660454 5.362480916900729 10.273695636568975 -0.8816438724104235 0.0896091158184005 -1.0195362487152442
Ni 8.185595247429479 7.2430866062453765 12.606621866132867 1.3193890980176826 0.33789669144903745 -1.3354091275950228
Ni 6.391075738091717 0.41425690867258114 2.2610209627289612 3.2858945227137215 -1.2385371595666217 3.4307417330698207
Ni 1.0831524464445992 3.388750845681423 6.567362810340668 1.1170751609036826 -0.5126676859477622 -0.15795855092707634
Ni 1.3691383572925684 9.062679131698165 0.36757910995161547 -1.1966261211551326 -0.4790474267901556 0.47219672241690935
Ni 5.0411560187508355 0.9205144915628769 12.95763114367147 0.8282433453020961 1.0581789007881068 -0.6968329771771934
Ni 1.6089181491768076 5.795334956080169 2.444843812746456 -2.3315640212718494 0.6675481121701471 -1.6344502796294431
Ni 1.6326223691335808 1.0355405368318529 2.873118858831632 0.41652462566558585 0.48581457031066017 -1.4587495742275975
Ni 9.123581312117734 4.141098555717958 0.40807975357732984 1.4940567341693238 -0.997695755801385 1.4293307547458483
Ni 3.8010544452416863 6.201109028020658 2.473080782684039 2.8001419159892484 -1.40649267380541 1.3736920823356213
Ni 7.429982773583057 1.856697999688674 3.971453844285611 -0.6987461350395062 -1.577818904288644 -1.68147189979462
Ni 1.1503436902939783 5.504752479754823 7.475716287927282 -0.3402662201224785 1.6589230679598268 -0.5981764064445441
Ni 0.13987894416395896 0.7874480828730339 12.099024157814661 0.7148319848577754 0.8767279231660449 -0.3991408829714997
Ni 8.61444463298376 0.948899439463514 1.8199411985282357 0.6568872900221913 1.4122285478479226 -0.49721921260317586
Ni 4.7404093060881936 5.956371974374098 13.507082569115068 2.2032664877443153 0.10048719618348499 -0.8950578318234844
P 3.335885718380246 8.881988790186078 12.730139996756627 -0.5073755843108876 -0.389590006058271 -1.8460050186154207
P 0.8457060820652738 1.9981371865005877 0.4679063191779462 0.17013555260924249 -0.31751529957920804 -0.7401581223273898
P 0.6873798350820483 4.973363614426549 4.970567755787091 -0.4043671643674455 0.1462985980906448 0.6064625577127362
P 4.59239434854305 4.2348148494448346 1.1126416798945298 -0.08277023851969616 -0.9926476518545162 2.5879199757329174
P 4.86511773445227 5.740842071185395 4.636140333871001 -0.9479356536591222 -0.2711814495096749 -1.3297534719711421
P 2.576231596417901 4.5088885342669265 11.381830462626231 1.4339137461308402 -0.7147000872656014 1.5481368038431789
P 7.236797542815565 8.856721552994543 0.5019634473749115 0.23148001715499486 -0.41208715871952256 -1.4148402744391568
P 6.198056982532662 5.698936561772932 7.648940216341007 0.7311286651352699 1.6185372079436127 1.9839765848976088
Ni 3.6920964213202088 5.854091456035449 8.271284661522925 0.4781470264630733 1.6524976240494573 0.4236447816501349
Ni 6.02257361559555 8.126894239210346 12.171185611498128 -0.6181366516165548 0.6017332705578669 0.49438945646386473
Ni 1.817123143194319 5.412340241827364 9.604284950513076 0.1925918247302296 -0.1882284055552113 1.4790227226543367
Ni 1.2569710612973493 2.9958693537720467 10.520963113383768 0.2806523651145877 -0.728313821394294 -0.4171365482179719
Ni 4.16180622192288 7.163123014459866 6.166310160283882 -1.258576080495368 0.6279019585334347 0.06700346260374268
Ni 6.883731371590509 4.01546526508479 0.21302630102627665 -1.0575857472887982 1.7774036153969388 -0.8108050952209908
Ni 2.3122944020650342 6.336980543972651 4.496892145774561 1.1419300151638332 -0.45289365121292324 0.4078823766095556
Ni 1.1810121231369983 0.2935050410956697 9.829204055457579 0.2334119440703851 0.18602111349124736 0.6183693364526512
Ni 0.4265797735459345 8.948060950689857 4.294091121995343 0.5512661150462506 0.4221260310127633 0.7874345388158503
Ni 6.039193390571095 4.522678230699055 6.003034975298758 -1.7686209841083023 -0.8574343650437555 -1.2437575274252968
Ni 2.5124715915868454 5.1932681161480465 0.25797460730404426 -0.3167483395061964 -0.6131520539177698 0.1226210519680469
Ni 5.508877365474965 9.163220908970926 4.661561098199205 -0.6439831803660135 3.7162552829314515 1.9253266364648842
Ni 6.1053210428110205 2.304645791099661 1.2996525301535775 -1.4102819656445131 1.316972261046074 0.7986152380230181
Ni 7.553165179203137 0.5091265056490125 7.9029212683671215 -1.3004778629354763 -1.3686131251508171 -1.3071645309270326
Ni 8.12128032523697 1.554036822129015 10.110542533403372 -1.1306387585207305 -1.1984094383078006 0.6571143184313328
Ni 8.112420144699088 6.801492618623037 8.123021840889667 0.7262854781103556 0.7568764635233352 0.8151224916494219
Ni 2.8460046716887244 8.226816358762814 8.271961660703898 -0.7668541435613373 -0.3126348315584551 0.6163039692831902
Ni 7.390546646429065 1.5850474540115982 12.92615900551661 -0.491383065537373 -0.3367090988988395 -0.28272930224827436
Ni 3.263838947618145 7.411559517182787 0.7185948615261004 -4.040317896710874 0.7500573837189728 -0.9265073085820172
Ni 3.863297675951434 2.3612658592133426 6.126919351381076 -0.4370086045515506 -1.1289639419214685 0.3776814275461431
Ni 3.957485649435547 2.899350727369828 10.09081984551503 -0.5498959741716014 0.03467338301246932 2.084208470537178
Ni 5.596452573735084 1.577306356819316 8.890691744138213 -0.8132733542558251 -1.216311515399202 -0.7414585863063682
Ni 5.102816586231057 8.366470561395385 1.2494907752649502 0.4265367584859493 -1.8909887824149627 -1.3309814308409722
Ni 3.545616735141756 7.022358977104389 11.762010820994197 -0.546788024670239 -0.021354297306059998 -0.6185991930752701
P 0.41285759205944816 6.261872479099862 0.5202405755366655 0.04247462422444298 0.7552960064100928 1.3190867362859153
P 7.709050714658234 8.548141256912707 3.9766386221661287 -2.1408341894510223 -0.42841057846989444 -0.7012334202377343
P 2.6131336009545865 7.996821609685547 2.773342867517679 -1.0989473409547204 -0.6591894557928067 -2.344380713420543
P 5.74274728745972 1.663568260657328 11.002598088084085 0.3162050654082167 0.19727920290356993 0.7822324257896206
P 0.9426566191471574 7.42208444980503 9.510004490802055 -0.7115625700778843 -0.5527128747951062 -0.5744492380309333
P 4.629943756668099 1.18010575811329 2.877545249651496 -2.52596281730383 -0.024768979414563796 0.21983883337164076
P 6.897132625869621 5.109262876246614 11.890781244444117 0.1474962179431718 0.6331976597147352 0.02418791010011318
P 7.910864910396334 3.3715576560990423 2.28874370924493 -0.624117808900654 0.4287821028767002 0.30087897657410767
Ni 2.900830507000372 1.5382864176864144 8.62175289463411 -0.6069184143032322 -0.2629521196213471 -1.9550334195006975
Ni 3.1595052350421176 4.689458643684032 6.351797762385739 0.820367284988129 0.4475537270572486 -2.0542065248584493
Ni 5.7733139854531395 7.475717212789551 3.5286279401208436 1.03078482504587 -3.1116385201782024 -1.4825286789250662
Ni 6.3842317573004514 7.448627996927909 6.226709215629066 1.874490013428991 -0.8322005301776313 -1.2382293985182158
Ni 0.1166612017607269 1.4832848585436398 8.051888834049427 3.5915953461565047 1.9523083072600504 0.27302081671125883
Ni 7.79597851932999 4.0233358429947454 4.61686435445863 0.8750019416138737 1.1752198875652147 -1.3489207889282122
Ni 2.710780559325095 2.819424130075082 1.320784708140012 -0.02188265900570425 1.3262886533509932 0.24148495088650668
Ni 4.605185193724563 5.13042372496339 10.683005456964196 -0.08581622443487157 0.977697201192271 -0.27270585657400126
Ni 1.2089614609088941 7.94632412979324 11.675608338091282 0.09497629366758481 -0.4142638546558672 -0.001395337685629855
Ni 3.1882961974788846 4.104215048426655 3.5379810722481495 -0.2212462552421286 -0.07416269935634325 0.4072804813594986
Ni 6.467626588104285 3.712360153635968 10.318459895255195 -0.03247611825083439 -0.9291097792018709 -0.8893373843999393
Ni 1.8078097801445838 0.7076056480447747 6.304393946783538 0.3394678925908992 0.7990279000804045 1.1752396850595566
Ni 0.8336227565196146 5.436701113995191 12.16013998141839 -0.21503318445288128 0.2692610925585105 -1.2185123797052628
Ni 1.7359109873455374 7.576610437724565 6.222552884591775 -1.2001863277025653 0.12769666671874136 1.528738087601593
Ni 0.738813275590674 3.750593959840143 3.166734883399593 -0.2377195703068035 -1.3438330899926598 0.15001821303407714
Ni 4.204590350490978 3.7361568598196504 12.686201640076705 0.26398493176123566 -1.7256601642760603 -1.4670614365274024
Ni 6.557745167604402 6.713390238869536 10.399583264326145 -0.521354929309115 -1.8800055439305816 -1.0093801341178485
Ni 4.966353158426847 3.963691475261139 8.224272987522818 0.566476761348418 -0.5526691660413643 -0.2077327941367261
Ni 8.807481885788198 7.884672810935709 1.9253754972044805 0.2434564727905807 -0.29902572541545275 -0.32142491904625936
Ni 6.072553172617167 8.189590652431948 8.361640005763928 -1.415258078702866 -0.578321833612462 1.5727186069476011
Ni 8.677233532432272 2.0984015050926206 5.818075469552552 -0.30466261198625594 -1.2791379638071196 0.8020967688137154
Ni 5.09552867155063 2.8338704787182656 4.113896506659486 0.2867325098703965 1.0610202268916435 -1.399378688468448
Ni 3.7859884388782126 0.10785466323445318 10.352381993560874 0.39857524027601676 -0.02897658973800816 1.1933122262905513
Ni 3.365638537576867 0.6415085162597289 1.064552541350933 0.3030775268873232 0.6393559660066472 2.628086006428842
P 6.149205757479335 2.3517212805963355 5.805147744755213 1.7678223994664068 -1.035723399998068 1.78570776438726
P 4.485609750953934 7.320099887392489 9.779444615656006 -0.2586936014553093 -0.3364769282833754 0.09251420528033745
P 9.187637272874898 8.915172848401022 6.540277293928102 -0.7902493825568261 -0.26914950668131066 0.24833282704627554
P 7.762156306149374 8.341138583845014 10.516902043160195 1.495524834074418 2.0621188377269903 0.16113746287569022
P 2.6543917067786853 3.7214330524957395 8.228496833505751 0.3604810045074566 -0.1590337862691261 0.2800808088818338
P 4.438663742174932 -0.02478723367387756 7.308083151930205 0.26710650810935294 1.2706438102931794 -0.9351603562713249
P 8.805780139213073 3.3990538113590842 9.160592450402172 1.2895969543569146 1.3733385556509445 1.56162712502013
P 1.8107600907829804 2.1162975899995096 4.718196888971462 0.5504017101634263 0.8173917472995728 -0.21826274713377247
