# total energy = -340857.6365440212 ev
CRYSTAL
PRIMVEC
9.36632212629901 0.00000000000000 0.00000000000000

0.00000000000000 9.36632212629901 0.00000000000000

0.00000000000000 0.00000000000000 13.70855919418237

PRIMCOORD
 96 1
Ni 3.3703867775656366 7.128501832465171 0.47782012150221265 0.9767073264751759 0.025551366106543093 0.3297331818016386
Ni 1.7744029253918314 4.4757158368092975 4.311396825159985 -0.5915424460677942 -2.179973064434013 -1.0592775331689241
Ni 3.9881612965556816 9.032347331843727 1.9238866191730133 -0.9015015305662991 -0.4142168034680157 0.031306780533081564
Ni 5.4370095919453 3.596358669027556 0.40338408503424583 0.7069142726725954 2.091100055450689 -3.1350743826036394
Ni 7.076546842747055 2.7480040280110862 12.352111010720257 0.5069312976846173 0.0010945186157594053 0.22981162831363647
Ni 5.600386351572683 6.135212720401626 4.510389961910517 -0.4545535554138494 0.5225564058163839 -0.252156828778056
Ni 1.8425803853085734 3.5845102713362964 9.523966855969286 -1.541828602236964 -0.7747322607578335 -1.1509214200291662
Ni 8.755965893840813 1.7156573520166696 10.904802538714389 -0.5874299665613174 -0.08785253813860999 -1.472113397129013
Ni 5.512202427253941 6.101241069471825 13.651174953383327 2.49364713589026 0.837024691039152 0.9092202393667953
Ni 8.879114299251627 8.18248471293928 13.776827913373305 0.6742972579685227 -1.3147436288258711 -0.5527966927581641
Ni 7.743635048570682 9.339000723473639 12.042805076619068 -3.4343325357448724 -2.2275004205910154 -2.32035221171643
Ni 4.638109132596696 8.069161579606039 5.315219303265894 -1.5922996144033223 -1.051253634423183 0.9406177798414703
Ni 0.5311351012161949 3.4906503557124924 13.549608427782946 0.08420748518685497 -1.617238800847163 0.1889403440205714
Ni 4.802122802139499 3.0502552481667746 2.330386879631672 -0.40653151900861595 -0.12921953112117102 2.5614332422962987
Ni 4.679695603544674 4.270836903134506 6.068477674116863 1.0156811366352119 -0.15044475904853447 0.8026405571323273
Ni 0.8662789719743855 4.155340783031011 7.128040072776492 -0.8608927559060013 -0.32382144430289395 0.4615163598849278
Ni 0.8423292858901559 7.48994820946573 7.960958078034096 -1.0372817456241232 0.8998997332968179 -0.2576029394942918
Ni 8.838473826854493 3.4973285435021118 4.92714447200743 0.3046361296236947 0.9367094459259996 -0.022640620217651328
Ni 1.3616572012331478 5.988386252252862 0.27347319493324185 -1.828411988124006 2.7976849698083237 -7.485746028148276
Ni 0.3905091384204866 8.11837223689448 3.9734261983360057 0.46257308328421626 -0.4923104624476489 0.24701822199991005
Ni 3.945235441520865 2.6165289620883905 4.612491304513404 -0.7807712678630617 4.086036224683595 -1.8394186236471544
Ni 1.888128810583352 4.811788846738218 11.663969185663102 -0.21723687697241942 -0.31180487945799207 0.6767212940289828
Ni 8.354778211382536 4.136486376270137 9.006880301549234 0.3867203978199598 0.3988948283989646 0.29525288863658183
Ni 9.111314795033458 6.145768565617475 10.196974577477398 1.0840056320432236 0.9727149174863312 0.2696804394841162
P 4.069236182259668 2.0936165552067068 8.789393361445821 -0.3147523921220902 1.0907583773860248 1.1515086599912039
P 3.3564965216161204 2.5646770019154155 12.491897751039177 -0.21699570749589084 -0.7914729705512821 2.1764087441215225
P 8.734123630270838 1.1656762737296575 13.254203052585789 0.7742946589997827 1.9253086387427552 2.286661247221888
P 0.270168756430889 6.27537973340534 2.739819735597946 -1.403569586621344 1.9379546096415396 1.502695383680928
P 2.82726184719167 6.07929577635671 7.100896470792879 -0.7941967972403483 0.1223721691820344 0.6436468800725174
P 5.328669342067989 7.367923762729184 2.263022416489319 0.8822257130558226 -0.899930072314121 -0.15163595114315817
P 4.039245218301239 5.0902496082885325 12.706642231977373 -1.4032433136301767 -1.166406403038643 0.9182106157908638
P 5.782514488415799 6.131100904918256 9.343287689183748 -1.0123513009310305 -1.132434416968572 0.4114197003388527
Ni 3.2944446364741484 0.9980378374623347 5.739718825260753 -2.0903546926442322 -2.648659459704819 -0.7889283497525574
Ni 3.8278941559271105 0.18115497595764443 10.838796192303445 -1.040744250251427 -0.2926892416744637 -0.31616958418459096
Ni 5.874791495573341 3.4736317481195926 8.754437310043807 -1.0741323387935695 4.425509259480816 2.5915560298236078
Ni 0.8326763541426363 6.054353260110207 5.721787937877237 -0.033804350143954685 1.1701902955611072 -0.18960291730523474
Ni 2.055860910073531 1.0311477867418624 0.41387249272963905 -1.1507638114053793 0.586779477461512 -0.9785574923100373
Ni 7.9527194609517 0.0058155495071170425 1.7777944706914404 -0.010703502460433178 1.6441510518569749 1.103561185577648
Ni 9.288712939122355 8.611059521760593 9.836850725183567 0.39694156132733577 0.08506674786335672 0.4592676730600671
Ni 5.935129343737051 6.067157022674596 7.079689243873867 -0.436479471520958 0.012870428204764932 0.4488853013844785
Ni 1.863045799502567 5.4008930532121004 1.9664649836510344 5.105146441605014 -2.7924424904624616 5.957002027009411
Ni 2.791726020440177 1.8159987626620953 2.6728402283015296 -0.9198561218140869 -1.0072744006287557 0.4489416085437107
Ni 7.757759462577337 5.891491648208531 5.555804530757777 1.0528106944976579 1.989324993693716 -0.42838281055575256
Ni 4.421512929742643 1.4288605636321892 0.38503733294125037 0.32150950834026565 0.24023230942632823 -0.6206059390926537
Ni 7.245992979215496 5.387021529907155 11.034389354064311 -3.220630154288273 -2.1341611483062213 -0.9704849997145479
Ni 4.8359164929458744 0.5950021796171124 4.183262726396555 0.014859947830967956 -1.2225855213333718 -2.140398901685817
Ni 7.074280192753944 3.2421056275423235 6.8688655054444165 0.8101728609536304 0.4196310325050515 -1.1820690492765644
Ni 7.457934119893615 2.396476586310958 1.1589353315807254 0.5579399275220004 0.25319632578616397 0.31963620257695274
Ni 8.892573704376007 5.39241653154365 12.786576299626974 -1.2919142896361815 0.26813752047702855 -0.04282326581311335
Ni 5.361657529157803 8.091949841726855 8.449914756733865 0.9477803590281807 1.268433690015738 -0.848407993175429
Ni 3.0061305038794037 7.103437554028957 3.3376093327272467 -0.24998938881309207 2.104736158176885 -2.5250631883076964
Ni 6.020793727360972 1.5286493612627656 8.13831969346608 0.31772510159716894 -4.2265436700137595 -1.866126214845328
Ni 3.403300034077167 7.7440939983626755 9.322875663026782 -1.643917852800246 -0.20544862608823972 -0.40276896664239026
Ni 0.7514450508564808 -0.08900628741541607 11.947421260359402 -0.8736485129097727 1.6214870346005559 -1.340024771990163
Ni 2.3002750901157585 8.0178715987702 6.2524743922559525 0.8553216895761269 0.3325210289594209 -1.1549166572314884
Ni 5.578113237177573 1.603289583556558 10.704931777565696 0.748484382804898 0.5424629149323239 -0.2210318252384774
P 2.5322882594518776 9.172589275425727 3.652878804227664 -0.23227037426677413 0.6436774762001366 1.2915954728441819
P 8.735425549068534 2.2405741518674676 8.193551022719692 -0.0445729015143684 -1.0448158492176394 -0.5590416452266114
P 1.8771327482200804 8.261227384394155 13.137666334076366 1.1139121897946687 -2.1329486160553586 2.447848846609223
P 9.299231319049063 3.6649857124140053 11.266188034620091 0.2557111217882177 2.228165307868524 -0.1419349218053104
P 0.5773532185343928 2.0846623511016915 1.9344284149054345 0.16451357843677475 -0.37546513662111464 -0.2648218258402343
P 7.373515457133675 4.764901037376601 0.9317664241307085 -0.09637908755238239 -0.43151081466177293 -1.3177875578585176
P 1.4474995449804948 2.539781317280342 5.34419964104971 0.7454728496720839 1.7475173693604678 -0.7167582553462107
P 1.7103185483138883 0.25002648035574776 9.08316805993306 0.7360109329282356 -0.7339787329895552 0.35786542126148047
Ni 1.6733028426412737 5.800891212740109 9.15194402784385 1.372939520440313 -0.303163144622594 -0.515680504632157
Ni 1.8970736483660815 7.2695680124083015 11.043011990360418 -0.7729026637482624 0.3892539628750909 0.8265960395066603
Ni 2.3422549465997315 2.372367672747873 7.271622983517758 0.04998533077919133 0.13323148049404152 2.1729027878507936
Ni 6.629951229848283 8.451335627824587 3.8450317158130374 0.683313859644836 -0.7067566640488085 -0.7191092720768907
Ni 6.03116224613111 8.763065566133283 0.27110351539498995 0.657834484426809 -0.46186011637759167 0.5575789446381558
Ni 2.7860406628128294 3.393381098776737 0.9758452734388798 0.05499229707547948 0.6477799284042843 -1.3662466818011696
Ni 1.3505019113910213 8.597066236265936 1.8060479818658945 -0.0804503321372679 -0.9241969152812857 -0.4207728594189785
Ni 3.9273176669885492 5.965888346122899 10.851983974081543 0.41342438947370735 -0.11623751703920628 -1.5227533307730678
Ni 3.6009949985589187 9.611157950125756 7.722785615162979 0.02876318817562143 -0.5941932534270798 2.35350401587805
Ni 7.261363114086133 0.25148388010338407 9.643437106618554 -1.4105871555897578 -0.36617445534780807 1.4191499575581041
Ni 3.7751336624924345 4.8256978353323055 8.492630806149483 0.947946966513032 -0.35547043866674266 0.07108534598260016
Ni 8.219369290099896 0.08363189168794986 7.682029937001731 1.5509130810367353 0.6331830044267159 -1.4123789573828578
Ni 7.49577406192736 7.289958496024011 8.645426431490847 1.8860345237334806 -0.3025599638209564 -0.0015496038753070084
Ni 9.105179853936402 1.4204402398974523 4.048974017259272 -0.48021110808095363 -0.235291163370969 -2.6242044119862484
Ni 0.742013164314901 0.6702886781486099 5.873350018573589 1.053436758117431 -1.8720757475605436 2.420324673047025
Ni 5.658429450776427 7.7576189677430545 11.100601759565539 0.3638504352003218 0.29124119637402746 0.22947455668919187
Ni 1.7828607144157107 1.8101448112336072 11.146744946305452 0.8132558707543284 0.2954516349109492 -0.2622262971989161
Ni 3.7804162682615017 3.3920791799790417 10.660913809352381 1.38781746599341 0.234415445634235 -0.8100119098957341
Ni 7.765823866065223 7.009109322290874 1.8662556381498356 -0.87641810523511 -1.3671460536869875 0.1492643655871881
Ni 6.440114609764134 9.06902584991406 6.1944322296844385 -0.5836309045302013 0.3306310110255596 1.0120288845946055
Ni 6.529956373127423 4.74141966740665 2.966491291334598 0.2741734422584633 -0.19190174064174045 -2.7974517707515947
Ni 3.2724993433590326 5.929059966895995 5.036058877440848 0.8171575198015797 -0.35095789550836975 3.19986643937836
Ni 9.29360215935543 4.200411525869225 2.1520521033142157 -1.5999962117166315 -0.8046583588933045 0.2847195932054258
Ni 6.485756698261769 2.1356994412358206 4.036046619240713 1.8011996893752722 1.2664187164682381 -0.40001840048044657
P 3.8344974131384446 5.072088309376791 3.0797516703085255 0.1586000411658172 -1.890672793836441 -0.1145812123827059
P 4.230018470613945 8.919024198510487 12.910611695758233 -0.28099792137946444 -0.25226841465525585 -0.7839869465868821
P 8.717517140858504 5.844585106202342 7.409380041797393 0.32873045156873704 -0.009908774473279707 1.4989922237977282
P 5.6863317248651715 0.9454553041510848 2.1443885784201537 2.483130295519336 0.8244687087510124 -0.02534953450838215
P 7.646581217047495 7.089491100145727 12.047808565984027 0.3866898016923405 2.1025640902262306 1.0694750425272161
P 8.325723879652665 9.039643696904195 5.227156204504635 -0.614987821574928 0.17770668008828105 0.5724270653945819
P 6.835251648025926 4.2388696451738195 4.8809872357840876 -1.5909688114070406 -1.6517797720468264 1.3190085747498124
P 5.482333225485224 1.8505511255736025 5.960604803721602 0.06969257940013159 -0.4849439947802487 0.8757637594805627
