# total energy = -340888.3645189705 ev
CRYSTAL
PRIMVEC
9.07853020779981 0.00000000000000 0.00000000000000
0.00000000000000 9.07853020779981 0.00000000000000
0.00000000000000 0.00000000000000 13.28734663101538
PRIMCOORD
 96 1
Ni 6.4930102769234255 2.342033859088402 11.203519214654818 0.2829761281517578 -0.28676747687339 0.44568453505899375
Ni 4.874871189894843 0.3228543266225231 5.990507268786031 -0.7687806711600889 0.31265051528773896 -1.2526504590395524
Ni 2.976069338049057 1.9704132990034147 4.743995096813658 2.046063584036341 -0.9039921581986368 -1.7572189129189482
Ni 3.545066225803163 4.547699114252521 4.6699179208213435 1.5020608354207228 0.15158967128625506 -0.20436876276049964
Ni 3.923096228293486 2.7280166541383197 2.4051296448066477 0.27816585124730797 2.4736776347468687 0.14811919623915135
Ni 5.05231106498306 4.826727743612274 2.4650951532708425 1.0353300212143912 0.1483020016739188 0.31781071933243976
Ni 5.401543969300969 2.9492513594862224 0.5863323413985654 0.8630864211232104 0.5910346531934401 -1.1517963664349518
Ni 5.7519480040300515 8.062379499077416 12.251266043819237 -0.9025297147204973 -0.09763738543951572 0.6613651232878868
Ni 1.7349434581150498 6.917168291965461 0.695029584910012 0.5664345952565729 0.28545981380556 -1.709863820673752
Ni 0.8218911518840579 0.31648301404452817 13.17420486956781 0.44602726311039315 -0.4357770461372947 0.25999946475092645
Ni 8.333409943225977 9.118294281969995 6.7083829752442385 -1.2744248746021665 1.1383191578841234 0.6151284609178502
Ni 9.041417287227246 2.430377037624265 1.231783164382547 -0.03219998177131228 0.679266686158656 -0.3790356275811924
Ni 6.951703021299592 1.1868635042163158 4.662224774228877 0.39275709093234296 -1.5440081263867862 0.43606063881598445
Ni 1.20940549499882 7.859211069064665 2.8496971038592145 0.21342933030087113 0.3326428992492658 -0.26476037647467954
Ni 8.092719947404088 4.372238358773884 3.582201954073737 -0.4226366521005947 -1.3643083271278762 -0.09577333564758345
Ni 7.907200180331809 4.182515232163826 12.530193901492447 -0.4278019983516181 -0.5005976421571056 0.05784570736387457
Ni 8.301843893306216 7.389996308048578 9.173570729524338 -0.1819690549090608 0.2242469897416654 -1.2510651168303033
Ni 6.735143759066062 0.9257014225246943 0.09200091840145734 0.3407976671459163 0.19034853722200767 0.3300108609430575
Ni 1.9642489769166969 6.5762603999502325 9.15259024595673 -0.06204868970162862 -0.68686866687563 -0.04007038565832454
Ni 0.2264503210162673 5.110159460176824 1.2628862092560305 0.20458010744035732 -0.5226877891879257 0.44070790778000873
Ni 6.753582254144301 2.282333443709527 6.794856884387385 -1.0854138252446597 -0.6486551319203862 1.1442522355391067
Ni 3.645583713497036 4.622497125552179 0.5582842219774834 0.34768899494911093 -0.07069839495682663 -2.1200841013878646
Ni 6.2223792881089075 5.938784157998612 4.59766099015802 -0.7805146717675655 0.06425392488306353 -0.0657986436623641
Ni 5.61534335831747 3.0610806959577834 8.94217170163109 0.40132452088637977 -0.41073141602257646 0.3233645592711334
P 0.4563296029340859 5.865175434170765 12.375130787934925 0.1380319872064784 0.0011019748149271344 0.004390415758211794
P 4.127808008460496 6.43177558992061 12.716096782544197 -0.3469197208832541 -0.7815423417011315 -0.8912176321417878
P 2.589432888816159 8.908307875687544 1.2450287401182192 -0.7933930703921304 0.5647278969781113 0.3363440022499368
P 6.5302322512320305 7.962452115854289 5.57719083465115 -0.8560891638697707 1.4935995920272471 -0.03157108993806176
P 4.763795371439773 1.0940536887634202 12.027227888308774 0.7117394619753806 0.8649820954840264 0.640661057971316
P 4.037195197344841 6.3285617787219435 8.250219738499275 0.8155775769089695 0.12596708562214437 -0.2195737526357122
P 4.901916131715656 1.4549706616021039 3.695808866781791 1.1222939861004608 -1.5215369418674636 1.419799161106329
P 0.34746349875870264 6.020218574961585 3.544213751806193 0.8706904587227133 -0.6095185709302405 -0.3681603754295853
Ni 0.6095325256292096 0.27501047184048655 4.772057741883251 1.3887682599424533 0.2393856451553168 -0.0336912216048581
Ni 2.198538608863569 6.592992131328467 4.769254291720691 -0.4230624267841036 -0.5668516281893334 -1.4043738276901943
Ni 5.9253388545959185 5.484739621145861 9.092438627620993 0.9821632073834247 1.2103141601651866 -0.32147531266822055
Ni -0.24143988242625222 2.5560057401809675 10.128599436392085 0.37372270000871116 0.01582359729581791 0.48697593760861296
Ni 2.6409717054380986 5.491176299142154 6.917711188078548 -1.0938953803531097 -0.6986926560937515 -0.20792819797698384
Ni 1.0128099209371497 9.37612454303448 9.01101328918834 -1.8240825075107165 0.5416224213088995 -0.6319545313362536
Ni 1.9782026780172643 1.4083887225344323 11.178777495975979 -0.868012140559602 -1.232393251452413 -0.4716287657285813
Ni 4.10473946291948 7.2774043750302075 1.447922090662299 1.0778653234734406 -0.1200049545014385 -1.3082883601188304
Ni 6.1232326584932295 7.955797553130336 7.942710851675249 -0.8887352320395662 0.030728539432108373 -0.6145106248281933
Ni 5.92093576739112 3.4744352599200052 4.272971892557993 -0.7052332854257467 -0.3627726287551107 1.2602236434011198
Ni 0.951175778600291 7.604222387990081 6.920767929237013 -0.5854129361312886 -1.0095626824423 0.6561408987744699
Ni 5.2335185301537335 4.752991920359958 6.960257720419348 0.25510536988341875 1.0546084098280288 -0.8980032876050534
Ni 0.5192719614899374 7.699755762538728 11.024046656628139 1.8620911255440058 -1.0656070749313777 1.030674524720251
Ni 4.669569305257086 0.05279528521811297 9.726603929565211 0.4765015204398504 0.23442470160561563 1.566618407587134
Ni 8.178439430677711 7.679546954048251 4.154714048767426 0.0003352718522316807 0.7944744763817672 0.8356126411829738
Ni 7.797531534076211 6.523377960841056 6.4071582471071435 -0.483733005191283 -0.43260379061563564 1.2832949233982867
Ni 2.5576489541687377 5.494371941814503 2.4076008207595265 -1.2848352713022129 -0.4658692375369848 1.3222407085338646
Ni 2.6463643524476868 5.312601607764041 11.306907333635612 -1.2412558440493655 0.7925232661926674 1.8309188137062598
Ni 1.3686519953274163 3.630495196106572 3.887333173807172 -0.2596551940376302 -0.08372848866790741 -1.0296049458051557
Ni 2.0395553859142286 1.522160864494296 2.6395708882098505 -2.0580215277291654 -1.3125121683921912 -0.9647789504687061
Ni 1.6727373683680833 3.5425968655563485 8.231776704155878 -0.6469782584385955 0.5487765158551775 -0.22904055447556682
Ni 3.9675991839180678 2.9268183110675485 6.987921818007928 0.34219866125850096 -0.731133036010644 0.02038062053888103
Ni 4.32995056454718 6.977649460951786 5.948200409645657 0.8528076649050216 0.02771777763024259 0.18697910652914249
Ni 8.457023212051823 7.465874664456218 13.50844821247573 -0.7874034284675987 -0.2669105900484629 -0.2167951614493105
P 0.06641217284383909 5.796460038184953 7.9223413531981235 2.4587204992164042 1.394677683448353 0.5736365123216508
P 9.088244346613534 2.0474537072919086 7.833714924516302 0.269110168802943 -3.7672649412100987 -0.016320077316262217
P 2.006845441174252 3.3914484142724537 10.43528399266313 -0.3561579516520705 0.1355452162288827 -1.0119208982618315
P 4.191993217817043 6.498402923933013 3.471013561842709 0.540334041514779 -0.12756116958214161 1.9186656795049408
P 7.302433883120165 4.27261056705129 10.231004350539314 -0.6302907704805855 -1.0411707962658843 0.33835897579743657
P 6.390804182590187 7.77658736462988 10.19713507747758 0.8494030100988468 0.8555302060425072 -1.6953440297910223
P 2.5644215377868402 8.308316885423785 5.848811383270458 1.0349690383305465 2.817020951132774 -0.3239407434895776
P 7.324431162083518 4.139428527269036 1.467906659453892 -1.4637385428017566 -0.4540038535579665 0.0382713847763728
Ni 2.8845214383105264 1.8536270849775858 0.010158875427153491 0.24879331162246182 -0.9008078469333841 1.9932112161219993
Ni 2.002142762468921 1.4042943053604857 6.640737030130024 -1.4988546697785992 -1.4079556315041817 2.1663184497650563
Ni 7.303151087015379 0.7388416643773043 9.119824014328776 -0.19484308265825154 0.42539724556486735 -0.34839939075257415
Ni 3.1361782987579745 1.7934999786737096 8.961677831874862 0.09645133555121455 -0.22545180868304396 0.5969119379098236
Ni 6.777331689459255 2.064149124548866 2.5254592092160495 0.7108156646095307 0.6248888827387238 -1.5126188134422272
Ni 4.431666418243184 6.732665320288929 10.51421091955195 -0.8971267985373712 1.4047934317261161 -0.24594684331260222
Ni 7.287944548730766 6.262333900043583 11.363019913832352 1.113704701769553 -0.18264345526826611 0.3037177315744834
Ni 8.308825283121658 3.905765313914187 8.053779407306063 -2.411414772151905 0.9973183178573081 0.01446708326792347
Ni 3.26802579458331 8.566401345337209 12.391806232425179 -0.11537825436270452 -0.5469723727669031 -0.27133211615492625
Ni 0.2820272679241746 5.174934774004117 10.162176380777543 -0.14017937256678437 -0.7628612203518603 0.31504421233089613
Ni 8.746601093642454 2.5710670219804737 5.636240319406141 1.0125328208142175 0.26077336680247354 -0.4311315769454834
Ni 3.8316391138581474 3.0250480091209897 11.545083484412123 0.8489795494081831 -0.013586994655815308 -0.29909308831827847
Ni 1.1567227835566647 3.56056327705799 12.463969654226215 0.20005676564870706 -0.05053220442159684 0.38961288887640644
Ni 3.021235026386938 8.427499831453877 8.084526573791036 1.388615793524989 0.226481535499139 -1.2055933576507496
Ni 5.9276901939485835 8.382797148162274 3.1956335938182323 0.30714218387500003 -0.11919197168183988 0.6530761438062173
Ni 3.507018105235513 8.599519823941547 3.3145686959706095 -0.7205606598114366 0.6596036605120899 2.0322169079612356
Ni 3.6610353721002666 4.418094015416021 9.439238485813364 0.5403790358201016 -0.04340973444420266 -1.4617557080437729
Ni 5.368797710439716 4.741453108324291 11.338358994073353 0.31892812076633464 -0.5755689534576733 0.9198921172583447
Ni 8.493936516329576 0.06966682596326225 2.067776905264407 -0.9756508601862035 0.40481505053814154 0.05209260693018125
Ni 4.735915204829596 0.7282261388750964 1.5325757544764502 0.19383032512302104 -0.8899127972874351 -0.9659318331262268
Ni 6.01401793875359 5.659791842760137 0.3853300487199692 0.4794338635952969 0.6132638969052858 -0.43957405128588173
Ni 7.892765317124326 9.047527138132049 11.439581883573023 -0.6727607667193382 0.2668676526256694 -0.23180680436679435
Ni 0.3475706254164689 5.038983782474515 5.613904411261881 0.5238614977810526 -0.4228603380756266 0.8668217197959266
Ni 7.317195573419138 6.394471908839131 2.465587209614142 0.014300475783072145 -0.6066713312894326 -1.7003376263508716
P 9.019047788520806 1.8341627159732807 3.424893719968283 -1.0736890806085637 0.1151658812415823 0.4629258386379446
P 2.0926557097510656 3.438756635765659 1.3879030188692207 -1.4767287844138375 0.16965629897997878 0.3464250406350227
P 5.010994673500508 1.1734454364045797 7.897374486967369 0.7434383357405584 0.3308593249862818 0.9895566716340184
P 8.588680058740456 1.7862825470699677 12.307591061625445 -0.27366590649442546 1.2592623079291152 -0.0414235572521093
P 6.4658563927387815 7.962651843521312 1.0876587720065956 0.4314254540368183 0.19739824497993746 0.6677553430849468
P 2.173953948759251 3.4768410704545856 5.983172724141172 -1.4542002642940182 1.4354864899345987 -0.20597621645693556
P 7.1281442580527 4.273100807688525 6.06490310119255 0.31730009824460836 0.6203673407192865 -1.7744005669045568
P 2.4583207539466767 8.413037732655434 10.248623962182762 0.6071382436235222 0.5246531404444125 0.6173465516150917
