# total energy = -340897.76041090407 ev
CRYSTAL
PRIMVEC
9.02534558554415 0.00000000000000 0.00000000000000

0.00000000000000 9.02534558554415 0.00000000000000

0.00000000000000 0.00000000000000 13.20950556036331

PRIMCOORD
 96 1
Ni 6.399421130235322 2.0024714265673387 11.41635429818923 -0.10759681064507277 -0.025360590251975682 -0.13064649337568468
Ni 4.615985810303173 0.3321101460261396 5.974038552546512 -0.5637778743600163 -0.6807592115437824 0.15922404790306127
Ni 2.82350709431645 1.5137941018418728 4.654091720963869 -0.42536844920946093 0.24683310257229746 0.7835084642885668
Ni 3.3260744255568757 4.313113270583214 4.965637617578484 0.3197778703611396 0.5105961481307142 -0.808182312886163
Ni 5.003850027314474 4.342689327340539 2.904730689918386 0.6086600795846873 0.7540953012337723 -0.4102272226926483
Ni 7.327316887092376 6.03738745165535 2.6645418813539496 -1.2293251540500505 0.1677721945833885 -0.805582927590103
Ni 5.082785697866675 4.3609205249755085 11.433672130873378 1.3398710200211184 1.1140119485973266 0.05842369135453164
Ni 5.831221487509005 8.043089951862946 12.267971446169197 -1.221024604604155 -0.4664891305091708 0.5242556478956778
Ni 1.780447930616716 6.389881340185736 0.4079609535329779 1.0263098199936518 0.5128844299442586 -0.00478482298315305
Ni 2.580580898503159 1.5886503162896153 0.36061579682331224 0.6460089525467906 -0.8863744451168735 -0.03189093517132573
Ni 0.5443077484791425 -0.06709531996937086 4.528548264418228 0.5933607302234556 0.919680772578487 0.857978924693316
Ni 8.457533810970775 2.3796315839771176 1.3359298156874782 0.9759905029138094 0.311910808908237 0.23992017750254807
Ni 6.765155200414473 0.767654360060105 4.836356765517675 0.2529029629154612 -0.34919051919530186 -0.34126535081095416
Ni 0.777652637654174 7.453843203748139 2.5164901160054125 0.09541286698437115 -0.2685118730973117 -0.2109348460137916
Ni 7.7944146110528845 3.7879645252424448 3.6927832330353203 -0.48393637945134066 0.08834850393842203 0.39286764836827825
Ni 7.577959753191755 3.8543730164296273 12.641364424424106 0.042365609450404455 -0.10889110397646407 -0.21002724659785765
Ni 7.8065537005672585 8.705369794661998 6.874186787616956 0.09404015500656063 0.8201222588568584 0.5903921345134349
Ni 7.022088732232453 0.608394018304207 0.401524979754019 -0.9017061903779373 0.22412486234150433 0.11571249777367168
Ni 1.9349347672096757 6.469539038367046 9.21076386407038 0.2434081360511485 0.4894966471479376 -0.3093358490922092
Ni 0.033947934051572023 4.981656703064775 1.360684532951436 0.030243886486205972 -1.3683832685281982 0.05252866602633534
Ni 6.182948221683466 2.0621921368399105 7.016202401986152 0.9725051154683704 -0.47568185275203234 0.07723285364123472
Ni 3.571022298731668 4.391796231465228 0.46304895403028745 -0.23394004865971324 -0.22966353277154639 0.7838085120274889
Ni 6.088182095363077 5.599549897364431 4.9318476270707805 -0.22906780816907646 -0.5457989212840922 -0.23525156838228514
Ni 5.3392318610350085 2.925430319510368 9.340639486390666 -0.3000415682744768 -0.0827877220211929 -0.22831036117776166
P 0.14714381560493414 5.546607221460108 12.37429452722799 0.445561122107252 0.5706296071745269 -0.08190943318129765
P 4.034365479020817 6.109635341292941 12.533997110906716 0.3242765295624415 0.7801534317734048 0.4534017011975934
P 2.3017789548685785 8.498734512556734 1.3283079115277099 0.8861443313839384 -0.26688513612716613 0.02787590047466167
P 6.174942740345734 7.621750728897138 5.8443208737700925 0.25390954980310465 0.6008534390560749 -0.3307775639057529
P 4.682186718546987 1.045089866406599 12.481885669310405 -0.2916931963097815 0.2460388888057763 0.5957693396649482
P 3.9629027944298802 6.082830065562317 8.166353606169679 -1.2496885481977509 0.3357212810642734 0.6666893637142777
P 4.768270462627354 0.9271015264650345 3.639839654596461 0.0911252953526108 0.08282654567892832 0.7890648753304217
P 0.16512320610425266 5.608241304949816 3.5755358739481276 1.0617020834500168 -0.392655275247156 0.5903147443082801
Ni 1.4835772455637148 1.1003249800333395 2.551970553699766 -0.42743715881303157 -0.06374613200870957 -0.4561545813523822
Ni 1.7862602530310332 6.617771310622859 4.73013928099964 0.560976143245163 -0.2707860138434691 0.11093718787221539
Ni 5.76053498261936 5.420830008469544 9.275119991721823 1.35137953488135 0.3383525480395334 0.12122905671652671
Ni 8.727093800952776 2.40265524000029 9.909479928637817 -0.1806711620332437 -0.18741850805940624 1.8589150418088696
Ni 2.2110291072351025 5.157199670391589 6.956191075592864 -0.09074631474663726 0.33961033170603444 0.6508310565257824
Ni 0.680342266475718 9.117133126196764 9.220683621159784 -0.43937453368056584 -0.20744200236918467 -0.4168542410908627
Ni 1.30964981505703 1.150903015452335 11.406883100764409 0.1329892825762484 0.20460864668544762 -0.000399549431263828
Ni 4.139014358514616 6.864677683741608 1.6649126795450448 -0.28102388952139346 -0.31496965033921887 -0.7004505193251227
Ni 5.433402314561382 7.867700415407318 7.9383977507114 0.07972888059021106 0.438828945589741 1.1719836400161041
Ni 5.091468080106695 2.8061784312178646 4.895085590334761 0.7535072899407862 -0.3609250340234107 -0.05625393739672247
Ni 0.7686020213233089 7.377254122990538 6.8721786482735 -0.09565120824742236 0.28662658042015154 0.23982684645779345
Ni 5.05630533456915 4.526445358948453 7.1663679032189025 0.6444642337674902 -0.7447004902824336 -1.1316098641847478
Ni 8.221087813128724 7.2600780641317195 9.126764072234526 -0.2722350875851699 0.46863985830358645 0.6661525173742011
Ni 4.7444977029389825 0.2610012549734662 10.397465911908412 -0.9633316764992185 -0.3674597498181349 -0.0464138113778491
Ni 8.12602385041133 7.24419345629135 4.729808953359322 -0.7401195557799706 -0.6870234472859393 0.4723610159089155
Ni 7.0662316964070255 6.194022320444906 7.313218395099511 0.7776543195006348 -0.8743080008706428 -1.1743212870103454
Ni 2.2603887210299782 5.151414424013363 2.6596284833378716 0.29083701895707337 0.5610090533656273 -0.37433667944362625
Ni 2.3964006756631444 5.271280035790609 11.37043785365066 -0.7052944776809853 -0.34294916627128036 0.0846150050379188
Ni 1.199685007143925 3.23621808711442 3.6491258324413223 -0.26187277051423935 0.23992711948108358 0.617613432123233
Ni 3.67577045702447 2.514831257527538 2.4546827458847194 -0.5546530292406125 -0.063661028494071 0.1706369177256932
Ni 1.049458133562701 3.342247844448888 8.136500471309684 0.542195263093234 0.26244869762236733 -0.016196921474836624
Ni 3.616907154561463 2.667522050393092 7.1108484912132 -0.19932322991679222 -0.5184231003743007 0.09484979539204955
Ni 4.038887177048104 6.597184497847926 6.085724493820503 0.11970387832125193 1.23876110265197 -1.0152239944931356
Ni 0.9898818288159504 7.523347388395121 11.507817148106447 -0.6024066424758077 -0.47898443476270414 -0.7039320501158198
P 0.16881276728899308 5.660552206678669 8.01727114638059 0.32805990786427375 -0.8921257457783539 -1.0570686984430633
P 8.495701996514482 1.5838849339375045 7.942743454504092 -0.6043653088640752 -0.566448993434276 -0.6912963636296804
P 1.7405739547992425 3.274819489235591 10.539995970963348 0.06255699679661485 -0.17174891984294938 -1.4807921558499337
P 3.966061665307227 6.101575707883026 3.7738100761083246 0.014528789743794334 0.46929806071287566 0.2060829172381289
P 7.091710246369164 3.906223625544925 10.28045591940429 -0.7911230434110311 0.5760854880827756 0.7296471954937369
P 6.325981895009704 7.622454705835518 10.17380251070518 0.14398717634864883 0.26819691296005427 -0.8812142410721726
P 2.310849426959244 8.557489510875374 5.776450276633967 0.9944093717406295 -0.08047475761730011 -0.48209906913228584
P 6.821726065155062 3.9901773881194247 1.660316071151238 0.25267284918252614 0.5538523877161882 -0.5067757459433595
Ni 5.347083911501555 2.751502889003683 0.5812313388971747 -0.21292333719873008 -0.21228801760757632 -0.8271688812909948
Ni 1.4737666951532138 1.1464174188065033 7.033216080531538 -0.10663007585642927 -0.10233993312150763 -0.43575647731200445
Ni 6.745443846139831 0.8776778327180751 9.222810895062043 0.9489720653434367 -0.8763995932923487 -0.7763317440344694
Ni 2.7416472118663626 1.6021973596807488 9.396383629495928 0.4585873591635909 0.00993422839457644 -0.49699064153213757
Ni 6.381379464852993 1.9374979652930082 2.6419406114938053 0.2672345490467849 0.2870883505479185 0.011611616096999356
Ni 4.205477001773982 6.6873296473420245 10.406104972490684 -0.5795117401555052 1.4944863655075744 0.21638455627445313
Ni 8.233109573153369 7.191458363330396 0.38720085412705835 -0.3990511514711709 -0.40441755798940676 -0.23348856294459144
Ni 7.703628662037953 3.8324775285769355 8.115999399315706 -0.4320723435921978 0.3237417401048941 -0.5777582477995081
Ni 3.110170113762941 8.285537804371954 12.425904159622075 0.9541579804197502 0.053197409958585795 -0.008827111373326733
Ni 0.1132211525203809 5.04715363437021 10.088191694721877 0.029382309816859076 -1.1749041560970088 0.8318238635645029
Ni 8.715279623871501 2.407258166135852 5.7870315915385415 -0.32778222872285484 -0.34147540993923126 0.05897005077630489
Ni 3.52187026788016 2.860357579437035 11.725721476433012 -0.47755413007408076 -1.4228572312063623 -0.3299584104385672
Ni 1.0871208997660322 3.4747218636994264 12.652262528950951 -0.6923528299186528 0.08324203594979213 -0.576358282128188
Ni 3.002416515463978 8.418038899658582 7.925135005699227 0.3958205603490151 -0.09863703034862367 0.03575453189179003
Ni 5.783630841405444 7.699215268155032 3.5504905405634535 -0.9045945676693259 0.6187783989656117 0.20877126270356944
Ni 3.2072918552232923 8.38476245130208 3.525326072619977 -0.0552684335550016 -0.7076218402625812 -0.011104080332961522
Ni 3.3121031909336414 4.157362885639316 9.20306253687141 -0.18468619672990771 0.5701025310264632 0.07601646473563038
Ni 7.256774787728552 6.031954193746315 11.390371231421252 0.06373327649290314 -0.19571340107834678 -0.5483491985097718
Ni 0.47904096348048697 0.07672716854166779 0.22915622639167044 0.42347277484864493 0.3807978616879377 0.5031281218884432
Ni 4.705445033549619 0.2598189347308023 1.4418837601208898 -0.49951212240241066 0.18974304242752485 -0.30641430457004004
Ni 6.04888574164889 5.705976769894908 0.2161615341368043 -0.5175954622666828 -0.05377822216272029 1.1787201874089894
Ni 7.950363553594788 -0.2083979320548236 11.225160479466968 0.26086232697185396 -0.039169728220926084 -0.12777739935800575
Ni 0.049062679932405664 4.886024143589459 5.708580582032379 -0.4747750246670468 0.057394735869385025 0.35291579056568895
Ni 7.917204434728015 8.87321414239345 2.5975702086160637 -0.3609440601868042 -0.2787844586679134 -0.2558823572587593
P 8.537823283327553 1.662793528453614 3.5898419488843607 -0.22653655710679052 0.05157041587812409 0.18279309347225295
P 1.8199067405474527 3.3292332964342215 1.417208465896134 -0.036505551125201645 -0.21128734425720383 1.6398056304040856
P 4.682574808397632 1.0753247733754847 8.303759074127022 -0.3902795759261279 -0.39179318435717686 -0.8450987262965381
P 8.3398974594984 1.6733170811478588 12.28754742026338 1.323143165743476 0.5885846489910509 0.46276025959435785
P 6.315187581954544 7.703908447744232 1.3051127739426245 0.1475324704977459 -0.5669711844863332 0.6548116384400852
P 1.831125244834714 3.164818579941031 5.97895195056259 -0.8130391267578321 -0.2155476621954546 -0.299474125806781
P 6.908071544250981 3.7921703361819974 5.934145623503774 -0.26147553507582066 0.9109063688199667 -0.37340696854050526
P 2.5385137637622703 8.47310253172341 10.140673175478108 -0.22624113735355875 -0.006900069553942955 0.9917487941893307
