# total energy = -381168.6045452212 ev
CRYSTAL
PRIMVEC
9.20933285102690 0.00000000000000 0.00000000000000
0.00000000000000 9.20933285102690 0.00000000000000
0.00000000000000 0.00000000000000 13.47878952111655
PRIMCOORD
 96 1
Ni 0.40919276184453757 0.41568073685195284 9.010287875642254 2.1565721690115693 1.636873030138323 1.8165381195045553
Ni 8.128295331681759 8.675200773541746 13.020362022599471 -0.06135269207586853 -1.0408437519437688 0.17214641239168416
Ni 0.026667465193715118 5.6519793974107895 4.8395863866206845 1.1080451894909304 -1.2773438480211743 -0.9264101208825207
Ni 6.258432385612789 7.729227310395279 6.080079840572181 0.400021228693924 0.5463450235955494 1.279522600840048
Ni 4.0207210566890454 3.191208817025579 12.536446575708569 -2.5728931633067815 -0.41618086917292196 -1.9796964694650165
Ni 1.1168065878981381 2.458468247167533 2.449069202039686 1.0716769352745414 -0.21913409399513228 0.9304058723054751
Ni 6.626778072442578 3.994299480682979 9.252757637995318 0.9859332159488181 0.5070678232624816 0.3165912451030419
Ni 1.3827352838727618 5.041299325421135 1.8961021772841973 -1.3821484406330908 -1.645119329307515 0.2236767190604922
Ni 3.5753116723971536 4.0539575390194384 1.307773156171756 2.787444265916922 -0.8659711988701733 2.177198844122986
Ni 4.978086464596581 0.4543875629075472 4.010061253891199 0.34365159165494363 0.45627876563507225 -0.35016908105848726
Ni 0.34992886295494424 0.266711489268634 2.4392704718652505 -0.3499934747125714 -0.7396876104488744 0.5050826745116528
Ni 4.871718669939879 1.9876963601497055 8.653545027296271 0.32856204431167285 0.6854617592257742 -0.79494781647376
Ni 8.331342702815174 8.46020889767502 7.8382667325177735 -2.5341561517479003 0.6111481361138636 -1.9320935228750724
Ni 2.689990875537184 4.4159948328327925 3.890909063343378 0.45116895521233263 -2.7154448927604844 0.008101546061211854
Ni 5.225145237519119 2.361466344040344 1.8312684738743985 2.9886708835040143 0.42633569821873674 -0.3970294930554517
Ni 9.183850646656804 3.512734255540679 0.7490852938369821 -1.309506805906964 0.4980939018986454 -0.7274008226617215
Ni 7.059414112042795 5.141478448388718 3.1048796097622557 -1.854215065230039 1.054566757956816 -0.20533755443167215
Ni 5.624701353447746 7.299317233324792 8.70909111850596 0.3710114717251352 -0.45562107744641533 -0.1596395381739251
Ni 3.1478144405387933 8.348453643288954 3.1475261884199397 -1.2036084660102369 -2.825589409528076 0.6683914340070489
Ni 7.446832327247826 1.608465241866736 1.5097992122898098 0.024896763241679703 0.6604613805266948 1.3185486043942583
Ni 5.590949148476594 6.67880159382922 1.3435928563723827 -0.09022052415015429 -0.7883089710010036 -0.06299691254751086
Ni 7.045756671395533 5.223662534926935 5.571821364104129 -1.6818087143087486 2.957887065353938 0.01766219316645345
Ni 0.3893309936422772 2.2379231435797684 6.770409590694033 0.06313498078727191 -1.3407665352521942 2.524899409036323
Ni 0.10167932329222268 6.300795316818054 -0.010396415877744584 -0.505547272852897 -1.8033375616538814 2.488427539362534
P 3.240994470524637 2.5403576350538866 5.33741160987951 1.0926936467355246 0.06107398449318514 0.13642093396561666
Ni 7.792790125868921 8.68848063154131 10.443164293262884 -0.9926363390006067 1.8344147426746602 0.7465334297261144
P 2.0784082889261994 7.535177457476548 7.351965147480068 -0.5425575315286592 0.12815869395682444 -1.093504572672594
Ni 7.558458650973702 2.3136238597770054 8.235082150984077 0.3293020078014909 -2.7636937004645437 -1.9166522486193378
P 6.097342735038327 0.17827150291134408 8.062230340467146 0.6143553301972515 -0.06382403643449652 -0.7901858763087424
P -0.009562050319658254 1.17493589697806 0.4651505102335461 2.736127617920817 0.1117493993608656 -0.4214338900417452
P 1.9060924615823436 8.376634201873326 10.391567163988155 -1.0823475276145103 -0.6243517792883312 -0.036936982235665425
Ni 0.5301637956343237 0.5481091016661893 11.778265223795184 0.2789058147371261 -1.278828917207133 -0.35554140111399407
Ni 3.4077110234831016 5.8548886285511434 7.7564777263597104 0.4007632490662711 3.0607147367451417 1.1035431878555189
Ni 1.1769803688753575 2.6858835130768473 11.40569797877746 -0.11009386603531363 -0.0033617173833813073 -0.47224891581108347
Ni 1.2542098343291321 6.498842020202674 9.075808595284208 0.08554831548546557 1.4140483746654808 0.40850072691984485
Ni 7.260601197936327 0.9771931015781735 5.834833464358599 0.6122462542740489 -0.061954587325925556 0.0022173193662929553
Ni 5.708137909256378 7.342776075141673 11.530687044498737 -0.41468088758862776 1.6984231829369782 -0.997765689807372
Ni 7.238148844397537 9.292953613176106 3.2123865988950633 -0.7570356148090188 0.32801439933831894 0.9953334262167954
Ni 1.2540624850032007 4.59703189840521 6.982714183229087 0.7556500473154019 -0.36690799107972294 0.34237323916315227
Ni 4.864167016985897 0.9880509050327407 6.343846185188763 -0.28537316762902465 1.290185736980849 0.46577127850653977
Ni 2.0462400892088093 9.068485333785418 0.6315677598737122 0.46071340436765823 0.578293808588004 -0.05508537100991803
Ni 6.8761483879156655 2.4541490700511703 3.802743515105635 -0.8093742763117351 0.05605287712950991 -0.3501721663822808
Ni 1.8433953233985496 7.200086671642891 12.46812253514077 2.1338639287807766 1.001565008948804 -0.8822241703939258
Ni 3.380856608832111 2.1664310925044465 2.716731094460578 -2.1989804587744515 -1.0250255539645894 1.9296849134335798
Ni 8.930428224720604 4.78690071420064 10.116114175958643 0.02026723488946832 -0.9909124143309644 -1.2800121388819568
Ni 3.5294676133667595 8.912746305608842 8.290021347157586 0.5164988867683943 -0.25079568676447134 0.42668485402803935
Ni 1.2131362097257654 3.2861570389225996 4.99010372305957 -0.30391030720126366 -1.329655512940697 -0.5947527254749756
Ni 6.1005291642115935 8.894521035857705 0.7471181803357984 0.32822445846659604 -0.4454456795753103 1.242098908775951
Ni 2.409557480291192 0.6369303544043267 4.635895283119607 -0.02494844241522155 1.6963058794836592 -0.6615078195133381
Ni 2.2368456516338955 6.203756576359382 5.540941550055351 -0.12355179131243237 0.7475122486996159 0.41040154348698354
Ni 3.179411661618199 6.4287497877237 0.9659982365405384 -0.10312180559285467 1.4570865847028776 1.376426450547649
Ni 7.068669491577859 6.340238889503306 12.919689279390019 0.46209023011052675 -0.25598417294394626 0.5218537233224044
Ni 4.182197499244076 5.467055993366931 12.423359651789395 0.3487554885404123 1.5028041413446505 -0.30667989952660085
Ni 8.191287168517414 3.4683452711038565 5.585772582469967 0.08428024740631937 -1.8411446051993257 -0.9202135051535055
Ni 8.832247526985965 3.9311695038542616 3.249924760609365 0.15324057662611676 -0.22616091893492662 -0.2797766473778536
Ni 4.355277701216201 5.684451505112913 3.1194902163616374 -0.17295116768116667 0.4785468330046533 -1.3445884801014458
P 5.672203092394868 5.376316436591825 7.479070517895034 -0.2078412946901324 0.256855519805306 0.05382553046088795
Ni 3.8321968034927405 8.261333354332036 5.804815643866519 -0.7551162862991189 -1.3410994931115805 -0.33502168389408754
P 8.880071592583562 1.714427825877126 3.9628588182623745 -0.02123936899475052 -0.479414066100955 1.3774212103607504
Ni 4.73425095817879 4.717379460359649 9.897865879988835 -2.5506443792109104 0.8409996165264999 0.9808591438600204
P 4.2375916364613975 0.11827546205852929 1.8226015707097734 0.9967387912047543 1.3265192813045605 -1.326151870662813
P 6.35455940211726 0.5695723728546662 12.260387613576164 -2.2913036310899058 -2.187918544533335 -2.087420806826889
P 6.805475967465836 5.778110420408034 10.61931857054725 -0.5527933503240544 -1.3909601253874497 0.8652911420840129
Ni 8.105198324842018 6.819750433415437 9.390147070427005 -0.4569827336806323 -0.9460032125230998 -2.7458564151728067
Ni 0.9939817154014781 7.324808666710918 1.8828388960838007 0.8019509872644704 0.28579482854747557 0.654355267628957
Ni 5.93992760827928 3.38784649248098 6.579751535071585 0.15759011184406407 -0.5741872426187982 0.22066621436894251
Ni 2.870337241144299 0.7821689012417208 11.366460695148513 0.9803757764656986 0.7296988746672788 0.5719953771738019
Ni 5.954607284875193 3.7618651283591276 13.32943091747365 0.6824592249540247 0.016861037421396767 0.47117522313093047
Ni 8.004742921888313 1.9999355635348792 10.444659888921088 1.0356346969390036 0.2447433099228043 0.1722536273935098
Ni 8.115033892347936 4.233677669991345 12.140804426249993 -0.30820584925282407 0.6159663834381134 0.2391632447318655
Ni 4.066288835733319 8.054565412718853 13.093404004396936 0.30706993587616793 0.06780127591468968 -0.49205438057278483
Ni 9.116226515387181 6.868992736275124 11.387271945569745 -0.25068307244600696 0.5546504581374513 -0.9899330811368305
Ni 3.7426452506579557 7.236767444466929 10.258288777749954 -1.178761582169886 -0.6905792829579978 0.28156973472253444
Ni 8.291015034174334 4.472890091308039 7.674391258749923 -0.5501183745950526 -0.028839035718879365 0.7955062600803912
Ni 4.873496071183927 3.7264184061397647 4.23572306282193 0.8278054864337291 -1.1392761224807542 0.49136892446998603
Ni 8.111709323181609 7.395996809801506 4.155483987386007 0.010931045090206981 -0.0018491373935968153 1.4024051339995975
Ni 9.02801952515152 6.462833528678198 6.9145651199858325 0.3973783917544382 1.7708223626349955 -0.04421063307894321
Ni 7.602884472742009 2.044094314649934 12.735757720496336 1.3424251539015397 1.288334028484091 -0.3099338876875242
Ni 5.021637399742168 9.332553744520158 10.120535576669873 0.9057497643196917 -0.8296265988028679 0.7017604963857978
Ni 2.037537269645988 2.372195216834721 0.3388914775093982 0.4733840578567912 -0.6094581500059504 -1.0157191889619992
Ni 4.449710200472461 1.189412968250816 -0.03631055764263562 -0.5787851464021257 -0.23414727957451287 -0.9575878320369057
Ni 4.587887030864596 5.851278570065826 5.594290294442087 0.5616883388208391 -0.49861840694354775 -0.18771521336421862
Ni 3.6652315985467667 3.812553296479516 7.263005754748869 0.33850784267047507 -2.737704475489634 -1.1442581490763777
Ni 1.6333304406176532 4.861367379793201 11.432897743411102 0.6930028047978258 2.0052622337492627 1.5570518469446215
Ni 5.652025444075143 2.22899009069518 10.859753070335888 -0.22718807464786037 0.9054756847226987 1.5780155936804823
Ni 2.2418923660470442 4.471692878034847 9.249347422033294 0.4052727069008505 -2.1015821859289354 0.012501474901120404
Ni 0.4333488419644101 8.855768163137759 5.433718208374961 -2.785512339001532 -0.8125385329723296 -1.6438420052569884
Ni 5.8058765590132255 7.074858163266976 3.9268162522062764 0.6711013767390442 1.6883413732209438 -0.30601346958719555
P 7.326318997301715 4.851669952280344 0.965524876830984 1.1628384831817262 0.5347604040817435 0.8640886371354796
Ni 2.4470302557421113 1.9862689135547456 8.47817170143934 -0.5166441540970069 0.5391433636407875 0.3528057473503859
P 3.397221593343363 2.7824249495605007 10.381902890073633 0.6670462328330641 0.2955681058841555 -0.07669472174957759
Ni 7.90613859484162 7.437254621062288 1.9587237989384516 -0.7710656105395237 -0.7367043594508345 -1.6535432917051522
P 2.319462576817035 4.765710039265136 13.471241750616565 -2.269880428219123 0.14730647052986887 -3.1907516215612852
P 2.227581062765961 6.2556511670858335 3.388244335660995 -0.5202077030785492 3.81628996495855 -0.461714849048979
P 0.5205584614501731 2.9202794533021597 9.255264418402724 -0.8700816214941209 -0.7744838921924533 -1.1714588778608857
Ni 1.827214525544712 0.4023511484548871 6.8011411344835935 1.216801567661743 0.3597225290748773 2.2357698596886593
