# total energy = -340859.30037252285 ev
CRYSTAL
PRIMVEC
9.41968696173560 0.00000000000000 0.00000000000000
0.00000000000000 9.41968696173560 0.00000000000000
0.00000000000000 0.00000000000000 13.78666402504535
PRIMCOORD
 96 1
Ni 5.433953772031014 6.393207614087445 6.00497426577164 -4.05298700753811 -2.2490424084278495 0.9706976299459863
Ni 0.026369472238943162 7.407434750416391 8.665538529316409 -2.0164033379677466 -0.6400429647713428 0.4456693655503421
Ni 7.481369874944313 6.3916722050801775 6.735902426791354 2.2705311744292445 1.5050109191879824 2.2819790112548697
Ni 2.172161019988503 1.8608874577480667 3.346974983040854 -0.46750265937534974 -0.22368340392871153 0.7180340367348408
Ni 0.9033065521314559 0.17647407108941365 5.962622410326362 -1.175814069505788 1.4264084388927305 0.9346479354112806
Ni 7.204534688965067 2.746498185578573 0.3502927323680971 -0.8474633698739726 2.0392627590644237 -3.8389424122507436
Ni 1.647729356978243 2.7282522515474117 10.757720753494391 0.07819804576798146 0.2638972571434358 -0.867418729949977
Ni 5.639058040278048 7.492626401101895 11.015076026424364 -0.8211776967045663 -0.8580025788423998 -0.6746402431302382
Ni 7.012241195257206 6.71147058420146 9.14374307758329 -0.2954647475370718 -1.8211154544625925 -0.6034469108148639
Ni 9.51378983589705 5.3664240347726775 3.9955958015838093 0.397747859278715 -0.4167436836549274 -0.4128646603154954
Ni 0.5367592075980662 6.50624386002133 6.1784933809985985 -0.04811459611903972 0.2699036112385158 -0.32822677245944115
Ni 3.1787676294040716 8.889971053649422 0.5307174202529 3.0169159943926362 0.4384643631614707 -0.046850127584319314
Ni 8.512429992230246 0.6676956850442981 4.618946425379528 -0.6119045546639139 0.25594020707988824 -1.4112924091868986
Ni 4.90086541651965 2.6152254253006877 7.271183685473835 0.2773546681999223 -0.3025617635931693 0.3188239910883025
Ni 6.622869006763617 0.8678951221865181 6.044445580883036 -1.4988636686396637 0.20951919661318755 -2.3202977043294104
Ni 7.9527216008014525 0.7323241586569968 13.687675824254944 0.9243316410869372 -1.455083952450552 0.6627488910092909
Ni 5.823580292077954 8.850078678521921 0.8951057724889525 0.19905043587137977 0.25408232793554303 0.1374347199421117
Ni 6.506046046590947 0.13081778938800132 12.080371996697522 -0.5547679575519219 -1.2059491983282715 -0.7734073712988229
Ni 3.844033035160791 2.4484404444252403 9.882680798596136 0.15192031515279641 -0.23444912708564783 0.29491890233593077
Ni 2.725021298851135 4.77012015872279 10.444432320170185 1.2798162208210668 0.6953347953651122 -0.009120474244029453
Ni 4.974517950432737 7.817049846619307 8.389281712128858 -2.098583765422244 -1.100700576200401 1.2081464630899064
Ni 7.6644791736700455 4.91030394305513 5.196510775791011 -1.0403799249334729 -2.2925565296604002 -1.3079170928223411
Ni 1.9509867654445343 5.324977411263587 8.171259284909013 -2.5991904064404143 0.9836940422056543 1.4059681687605077
Ni 6.962071941436884 2.289407866083425 10.816368667728472 0.4390945405463018 0.6088230875251127 0.4169897382274625
P 5.582652953557039 1.3087807538583274 9.664934368210112 0.38173014369422 -1.5906728774331766 -1.280930279820852
P 6.969409877735425 4.904378959830762 13.127137558387254 0.40749542558378204 -0.7966730266949827 -1.2745081783445922
P 2.021785134147791 8.522377181872427 2.5792092514400036 2.4361546981007463 1.3655640539118483 -1.3092998321024807
P 9.185928204565817 5.430882954016476 8.301239664108389 -1.368538820269456 -2.8323935769341024 -2.043208631086049
P 0.29254063038304295 5.714641610059172 1.4632749269258971 -1.1942205970374338 0.036225557990937615 0.31321770064511867
P 4.497250661038391 5.9809079070435995 9.721803845508166 0.7471985741139391 -0.20255253548736726 0.11782440191035191
P 4.145679677122525 5.734997554014433 1.9286027628434768 -1.82032998244682 -0.053455805826295034 0.27841062026826247
P 3.0959309005088564 6.623500125803414 6.138471014188275 1.1389187391413353 -1.2465186351102016 -1.2988464979796406
Ni 8.37048472639877 7.746722462274109 1.0943594730401924 -0.04425922692869152 -0.23344665396306247 2.2121236810246288
Ni 8.029840579589846 4.006692193059652 1.9435612260553943 1.2654815493659497 1.1268340400626593 1.4725162889943866
Ni 3.7410099166792166 4.830010529693427 7.217332275942216 3.772639575258451 -0.23455274254304764 -1.6645355290505979
Ni 0.2229498655738466 0.38512579352133985 2.328691729420315 -0.3304037255061019 1.6585780259155822 -0.5194960217235053
Ni 4.252225758602373 7.204204999914427 3.7572796003439666 0.19566480722859853 -1.939682905186556 0.37642827186533234
Ni 2.0043681325868117 6.002045685033236 2.758531835926951 1.925368802556729 0.013706808063131234 1.3578990811674228
Ni 7.8963353534547664 3.3635818915059743 7.619048022491785 1.107396243053022 3.5844003710699623 -0.5510174893705543
Ni 2.635477752697175 2.4398685291085878 5.814677745741944 -0.017545979303563334 0.09520666451083604 0.7251495647336994
Ni 7.391939365036287 6.216136334832014 3.083718276104416 0.45658292713905235 0.4531078241062584 0.030418207280541162
Ni 6.772736229497626 8.656419330175693 7.5973064425551184 1.3519150956698458 -1.1716938766898273 -2.276780754883382
Ni 7.225587689770253 1.539261659317519 2.130522234861324 -0.12533845089920995 -1.9017722461837117 2.4066973120715773
Ni 2.9871240941103308 0.01472579693903688 9.378103010215446 1.2656748963236784 0.31218720249807524 -0.6056580595335698
Ni 2.379007930360351 6.382761181025723 0.5410244419446381 0.40483047715710924 -1.261167495371628 -1.2156512561073838
Ni 7.5138112775273385 4.725046955656653 10.642491604389388 0.49229863537310703 0.21765853789087033 1.9866302204703719
Ni 0.385802127059511 7.614234562352434 3.3096127358848406 -3.085896892437724 -0.49499443703771523 1.4711700593791373
Ni 9.083234775134882 6.038763625587427 13.068820275172529 0.7512231218922998 0.8295029287408101 0.37340979675398267
Ni 7.161976542370959 8.867665234451803 9.76013066862948 -2.396910664998459 1.209274920267395 -0.888776883910779
Ni 4.347345759555737 9.256349785782627 2.858981495876098 -0.6987101395952482 1.0224048285122906 -0.6721023071997329
Ni 8.619494156503956 0.29403365079808635 11.000503770386054 2.042808567434153 1.9275727521865833 0.24226836601975052
Ni 1.2969025283481082 0.61118132995222 12.112811515343116 -0.4324760067885197 0.21889009630512626 1.1119260126025754
Ni 6.026593389775211 5.858725144876232 1.0286298379983543 1.0260020589452459 1.32315884947276 -0.19406249573848514
Ni 3.778942996877196 4.60958043043519 4.654653633501326 1.708216771988632 1.149747711436039 0.7259689753112013
Ni 4.28411139964289 2.261742244891107 2.4920225110137655 0.22329388179977672 1.1275822310825936 -1.5652870903702203
Ni 8.248443259538819 7.2641989874438355 11.075930031391588 0.528720882755883 -0.3402896171612462 -0.2075867554771651
P 9.04747764267113 2.5892836068588614 10.78974674787361 -0.9613928076052927 -0.01389861235896316 -0.5964609664153341
P 1.7958256785259548 6.0047302958741655 12.031855897973983 -0.38977435415493517 -0.07549041702883127 0.33520783176296465
P 8.972873720354766 8.569070571130283 12.768904971711015 0.7687572741213211 -1.490504498041691 -0.32250323971210265
P 6.876899130125701 8.345484876673058 2.773642898070879 0.29640140041872826 0.29475409462329233 -0.6233572765855458
P 8.499148233333015 8.105301693437875 5.478310136904185 0.9229427311592105 -0.7571888525574315 0.5872183647711435
P 6.076376436421927 4.451056515200077 6.845520268254454 -0.23630212113398658 0.09751834336314817 0.2828408881254742
P 4.768518811905393 8.053286180933965 12.884368671026332 -0.19893936421481223 0.18222282279107974 0.3113078852169155
P 6.658767434534787 2.8663825440786193 3.800542339537729 1.0723531354059597 -0.6611928593760805 0.6907921702997523
Ni 5.153642721489301 3.7221611226697413 0.37067881932227326 -0.5478241792442372 0.2207556887589553 0.38954835418705813
Ni 4.690109335975921 2.1451641965846266 4.652696222509237 0.753670812101844 0.5707748745031396 1.2052794259547566
Ni 1.834267421830637 3.7765880750869063 1.7160673033950054 -0.4887728816080357 0.3640998322069665 0.19712133716946695
Ni 0.402271508092078 1.6692345027671647 8.86275757744084 -0.19340480754982822 -0.03777413342498011 -0.9419910060399133
Ni 3.2027501529163778 4.270236200454505 13.084991994090805 -3.1682521549071887 -4.2129016537502935 1.1519105234153129
Ni 5.949031685690245 4.298485842250815 9.16483658304327 -1.449530883842807 -0.257651276233724 -1.3122026075715723
Ni 1.1321427802123096 8.350505569929956 0.48424821954947983 -1.7551777141192029 0.3709124842534257 -0.7132391864493587
Ni 6.44648536467095 7.800697269707538 4.853195205703183 1.119469372167472 2.7347788172024066 -1.3743119753078075
Ni 2.0976418748565893 8.11568218868947 7.077136246016566 0.9674595826246629 0.13395858846805317 2.0628348899574087
Ni 2.3415458345204296 8.456232138626783 4.714170984860381 1.6102906516641042 -0.6039099664942116 -0.6230603141704174
Ni 3.4208912681944534 -0.05887587066338017 11.599271836597302 1.2013268690649117 0.11260531960325768 1.1730557900343606
Ni 5.615245071134643 4.450246422104217 2.9277084753726164 -0.09402601393917355 0.41462252354686663 0.054716674816589636
Ni 0.3044979812654158 5.227672042888835 10.347746767210635 1.1473326742366434 0.07658313587237778 1.0069460707550595
Ni 9.234411334384292 3.806872369310027 12.574761451444706 -0.20546765225163327 -1.0413348326475742 0.1844041467131147
Ni 5.16243128961066 1.8226717869352524 12.334528343867568 -2.294027971999604 1.2989627118425306 0.52913483036485
Ni 3.9406790254342634 6.019151836917898 12.51197735257816 2.5880397891402334 4.710737674001861 -1.9743069230183288
Ni 7.2575392686208975 1.4157695606347496 8.022473442261104 -0.35192283052480033 -0.9371974413060117 3.128862340255657
Ni 9.384316235866946 3.0144035081290417 4.031799427219 -0.7040156109685617 -1.1027235201677008 0.21175117126749982
Ni 4.0538754060498885 0.2420058927008674 7.094865981191296 0.3561808344702059 0.15763510614938658 -1.0575842046269013
Ni 2.1453902690764943 1.640843565663437 0.6968901214628722 -0.701712930977314 0.14120678539003423 0.008656904344049607
Ni 7.0506075810645985 7.429250745881631 13.127372108597564 -1.6797695723915327 -1.1171605215286373 -1.0894080340057175
Ni 1.273033041081736 7.877853927244576 10.900563715512327 -0.17471211623633137 0.1222083899106605 0.009019429889790917
Ni 5.23838222719107 4.095642298922459 11.542305336521489 0.3861467847046769 0.7215484776460025 0.12538884452117116
Ni 0.7337672547300862 3.9309484885967882 6.293832740443387 -0.5379935663070605 -0.023121930729444053 0.17029007590923576
P 9.06742854007846 1.9126015402628191 6.432071359376947 -0.17133034424829202 0.5580250310366389 -0.0480865710945817
P 4.982581202642688 1.432772095960638 0.7211759589017674 0.26538978252856227 -0.0296792722319876 -0.5150158744649646
P 1.107576236096012 9.022449533883936 8.724063045648679 0.5264104894551515 2.843084738099362 0.5991889068694584
P 1.9535300809780467 4.06064816111876 4.109156724092571 -2.4406340740283388 -1.5256208821288502 -0.6783354325936383
P 2.806689986538367 3.133289379790005 8.130161189824884 -1.1183311447979707 -0.23747068752079104 -0.31032675225056877
P 4.796551800896997 9.483741033852958 4.9537277588993485 -0.38632290527122504 -1.0069720388969885 1.149073053966518
P 2.7657802851974616 2.2684208030883672 12.414312152153851 1.7400331451682807 -1.1479165717645714 0.862304034431231
P -0.1587151348844842 2.170013331315759 0.8473328870824283 1.506104152252161 0.630567678291056 0.9173924907649426
