# total energy = -381172.11822591134 ev
CRYSTAL
PRIMVEC
9.19510536341970 0.00000000000000 0.00000000000000
0.00000000000000 9.19510536341970 0.00000000000000
0.00000000000000 0.00000000000000 13.45796615485393
PRIMCOORD
 96 1
Ni 3.9240939906418735 4.835264571261556 1.6458282397029533 0.882492593563964 -0.4808016904771009 -0.08577045879860067
Ni 4.568946733205509 6.99153518065351 5.5061790010952345 0.004775309901456292 1.256774765620571 -3.034802130644438
Ni 9.171915356436477 1.8558205400455 4.432448151891744 0.29323045888991434 0.31634570475113905 -0.23555624410689754
Ni 4.978689825482397 4.70376536876045 4.662916112966369 1.476336176961109 0.46488219103336714 1.2093618235542463
Ni 1.3763877438488938 7.013042532212847 10.965214696741679 0.4324374402411004 0.04733658030243461 1.0459113962746631
Ni 8.835917009566126 5.520014876209102 0.961147817556541 -0.5716961007658283 1.0567455107756898 0.8885596256936504
Ni 0.7239416832357923 8.998973813842198 5.665547648590439 -1.001362663130011 0.3557658584199744 3.4010552617489815
Ni 0.12793609915384493 6.039262478840907 5.980679542748691 0.018188240873252548 0.054091639638081036 0.777982392264015
Ni 3.410850791844291 3.6031388362260213 3.6276079312386567 -1.333126245098117 -1.3663179013587372 -1.2116650177661261
Ni 8.2438349769636 7.876729588483483 6.978978344702492 0.7441739283550022 -0.09799116923450865 -0.9156384841883133
Ni 3.910439259104628 3.564896392816323 7.860003691738535 0.7558133123661435 -0.9401868629516389 -0.1341943586279431
Ni 2.281553920634354 5.79618986726712 0.21776032539484574 -0.25255432132679084 -0.7767703742337848 0.4051734623188248
Ni 3.92436064869883 0.4729042713538825 13.409908177600814 -1.554171182962717 -1.8952251890938134 -3.562331049974749
Ni 8.746788852804835 5.993838658104213 8.348232525772534 0.8524574806544545 -0.6958878396551048 -0.7397662862056098
Ni 4.627317262362703 3.750968545939348 12.869475971609642 1.3458352080243532 0.18484946178064937 -0.19756510957510492
Ni 8.228672248138741 0.7771776655307647 0.5972837037342552 -0.9641832258662364 -1.3173090755602022 -1.257846144307879
Ni 2.941431465441665 5.929564871272333 3.731584344219707 1.6195234831162817 0.08561310728512997 -0.34742339999255006
Ni 2.4683892675065984 0.4390543297996331 1.8019409003716673 0.4995537742736236 0.04042159835015619 0.39687779796893585
Ni 5.785146545666964 8.888954377584193 0.7535021081152102 1.6157822709062948 -0.2063017181171544 -0.15133693184550068
Ni 9.069555442986907 8.946929517208657 11.889777028883815 1.0936989480715873 1.1739381926393138 0.4794199796382259
Ni 0.6184811802411987 4.313451534219723 4.421076565028369 0.5862189769723517 -0.026403172583877105 -0.10704376635508016
Ni 2.6120352042573343 8.959250958461121 9.389112021869549 1.6441780484401685 -1.3374181876052516 2.34079196762802
Ni 1.0644713780533195 6.99547988087538 4.261222415967397 -1.3856657097577296 0.32937348446937464 -1.3959038425459702
Ni 0.9137268199242983 1.278864455846186 9.450883820518749 0.4024257243703585 -0.3321438481256603 -0.5303620179037317
P 1.369675316897925 6.128151562861478 2.1818192097799907 -0.4503310326920696 1.652301191767935 0.17585908535658099
Ni 2.988317307938913 2.2565616241237594 11.602745376865512 0.3228122863120892 -0.688516229781382 -0.4167020317837146
P 2.0503429950424157 9.143153066706846 11.764765892761618 1.2653756199157047 -0.39797591612912103 -0.6597934079253928
Ni 4.317929550555506 1.9531599259399621 9.52410812295895 0.6165309976923318 -1.157562579494768 0.8979289827236921
P 7.52704892475965 2.0725491746130866 12.25551050763642 0.19193567920346943 0.3015533769333129 0.38178105153681346
P 2.353542400907143 2.9833519510162785 9.544618725091594 -0.408169054612039 0.5532702899604729 -0.0672816559657938
P 4.098975700478146 6.14476711834148 9.700044511386011 0.36617162713433066 0.024854340039518488 -0.13040249568567863
Ni 5.796732378486444 3.059266741300114 2.747241873260674 -0.22388137887213055 0.8533285704054983 0.8983858677554527
Ni 5.431603937669969 1.4020053075275234 11.623577807687585 0.6134531300979563 0.2156718464781447 0.14967497076204545
Ni 4.647141909631592 2.0984242012432603 4.953069503272144 1.3477349961502274 0.05477143931392503 0.08089616142543486
Ni 5.412680410731484 0.9049841136982966 6.912402103475374 -0.5877608675381748 0.975991531355074 -0.5344865815950666
Ni 5.209615702806555 3.975099240363826 10.169188904136808 -0.5488320516834613 0.5676296440059385 0.22576342638619182
Ni 2.4744028664462334 7.30861919569079 6.356870614886687 -1.5639753135373324 -1.4842610882351406 -0.9170129959383367
Ni 7.707116674048452 5.8987060975087 3.728892936865531 0.3472025422309956 -0.7194450581497546 0.23839808443106683
Ni 0.39893240684366327 1.9247378551105854 1.9400201203058052 0.7913359307527856 -1.6651551649124678 1.4134680766819785
Ni 0.14958965288923784 8.216865732789365 9.456590302937613 -1.7756174700307934 -0.08112010451078286 0.2353328152421818
Ni 5.745442080496712 0.1047147799456572 8.913332441053246 -0.04008221273286645 1.557174488565415 2.1745848035389064
Ni 7.868527554455724 0.5902466895622325 8.139283869894282 1.2059062609054778 -0.03678965802452374 -0.22718961730975712
Ni 5.158343795027647 0.7377702022653296 2.875415206134156 -1.3996566247201832 0.6716467077195529 -0.8285341370696375
Ni 6.819917733238599 4.698937938419 8.577717530078585 -0.44707730164146237 0.9555656594005542 -0.951212010417549
Ni 7.868168945344645 1.4782603167116133 10.209078190925847 -1.2411614845633463 -0.6309386884772294 1.8368084397178173
Ni 8.91198811664197 3.1171407347650435 8.921124373379618 -0.5856579622625591 1.2455305601653195 -0.9762144459991576
Ni 6.119361042087333 8.355114142663089 4.1367905714861735 -1.8275131304588204 -0.17192838284360712 1.5254103087799407
Ni 7.060296178926586 4.7369596992988035 12.954544489331411 -0.49573157231405585 -0.12800828442188922 0.7374849463706008
Ni 5.35897180001832 6.03356151348529 11.502887451598623 1.4182444150246993 -1.0390054131834494 -0.5915283050004071
Ni 1.9988320145227878 9.145654135378988 4.039664512037276 2.1079631497546147 0.018283114579903996 -1.639114260764016
Ni 7.103476393942683 8.296348223973167 11.200325266538968 -1.6581751340502089 -0.9524129727041856 -0.5364915278402373
Ni 7.471243830012484 1.1223637617290736 5.825684087387569 0.18078120524854674 -0.33783704185569563 -0.32187691898201337
Ni 4.2971118319020905 7.987217975117516 7.709059599822067 -0.4395861354707397 -0.21099243872460438 1.0632285473968721
Ni 6.656180491162018 2.4464865264145326 8.406962583551348 -1.6019039702623057 0.629546179005077 -0.6899794445904698
Ni 3.490986135512366 0.1243923055279498 5.826896002280909 0.2274251303593309 0.7166844646854819 -0.7668636566430341
Ni 5.422077808462841 6.489188181769486 2.8274645704301657 -1.6284200142749632 -1.1330013452156358 1.1797301167307424
P 7.692597602602452 7.651826505204374 13.229422970526295 -0.23661965237440535 0.3777001965992205 1.4009465471762002
Ni 3.726380834066894 7.556114652967886 1.2262169602975996 -1.3471498130707185 0.5676173027107645 1.1833489444302523
P 1.9394500237702432 2.014160255245069 3.4150400818701288 0.44780543805673845 0.6801712002507964 -0.3664271947885625
Ni 7.655789595637069 4.102865230067543 10.777543514787457 0.10368770539865368 0.28491705392821254 -0.0805932854730354
P 2.5482671482231294 3.506700570661963 13.415116285306334 -0.5943295218946281 -0.1888264441505264 0.7659349741811776
P 2.426974512729661 5.067137544443179 5.748596921163668 -0.03693878200787832 -0.47629428952505065 0.3496713154864623
P 6.16757097976395 8.043446044713646 6.575306780529336 -0.165929742058011 1.465509261548934 0.03175363826251306
Ni 4.716022444275028 8.218474876236515 10.666151249291397 0.4706496896447636 0.803391576365739 -1.4390790923818635
Ni 0.95194167801776 4.974873856736299 9.897109413029423 0.21281689352785282 -1.8246399226760832 1.0056733746902227
Ni 6.7462097682537125 6.1324364819836035 5.961232814312246 0.9981747523203327 -1.6299382506917026 0.1548950815104042
Ni 7.435438089537041 1.0398652759700413 2.8115708307250284 0.24722596713534198 0.06521654590664897 0.5009210869347954
Ni 8.722909164049128 3.909970308728602 6.592600015278222 -1.4271206344684066 -0.14334362922737895 0.19054214129005248
Ni 0.5190425517811114 2.7195443767377854 11.19903335422854 0.1030158761426097 0.6849920186782075 1.0799548590126176
Ni 7.202047923962392 7.524446709927973 2.1276637169437898 2.3429200697146166 1.3478576377710207 -1.680857663249389
Ni 2.2379507307692923 6.301874689415803 8.558122760445004 0.69223944426924 0.8340969758693957 0.00490695038331413
Ni 2.911749665170805 1.3513218864950016 7.815431337763019 -0.7148121873634334 0.10988766356177851 -1.5914732618472849
Ni 8.180434725145886 8.393227854597015 4.2914494859892045 2.6482830502020067 -0.20833906026215734 0.005649742086609625
Ni 8.303014675397074 3.6809202329085506 2.6074137442771197 -1.4172072320094367 0.40251571298100347 -0.25000635809395655
Ni 4.442072668726784 5.640902927064429 7.199890752232669 -0.014768159448110052 -0.7902033598102391 1.3912804848413458
Ni 1.561476020692804 4.0662043447887575 7.665280783443631 0.6179013956772972 0.359945957939593 -0.34067965351081325
Ni 1.415126722950856 7.938603452802758 0.06914259514768656 -0.06392019569272864 0.33762158341077986 0.38710529196320426
Ni 7.24338911789603 3.5071879112488147 4.814264789520977 -0.010744897221329883 -0.11803317548704834 -0.2561543799732234
Ni 0.45760085741621453 5.12453339242667 12.288455650818097 -0.650200364920319 -0.03793534159319273 -0.994176686904533
Ni 0.5692974809014206 1.868325883406209 7.046146750718161 -0.38324195235305614 -0.9469254672270531 -0.24016597496476705
Ni 0.47299530289746416 8.536735864766568 2.3184170982322096 -1.1891771210762552 -0.7866932897744515 -0.346031661851346
Ni 5.381959563549036 6.421080035980682 0.3415089735439355 1.568691745176395 -0.754486880245236 -0.6594036286861418
Ni 1.3921389594201403 1.4012329186728913 13.269419840048657 0.3159438413270301 0.059221247555162525 0.063946935165606
Ni 8.981227260396485 3.1562934936105584 0.13862081164292156 -0.7691691648477592 0.7507076157084619 -0.9547038256208913
Ni 2.3637765532310175 2.4913126652994277 5.5058562528952635 -0.533537587418236 0.030592270964560214 0.7623575412425645
Ni 2.975582086942896 4.7959463005186205 11.635662934730954 -0.5552672657858437 0.5660877534401154 -1.784092083160708
Ni 6.968225588433365 7.4714277321207305 8.922227786029092 -0.6277080973550737 -1.0685522736026307 -0.18427893398916004
Ni 1.4981033541913273 3.9766624082839144 2.0657438770974537 0.39210685894285374 0.1531909543351039 -0.8573626312655556
P 4.009047569545986 8.137705070294993 3.4247289644430547 -1.0498264150583534 0.18159830183320338 0.2269412487443769
Ni 6.1616125514567885 2.344099027648725 0.5601759363324327 2.0371377423016206 -0.5118040523958862 -0.6570788372077071
P 8.152251727057228 6.374736704702759 10.42096100494116 0.46170430752601777 -0.7490664805606132 0.6124375443492485
Ni 3.5411086551147384 7.1834738110295735 12.116327875052805 -2.0636504438801686 0.266656822166444 2.0544852324411327
P 6.38137557081043 4.878260884169407 1.7010328940666966 0.8230975394350984 -0.2961355483518513 -0.3592075371116717
P 1.3809301259225635 8.365044856508359 7.817221624786791 -0.44152603280592995 0.8011855698533558 -1.6707450002954192
P 5.789459050105326 3.411099059690423 6.410903812820905 -0.0642850352313151 0.12456120641355323 0.789119639827757
Ni 4.0546277070746894 2.088990023090255 1.2111995141382539 -1.4099749759270555 3.2237399035618477 1.75266420366873
