# total energy = -340864.5481868147 ev
CRYSTAL
PRIMVEC
9.32518264335685 0.00000000000000 0.00000000000000
0.00000000000000 9.32518264335685 0.00000000000000
0.00000000000000 0.00000000000000 13.64834740246270
PRIMCOORD
 96 1
Ni 9.42673369888143 3.0395059227172156 2.548283286173203 -2.147269403553405 -0.5535392273511435 -0.8451876864659186
Ni 2.3429054676329417 0.3937054734672362 6.844618650736556 0.0603335067827348 -0.3938698643805475 -0.6384712494088488
Ni 7.09654778012648 0.32207501690461526 13.077477356426945 -1.0974296187586132 0.3442845972532522 0.9171184111679496
Ni 2.6479042104133774 6.684132260567744 1.8767022956341308 2.8622194020462834 -0.5795230530094148 0.4608399026431934
Ni 8.150218796858281 4.426123254067682 4.195761406675575 -0.7164497229668565 -0.028224542063332036 -0.47736643954330693
Ni 2.093615364879727 3.073822594176903 3.365710130415948 1.0336480055262778 0.9494590322821842 0.570125928065231
Ni 0.6194028645919156 5.463960110979225 12.046754681215564 -0.24465640663595287 -0.6204331609602154 1.193303741650119
Ni 8.61152624806461 7.262218971744091 13.271543728640957 -0.46418670762823927 0.41820689846401526 0.2882808281941228
Ni 4.978369884642182 9.486321614812788 7.65937010013099 -0.2685481256518859 0.4808541409815912 -0.11372272103715254
Ni 6.604700356357522 4.228699816167397 6.536998599166088 -1.0241657770674555 -0.4831861315488775 0.37356766248808565
Ni 3.355088747591876 5.501363417833792 13.188684819875995 -0.0901503330338512 -0.6644936416145395 1.0053525010156945
Ni 1.9970904012168935 2.925356364201445 7.1323667384807745 0.16340491875362828 0.24154614314174527 0.5675298852032806
Ni 9.09232333061625 2.0655372404870316 11.870881739984666 -1.378796493441722 0.9805814647186016 -0.2848383781714772
Ni 7.5348033802870615 5.992334274451334 11.401078115037324 -0.19609855233190743 0.7175822939094029 -0.3968963099116971
Ni 5.812721935053225 5.724916016992242 4.11954855545119 0.3083991962105528 0.27311517619727804 -0.8959600319227795
Ni 7.812563265096371 0.6146973775216552 4.150203227758101 -0.7776332364547124 1.9071697630501991 -1.272934148989253
Ni 8.009389891319096 2.5342209110207 8.767043248499489 -1.3847377986268217 0.7307414569991802 -2.0439018004983316
Ni 3.472781875443158 5.410601416932396 4.263566673392336 0.2759660153825118 -0.9290835539496256 -2.6700340687258532
Ni 2.0660408003399726 8.148642841022225 13.205799327248268 -0.7094534941546814 -0.13077119187900704 0.30006547953387674
Ni 5.212086932684072 8.290152484881126 0.7012900893443491 0.8128306102914519 -0.9622872943951041 -2.0574941944707854
Ni 9.271917019649436 0.6165428311308596 0.6058608346207855 0.29794174832265463 0.6261327824481538 0.11265185657047697
Ni 4.706839221717404 5.941306876019973 6.270105349479597 -0.3773626107541437 -1.4157373323321296 -0.046752425664190446
Ni -0.3220265259558136 3.94925207333249 10.148679067378822 1.716492124623547 0.8241534915034388 0.658776279514788
Ni 3.2961256188854615 6.932387268067691 11.487759416093407 2.1210472366320827 -1.2621321732777424 0.43953291363530106
P 0.3516526306371798 0.8691937296433329 2.803397897892103 0.26678512021419215 -0.1723598139540709 0.7571572279885477
P 4.051139016910899 2.1208448976683925 6.894216498696513 1.0270456697184118 -1.614845103804006 1.0454658240968124
P 6.471079816861363 8.43665110135713 3.536968971364713 -1.0131365158364876 -0.5263032744533258 0.0779033973456981
P 3.842264254947436 4.368204545796997 2.1716979151877167 0.15036505485053459 0.8630784507034104 0.3066297630149558
P 6.430748402713768 2.4042558430495955 3.361437331811918 0.30615796558485986 -0.025151302454647008 0.32303571517680496
P 2.4859630917805147 5.013637724712982 11.007651464525699 0.49128613494819257 -1.4084233151692196 -0.006657100305201438
P 5.723666442542351 2.021550354814383 13.203479221851754 -2.0808452104919004 0.13123579022025142 2.252483058678282
P 7.220927063802924 6.18373364448125 2.5083342045065447 1.9908224041748486 -0.4456914770375292 0.3865453056946762
Ni 0.5255094674198224 6.9190056312349055 6.030385681487002 -0.5469253215790516 0.718466239176253 0.7351334154192888
Ni 9.175998192846624 4.731933287722301 6.494375055169364 -0.13882542964205125 -1.1065331237217781 0.7320684033407199
Ni 8.088103756479754 2.784415556472717 0.15546384689484696 -1.0081637452122443 0.17916989489736884 1.126685430299937
Ni 4.217873279329164 2.2137516905360193 3.0502009744827365 0.6415123502280177 -0.8736282011947986 -1.8587941999602893
Ni 4.2643499887191325 7.778162666994526 3.6194054493641508 1.14802558653861 -0.5743376521537334 0.36354910190981904
Ni 3.2145395975265467 1.0130132211980407 9.005971208501073 0.09020124087644465 0.22025509497345294 1.570492802940876
Ni 2.257878453945596 1.1710377631969175 1.3678923649670283 -0.6428076720006736 -0.0640477224095284 1.4964776849059904
Ni 4.674900471785493 0.7875452295619233 11.238307987683601 1.0108225229913301 0.30808269341139843 -1.4289335193074295
Ni 2.2820586520692294 5.320231073694398 6.21564814893876 0.10994191383848162 -0.2624849501769415 1.8198103624979238
Ni 6.219989953893007 8.197982381427988 11.283839123571935 0.9313813488448669 0.5560558231254101 -0.41253247378705726
Ni 5.315251426259757 6.288679247907154 10.301035763477374 -0.4644191353540196 -0.39712436676210316 -0.07401923179994348
Ni 2.288334499866069 7.185864377746286 7.939038849790243 -2.21754022405451 0.8123654977295751 0.6642501581451656
Ni 7.656702165428648 5.218829039604005 8.667914693893302 1.2303787921255456 0.3085920289476492 -1.1057425094996827
Ni 0.22562465470147686 -0.04671450154274601 5.278374992214286 2.0601172339159297 -0.08191457538762022 0.771640252096071
Ni 5.442129858835983 8.027406143835432 5.8524518749320285 0.9389203375343894 1.028489858364106 -1.1848404413741143
Ni 7.084900627231602 5.346910420717812 13.787833388160726 2.235555686795324 -0.15660615066423994 0.0854369867185819
Ni 3.7578433781201124 3.129922891867523 11.448929356322173 0.8147807920392871 1.04047839818455 -0.7673781343856074
Ni 8.63619135567626 7.34661187302403 3.940605764153842 -1.27816300148836 -0.16446164215291675 -0.45309445436981965
Ni 6.631333077468627 2.269665484577402 11.412475353042225 -0.6048574180091454 0.5965306433110048 -1.0496042717452183
Ni 5.903661114421396 3.553910962861441 1.5441606939343107 -0.11692091625947605 -0.24263294844802083 -0.3756625973439014
Ni 4.004615681608622 7.791012768426985 9.268115142759731 -0.04467317453765855 1.5595733278148947 0.3036935632047673
Ni 6.216754115578738 4.291728724427188 10.101387337041688 -0.23618899259488998 -2.3278698602497134 0.24156208398134527
Ni 0.6223011313010653 4.257039045669026 0.465046849373539 0.5360259010577284 -0.10569753673983087 0.3144094069603746
Ni 5.412186697950914 0.9339356739213692 4.856109282421076 -0.32812341411235746 0.5265282459799384 -0.07900922881536715
P 8.070516462356663 8.085707184587053 6.394400706513885 0.4421125014370192 0.020731576120396552 0.48935780757722813
P 7.803107530080033 2.5384452186759283 6.247203633871488 1.5182359025186887 0.4957403140648043 0.17693714891210818
P 0.8254847344080481 5.405976126431307 8.378979510421685 0.17426474428626762 -0.20103841283568605 0.07958772702665648
P 3.240006670829918 2.1404650815681703 5.0051219680888 -2.4947478251536066 -1.8827975048534218 -1.8238408238135557
P 1.1127273972628342 4.755964282926545 4.552501856863951 -0.5013028957542462 -0.8768706193914962 0.8209912917253731
P 0.9908099617563243 6.598396533013297 0.6256889700894632 -0.5750778727538677 -1.6997951235838404 -0.6939754531237403
P 1.4076549429844487 2.214208624476651 13.330791275412457 -0.08933760732456872 0.6709152288701672 0.7026848079722802
P 5.67513819301077 6.814293157370549 12.810871322360281 -0.6965347292104843 -1.7659724907418617 -0.19105867591515482
Ni 3.5355403534115544 3.0926408123849605 0.4260190957341138 0.12857701244116568 -0.12024380998512195 -0.3717702042680307
Ni 0.8334176671283623 9.128878045866786 9.878851182771582 1.33041707369707 0.8558904175954034 0.08881798737567284
Ni 0.4066926550818848 2.6602973779052053 5.280490876114886 -0.003664336225464657 -0.7357430239788296 -0.5484327593625136
Ni 5.971940100407221 0.9367145782950069 1.5166588658177589 -0.02435271781275161 1.6318791764681573 0.9076593226375788
Ni 7.128318676774076 0.6284650769083624 6.66339585232728 -1.063500055890704 -0.4672180382553953 -0.21988125657380198
Ni 8.938793526563995 9.163362570610788 12.035262326349553 1.9636314455823536 -1.6506369166916348 -1.459058620827584
Ni 5.426789933686204 4.2254360023057425 12.55339464192379 0.5611165254777691 0.2994008493666844 0.2157672344054284
Ni 0.7229198500646604 5.514446648827799 2.697773421182975 -1.0566992309187866 0.3658561527764409 -1.1246594010088438
Ni 3.248222156578827 0.7910514981675871 12.963296092290804 0.27188156090049304 0.7520499886689693 0.301409652266597
Ni 4.680700735276778 3.64657530098506 4.863097574158003 2.200629821452416 -0.11005838481168786 1.2880244676634718
Ni 4.517314213362325 3.3429660103914425 8.468253212202168 0.9889226375944453 -0.9780545845316897 1.1842346894693152
Ni 7.315186008127522 6.197889271458371 5.78531615631603 0.6311631457832096 0.8153338363292797 -0.5913377862561559
Ni 2.0253363788939027 7.026590261297519 4.33654368630245 -0.6264986504280049 1.9760074506492031 -0.015069749848928884
Ni 7.756686771784835 0.8396226435384917 10.18468359686411 2.725994643251873 -3.2535240768028157 0.012390146134236725
Ni 7.702721940877985 8.490821086278142 1.6470687449922954 -0.47449991662878926 -0.768193174087735 0.6809132206231434
Ni 1.2368828765601934 6.8471177996363375 10.369099337748331 -0.35045833016413186 -0.0017043842856164196 -1.6639542026258312
Ni 3.2308306912874363 5.210445700570782 8.720979644692582 -0.975385779450275 0.4250064378843519 1.001035104587263
Ni 0.8606080341506877 8.110279040374085 2.2651884644774576 -0.3470521326960604 0.6546334609910082 -0.3953035115032805
Ni 2.505779104511992 0.11990972372246894 3.5552715069826286 -0.793590274004601 0.8132263030679736 1.347094534352751
Ni 1.8759935817670284 2.066963993403698 11.264977077006309 0.4521485455167826 -1.7360116827137133 -2.327273107205979
Ni 9.095727022214833 0.6368847841531865 7.867671363373048 1.2373112575793208 -0.3957609107556733 -0.3295395777335937
Ni 8.980607644723028 7.30391186253112 8.345609344981877 -0.04946673927155997 0.42981800034038237 -0.10348098870448631
Ni 6.49179104710918 7.072386232367771 7.793069903678075 -0.2570624936097896 1.8498686153358852 1.0053365601760944
Ni 5.4285617183539605 6.065760761156112 1.4776796031271353 -2.8095809499149613 -0.47696277634698503 0.3630909313264779
P 3.833946192191447 9.045716068671815 1.9194349442656575 -1.295362396085782 1.3701025652121501 0.5174008297573734
P 5.384061947645908 5.33843382985997 8.176670609429626 0.4748686128221176 -1.0639967930214642 1.7827314553677556
P 7.785053976833849 3.9567308696669112 11.96583354536618 0.46033030999662655 0.9108078955688894 0.7131132023944557
P 5.962251235829337 1.1605842336571595 9.383266225871907 -2.2857014544117797 0.5205995392003292 -0.9453828053302816
P 3.29581788786422 7.628484163299024 6.243941685046324 0.11799589449120969 1.1348029172007488 -2.139965927913456
P 1.2526983860155276 1.8919303185943672 8.955977040286486 -1.3296462569693164 -0.003396170165742538 0.49714336505991796
P 8.317400668034715 7.799097701621427 10.340301309269577 0.13485513214039357 0.5229600690127058 0.5739375885018374
P 2.9259438506965427 8.834127678611948 11.146769199083131 -1.7488150051259685 2.903012267692929 -1.5274219398933309
