# total energy = -340853.52807254874 ev
CRYSTAL
PRIMVEC
9.43033893190073 0.00000000000000 0.00000000000000
0.00000000000000 9.43033893190073 0.00000000000000
0.00000000000000 0.00000000000000 13.80225426010053
PRIMCOORD
 96 1
Ni 7.139417293061191 4.228422538697585 2.3986519824390125 1.110545073094649 0.1579490378453796 -1.1541903205884252
Ni 3.178175118038528 9.024230851815098 5.932775244869392 0.4583212499863977 0.6283624431096211 0.6721349602098812
Ni 5.586570526700502 8.891678007264247 5.814544256111041 -0.739282661700972 0.23304607609053413 -0.41479555878962115
Ni 0.6442901887136228 0.7458030725474043 4.110283967261132 1.456591133123698 -0.655816939776148 0.5203604266063296
Ni 6.649133970053313 5.438287876749051 13.236914154773114 -0.022764804500341438 -0.3012026784621135 0.1830165223369687
Ni 4.931426017833347 4.557267888892002 1.4916514107218608 -0.517187942415619 -0.3105229274217749 -2.688736787341679
Ni 6.6082534506219 0.6223561633051976 8.762844488402841 0.9674891503110175 -2.075680121351193 -0.5908353926984405
Ni 1.1221066036042395 1.0964843726249665 8.280469447654522 1.7441435677922283 -4.493586928985345 1.5303920782652483
Ni 2.448446058264098 7.861243728779445 11.312465824365624 -0.9876707674652152 1.2371572484999596 -0.8029141225086882
Ni 3.078967952082712 1.473537615629852 4.567607312537815 0.27826663849123046 0.7420417125033478 -0.2823570065105202
Ni 3.147234175880635 5.209762472508815 7.017535820087869 -0.4928899891002027 -1.9322462464028531 1.8205685808201872
Ni 7.7316897320207945 5.69684891060614 4.091402542577032 0.4076095825641432 0.1317140154082506 0.7777360805811637
Ni 6.411857211249673 5.706392413642954 6.873218627672961 0.9440111217937356 0.06335198189408445 -0.3751794870598958
Ni 2.9742251771519848 9.085160271894996 13.446846702701707 -1.4314125769755413 0.7576344247352823 -0.5040490910408157
Ni 2.2295395997724285 4.375715003057271 9.806915980070979 -1.8403671036033533 0.36477474678680405 -1.2271656845048864
Ni 9.02776722892854 6.214065281710007 13.644701815512468 1.4817110681197772 0.3573316602451975 2.602044073839125
Ni 3.7036241750624934 3.0268936202948775 8.561552017037815 0.5799760813864334 -0.693654836559528 0.23525979591240126
Ni 5.029294075655539 7.520921656059532 13.520646649406748 1.7939964867586133 1.727458908047696 4.028887286276429
Ni 2.166271455628173 4.644215614187879 0.6467279313371568 -1.3796855809148947 -1.282253883728282 -0.022348285788213126
Ni 8.54109572574586 4.006498371735777 10.951771390370583 -0.8136250811682891 2.0900052797246134 -0.6394822071718664
Ni 0.5283413419858142 -0.03972341683989393 1.324507139798146 1.0113449711537035 0.8107444171863845 -0.9560271724180051
Ni 7.801511961748632 0.6849500382131567 5.435465376295574 0.878325606670468 -3.0120147004362776 -0.690805540036191
Ni 9.007029913535305 8.787849975213529 9.673089096725393 -2.1275531560714005 2.433444498258435 2.881961103449585
Ni 5.006199175520008 3.821409108787602 3.576398528995335 0.14745096652753314 -0.8416331363454408 2.0238831912845594
P 3.978461973980393 1.6289213108250973 12.46986735762983 -3.040967636025201 -0.4234185245719418 -2.4254455392133583
P 8.40161158205266 6.159086405519664 11.803412100203035 -0.5156833328456345 -1.2054208366286272 -3.1084611508914852
P 7.002913136482252 6.812467440999581 8.92586298602754 -0.881204985100792 -0.9406334635707542 -0.3934407472629289
P 1.4749050147803837 2.3929768044473576 0.511435573315758 0.044706598878755256 0.8727506836858517 0.9277270399217312
P 0.4825334704430027 2.5514819418414025 11.155119675630893 0.9435218408621429 -0.9169209504451628 0.14395246645597143
P 4.045436241339538 4.288833290134178 10.6786112487553 1.7499745726517089 0.04792947669142713 0.5333714941540169
P 6.229549898297408 8.796714493844563 1.51024238096571 0.9174824793755877 -0.9926455949719872 -0.2885739339545094
P 6.821265947257829 4.056281131154099 5.383762599863126 -0.3263267272232509 0.10467783722606488 -0.5436085985009929
Ni 1.6839944904051323 7.3765808877972 0.7797306030568377 -0.3815303689785881 -0.5922052764627737 0.5497332233414919
Ni 6.503227765522097 2.0062668943380273 1.623228215189401 0.3886806068701242 -0.6082916405016751 0.8215780174667785
Ni 7.855095147771538 9.211602256793816 13.68624623080731 -0.6266421179844046 -1.2571874276779573 -0.09751988602504495
Ni 0.21758149586649872 7.648485851295684 8.130217742926305 1.1542548552777736 -3.196249925671695 -2.92068860192677
Ni 4.231308222422156 3.2284765461001554 6.162941528090267 -1.5224067460669264 2.03623657064359 -0.17560248926108468
Ni 0.3867881819227741 7.964062714560459 3.135099215695089 -1.8286966092439605 -1.6791360525725922 1.2545278785679232
Ni 1.0718994789323038 5.035159746494371 5.705189102390486 -0.7532990305847219 -0.23238530257808368 0.3735717762531437
Ni 2.644559387467249 4.064164894532338 2.795784303177084 0.24826443570218532 -0.8738372318818112 1.177296053367953
Ni 5.028077561928515 4.981840609962606 8.579894969366775 -0.12367006205785153 -0.07284809430997777 -0.3683485801809915
Ni 7.1530629935496 8.04344730800305 7.076926208847995 1.8946088956660532 0.2588735786765993 0.8710712391008997
Ni 3.8435704053651847 2.538892439317542 1.1171113530522627 1.2745045788001663 3.1460131410033303 -1.5958451656627355
Ni 8.105640393504817 7.190558021291076 1.829792246038202 -0.35472918962534394 1.8168813617765869 -0.5555254045432368
Ni 4.760387959949257 1.1834698192767201 7.3210748556584795 0.6856849309801739 -1.5276975621522206 0.6035253294612832
Ni 4.7444223960744285 3.524560898715627 12.752937842467826 1.18644326708486 1.5213070852448445 -0.3727415670423645
Ni 0.20502405649513328 3.8773121581969248 12.934313437929937 0.12360398470660647 -0.12189960042099006 1.161471941851503
Ni 1.5923410259636326 5.771772953716306 11.464083042176577 -1.438924054861238 -0.14299190231491501 1.0763159767084496
Ni 8.159959145967317 4.106931481757587 8.22534345817626 -0.5537958234466398 1.1929543287305004 -0.38133907890338836
Ni 0.5685909717401886 2.7303566114088853 2.84500312832505 -0.48326275042308375 0.16515866821994138 -0.6622518967682143
Ni 5.099597252670807 1.745263402687921 10.61347778356294 -0.7857628075403823 -0.6574588462549451 -0.5444575767648494
Ni 2.698934721963564 6.823915872508169 5.554262185392076 -1.4124200950334385 1.2398959875873614 -2.0925061917695964
Ni 8.846940479194437 1.7776283260301604 0.31719605246578353 -0.6204850972440733 1.6137976363760982 0.05105902345934433
Ni 5.866462987305884 2.058841034091228 5.457093858721398 0.729317322958144 -1.4709080639670022 -1.7598820615734077
Ni 5.743010419860295 5.7140592792249 10.623332487785737 2.5396513705345165 -1.9012593111030351 0.4792916815904778
Ni 4.767092930956347 7.468932197322419 9.628217657842223 1.5210054948440257 0.38803911663138335 -0.5043753640319829
P 2.8194450236507675 1.6674725365311218 6.883984302640181 -1.9233761976067327 0.007183919342948918 -0.885035928811108
P 6.0318617024864025 2.5480021467617737 8.405062143081484 -1.4118264273134975 1.07287378379612 -3.623034795612709
P 6.72093657096468 3.195545802419765 13.66790327847835 0.8795239978539433 0.7375062865268395 0.4560674209552145
P 9.534261304624447 2.462120049769415 5.234712320319585 -0.17108840344081502 0.8290118480370045 -0.6083343208141523
P 3.2599172962234153 4.768130268242956 4.7950821770168846 -0.7121115006028188 -0.5829549615090992 -0.6545547852342727
P -0.20285507853222093 5.478847764655511 2.1474513281473726 0.1396882918629788 -1.1986616635279228 0.2253793035738957
P 2.3168551082881037 8.168569045446183 3.2329710456528686 3.4429781272350124 0.38834764901073765 -0.05367640647753336
P 4.773015183828994 1.3215582728024822 2.861690113131021 -0.3743770457632584 0.384253424336706 0.8515899904478366
Ni 5.023456695833615 0.8933510990931547 0.1473745083087174 2.664520852217108 -2.0825763342503936 0.8521080677348357
Ni 4.461512226998908 9.010075913022352 11.662987751714606 1.2137010743595484 0.5668174325172883 -1.2968276677773989
Ni 2.4322730269319472 3.4671395647322654 12.186534709368487 -0.12323580273391033 -0.507472514900068 0.5071850655666362
Ni 7.145943087627867 1.7950933138010892 11.968597689722852 0.7421926362589153 0.25997066839552 0.6353540439361057
Ni 3.6323685338113387 6.224768716440031 2.5037427368777023 -0.7058891738421906 1.0108055537104657 0.08980657654118727
Ni 7.874549937064963 2.3693538053295518 6.7499923883626325 -0.27493320324262327 1.612255488699959 1.4244155768324178
Ni 8.638973213907022 2.1190065967146228 9.206904061919367 0.1959478856866561 -0.8107595866950359 1.43931974763776
Ni 0.7655643478573295 8.989489483052623 6.429421217579779 0.009351616418229056 -0.2748185320416299 -2.3766385450129843
Ni 1.32504749822108 3.057966587198339 7.956957897181075 0.05756648556055892 4.810691880500012 -1.5150803876088423
Ni 4.556673777536943 8.198067145741792 3.7730946531467815 0.08143455042740814 0.16688336422053196 1.704017132084988
Ni 4.978766319458652 6.128088881327956 4.960681758417447 0.8393664517984513 -0.23928974300740077 -0.6534972905040358
Ni 2.702461668738039 6.832912415884771 8.904841817431329 -0.8095144014340252 0.2811565584445158 -0.2879663822774976
Ni 7.537188990781374 2.3465135243461877 3.798297234041926 0.7372041819053884 1.0532040732813346 0.4122648219479675
Ni 2.4013037937571466 1.8549571055774694 10.399377968843863 2.7925404494929067 1.2450243099528622 -1.7744679298073827
Ni 3.986666368883583 8.815971246019638 1.7417062788287445 -0.10676557299302902 -0.6981113296689847 -0.7131252865793138
Ni 8.261580478699246 0.2617720642760951 2.821484805969802 -2.339255476378836 0.5893984031415979 -0.9503735736766535
Ni 2.641975474589693 1.2346954205573277 2.107273368969164 -3.808086346101835 -2.345957056768728 2.3025267534992344
Ni 4.179997748090825 6.555415261377562 11.925727368768941 -1.7129535153426692 -2.380162241895527 -1.532897104075289
Ni 6.028165009610482 6.397372210593007 2.087714845947076 -0.638523699913339 1.5407235420982435 0.7185533995734206
Ni 7.343867041913101 8.067390938645808 4.259706745193957 0.0665468346822983 -0.6922715830587561 0.32931100666255547
Ni 6.717522788257836 7.541112011792554 11.814080642678874 0.12493633036478484 0.8929027331536945 -0.2619751004200585
Ni 8.817074595679031 5.877553065933644 9.491754994754746 0.9607266347762035 0.7718135444491417 1.798674351850257
Ni 1.130386441219183 0.4673808017873178 11.191875364797184 -2.2803188499436278 -2.677802399817362 1.274093973625309
Ni 6.646700942599264 3.2713374367150974 10.053686261114898 0.2770422791658261 2.5579902780530204 2.2329190205034255
P 7.04650959353679 9.464476796252484 10.739161569208637 -0.20462227353220244 -0.4355407617567725 1.5241432691420589
P 8.680919361641951 0.3983846697531797 7.680251005079484 -1.6614373497412482 -0.049219142037128134 -0.2902988870654162
P 1.0957205151684626 5.555799330644054 8.026935727501906 -0.3366265664873622 -0.9670680036131991 -0.23338597592845614
P 3.474146306586369 9.062169105488124 9.381985849153445 -1.230351795542352 1.2773916705399744 0.9772290033066009
P 8.78913250131334 6.9878717458264035 5.897854699666503 0.23476305878164083 0.13023048888418862 -0.9690503241505505
P 0.6777952400372367 8.721460388870474 12.96368422864946 0.0010351261327337011 -0.5057467904582129 0.7231942407795416
P 3.3365293700090666 6.183822184635834 0.1527035928602033 1.8262322068638677 1.2328503935944897 -0.3658818638080537
P 4.36057930901173 6.967766263144104 6.980089830109033 0.8787542095674543 1.3016001494653777 0.40671406733306725
