# total energy = -340864.3492275162 ev
CRYSTAL
PRIMVEC
9.31159749041649 0.00000000000000 0.00000000000000
0.00000000000000 9.31159749041649 0.00000000000000
0.00000000000000 0.00000000000000 13.62846415792588
PRIMCOORD
 96 1
Ni 0.5625815750800044 1.2844231255515497 10.502598224329287 0.49619179977992606 0.15901527432636484 1.8414413105041383
Ni 6.28114735434705 3.833864007621827 2.601019682524504 1.2108746606543468 0.4597469266893308 1.3345285247622822
Ni 5.038645040400954 5.911523494578395 10.301974270858281 0.8781469150007586 0.7180646328624601 -1.0235037180034245
Ni 6.444845237071146 3.0917669392725955 0.1846303537345483 -0.9830324973622554 -0.03271497373451786 -0.9798723544667189
Ni 8.290040694323103 8.7820096326533 4.093732068546972 -0.5587007169474248 0.3253615350965042 -1.004020412467832
Ni 7.853941340540381 6.287199892673027 13.001582353435 -0.8297703234695839 0.6696327626133177 0.8537618012881748
Ni 0.305651323142314 -0.14123644741652625 6.040435111643748 0.26300045636077934 1.3824484883720125 -0.2951050502048079
Ni 3.8183043283253557 7.986557111061232 12.420831989460158 -0.8775491335157596 -0.9903002346682621 -0.8611706921577363
Ni 5.565197251566037 3.941152233147824 11.457449464114521 1.2262470293453591 -0.6325147747150978 -0.396488275840001
Ni 6.280951810801134 0.45856637604874695 10.298485215303295 3.1709225026505 -2.83069690595797 2.2958745382900396
Ni 6.225603675709438 2.6852598421051836 5.126265309846756 0.36633437796444 -0.10351415593526687 -1.3639218903227348
Ni 0.21400565012986703 4.095724750395832 7.508752043573563 0.6994207925090277 -0.9301749872415916 1.6993742339963376
Ni 0.6849294471207725 1.3750622148823997 8.16106482723552 0.7113964768136651 -0.13768565961065318 -2.17025712269783
Ni 0.5650565976754574 6.899996119184556 3.11171889907424 0.1697277756478625 -0.6082255631504299 0.1925727985668361
Ni 5.397327773195729 7.3558360595073875 0.8709705078651445 0.1557440597742608 0.01710092134634474 1.3865563398927991
Ni 1.0922503779030925 8.494439569390034 9.45948980183441 0.8752161145072087 2.1437927578587144 -0.026771611666889378
Ni 8.133242705290622 5.322397348720144 6.48331889531002 -0.46831667063621285 1.5849956245427412 -2.6701762507306723
Ni 3.95527792644091 6.853438132061663 7.490394229251006 -0.1497857853082969 -0.042953106522758286 1.0445957627870333
Ni 0.5223508184071117 6.68216060903396 0.47819522341975906 0.8934082120352034 -0.3510897931005437 1.360199190055509
Ni 8.181960983016019 2.5187498569588658 3.811990134111749 1.2159870421802477 -0.2608849526796732 0.537662408219887
Ni 1.4254752033390692 7.190611074805662 11.826726932458984 -1.3587249195028277 1.7040292162698458 0.21447782617004352
Ni 4.880096471052651 0.10972786405123651 0.08960550201672174 -0.6467648568762088 2.8977962707096285 0.793730142016575
Ni 2.9032629610094225 4.396135506507592 10.537500884955836 0.8546578307398829 0.40041949257360715 0.6536024486233325
Ni 4.0552658595860365 9.351078597659008 10.288386787896336 1.374855249405787 -1.034817857464663 -1.6091953617173964
P 6.662587631247496 8.758469914363966 2.128466355984297 -0.03652329173701452 -1.3964599721597564 0.024892135255989385
P 0.5064112259357177 0.9963502360273555 3.2264573336996425 0.8672456947072227 0.8440970245049012 0.4337854696285626
P 8.778880935918641 3.7828737001248336 11.685713032220905 1.4980113479416977 -2.0046361701294897 -0.04364781859693773
P 5.906569724748519 7.7589071772251295 11.549400557522494 -0.09322562952506526 0.3146202374196001 -1.010990416027762
P 2.318010439679796 -0.1298343963701295 11.186570439234814 -2.056625932933219 0.7633692703365305 1.5386365776622275
P 8.393976744776252 9.299995174187769 9.460416305778155 0.007151780553432845 -0.27761820627395417 -0.8600172952795835
P 8.666787926121563 4.8063672426448365 1.98460403809404 0.9397040097779493 -0.46970866588773297 -0.9172001722484786
P 3.7149362853151064 9.149296281468386 5.43710319275456 0.10633054233813945 -0.5676756667525256 -0.07480907469109052
Ni 1.7981532670629865 3.0550885570171795 12.280131890055287 0.7848613787720354 -1.0056615476156807 -1.5412272212075393
Ni 4.044501652963223 4.156920568670164 13.298859757013389 -0.3166544942408095 -0.6691627649554347 -2.5299837655377657
Ni 1.666626953440811 2.7683379143272755 1.1999985963418636 0.5250866284374053 -1.945391011314927 -1.4148281902542987
Ni 4.60687557942066 1.7581599561244206 6.491087561041346 -0.7768734754705524 -0.909593306435498 0.8592151110932622
Ni 4.4175428689867 5.7337278533534874 2.7313075536892106 -0.8090189498548455 -0.0715226906303349 -0.04761220256132445
Ni 5.8599279332488035 7.813240348197547 6.11949336725765 0.7333907216965692 0.2786852140858878 0.870517937700591
Ni 7.987534828790813 1.9557799882662563 8.910712669936343 -1.011544231648703 0.6710319569536894 -0.16906957323857336
Ni 4.215648813626982 8.842469834731089 2.4888298321142086 0.1712915205905566 -0.12952934905210595 -0.3799853930889714
Ni 6.512298448814794 1.5452502810114264 1.9738510053881362 1.9148671316944572 -1.5433452959918066 -1.566150209701464
Ni 6.024668714884452 7.141697253534349 3.5726746310221347 0.29863260374209216 -0.29340349413266886 0.6278893601279444
Ni 2.2885019874413057 4.730840875934078 8.160656048108581 1.1521794608059834 0.9658976374541818 0.14612247752409674
Ni 2.149265671151579 8.799198841499072 3.826123276682775 -0.2165377940228658 0.33186822586677034 0.6968772001515676
Ni 7.413437601175832 6.515613377497944 1.7696420869086686 0.9650735988909896 -0.12278663101163372 0.017576318320866504
Ni 4.131322987349996 3.7288012538803046 4.534584992814943 -0.48548906865044134 0.2828126059907 -0.5972554372921713
Ni 4.158233503907029 2.14249613982391 11.368551643502068 -0.8255028064424815 -0.2957354846999552 0.929234220594877
Ni 3.028634308733951 7.0256747496240965 9.985030773519181 -0.38891072060305926 -0.2457218717859897 -0.38053123829011243
Ni 0.9354337656757612 3.4109219410000335 9.61282387662495 -0.6709360548057736 0.2748100474011977 1.5502836749828528
Ni 1.58717109261688 8.822757182983256 1.3076183147361755 2.732666913065726 -0.8010233332438786 0.8152772720597314
Ni 7.928955569392787 5.252523121646105 3.970585261447175 2.080869378861616 -0.2478594869542828 -0.39934708544503483
Ni 2.70567086365986 9.022779607260635 7.495519332473493 0.18988008222602137 -0.6414167051904178 -1.8958337692120897
Ni 1.937920344405914 1.543201729578019 5.471746990972705 0.37875897688103805 -0.702778653237667 -0.9930083776280447
Ni 9.000981157689695 7.598738389924949 7.612655503435725 -0.6613065021358095 -0.4186581270688209 0.07275064950016503
Ni 0.8202539613324337 3.886819062175406 5.113945135294296 -1.7100168013118484 -1.6755359939261594 1.8216942097841982
Ni 4.504103478645584 4.327704577034363 6.9538692972442 -1.0430122203499974 -0.6193748948990301 -0.5368717939977915
P 5.795044722394339 5.019816990408456 0.8753218173416503 -0.49642217062317723 1.5365627258523344 0.2701545509070573
P 2.324286456343962 5.111731768586473 4.538155990427269 2.064919540400579 1.7575811813543731 -0.19841794449370342
P -0.28254366297347927 8.358862710888166 13.072013414035029 1.173270734258644 0.24543673644540315 0.510785638433701
P 9.037100844099635 7.188152813085573 5.307604945051458 -3.0644253528275094 -1.0265669303097804 -0.6941950253337141
P 4.722842213746365 4.092028046218274 9.165809468341134 0.007323530244606742 0.26853706990829235 -0.05436494790412572
P 2.6785648035569114 3.0010626687597735 6.732979583138342 0.27761126429541866 0.8589955388832883 1.1377445163275761
P 8.641376576749886 2.5210311983278872 6.503625626973542 -1.0159526451290437 -1.730017927024124 -0.9958872418377364
P 3.5949284177071354 1.9058698260705138 0.4655184146859375 -0.8219305157101908 -0.32736930955515237 -1.0593477242852272
Ni 8.339243175114579 1.9733230378141626 12.981589422604687 0.6447149163257155 -0.5322013851053158 -2.72994771436235
Ni 4.039436143964253 6.807261920433177 5.195606913548109 -0.7070166025784147 -0.9461561931611963 -1.7438653744301773
Ni 7.240409497832308 0.4096944569658451 6.8224360995962705 0.6647137280451455 0.9910404552683963 -0.5251390789418957
Ni 2.9376320671035425 1.7023462411614954 2.810257794772987 -0.4275209767760896 -0.8876039466486003 0.8812924026082758
Ni 0.5239524131641393 6.405215078432138 9.73452552380445 -0.10190541668725031 -3.8280936424616976 -1.079604160541418
Ni 6.109851208124499 5.820148789051004 7.493801342748659 -0.3477383601298076 0.24261957871158213 0.7421923791485993
Ni 1.2707723237271173 4.14605393447568 2.869786837108319 -0.5082114499486216 0.9047151524075903 0.49109818730710253
Ni 1.1686613463691862 0.8022620927886626 13.097785122227036 0.31547024412472124 -0.37797067665178774 -1.0280746252035584
Ni 5.423931007037751 2.0231587072305084 9.26723324980913 -1.2488413697061074 2.957861354322325 -2.2222137182707793
Ni 5.860561121873675 -0.03072082222317036 4.295855189203334 -0.4534932324701352 2.422003860521661 0.2979468905289772
Ni 2.9867321203233463 1.4450109347358355 8.735381808549722 0.08113578824006672 2.7173822189925136 0.6981799781233912
Ni 5.300971363046188 6.068731193897558 12.677156056405506 0.16182163342690842 -1.2140625714640252 -1.067937008616135
Ni 8.513537655707845 7.7669430858025414 11.033645143571214 -1.4952083312752638 0.7441387042416926 0.2962831296733091
Ni 0.5279955087658914 4.268994955272394 13.541841236009063 -2.216290667918125 2.147593362551727 0.6629715485430583
Ni 7.217465721778146 4.140243497682743 9.405684598435966 -1.8238863323395105 -2.036098759514145 -1.003566355649549
Ni 1.6497636505048987 7.1409895721300805 5.689706345369048 2.989142423823794 -0.5031152663726368 0.6096316994693372
Ni 8.811229425371629 0.02645238596374344 1.5908231011268 -2.7991294155643343 0.18427610577568265 -0.7242687047906431
Ni 4.117281098433732 3.545148617875337 1.79099823560194 -0.18086759431476593 -1.2304386988292035 1.7380140578557226
Ni 8.514664358996217 2.687066292005552 1.3624291706564737 0.895679010347251 0.9589088648411744 2.4200909597696643
Ni 7.0139514484665515 9.076991727466531 12.96478478273255 0.4180528893846542 -0.533991644236519 0.11279660967845734
Ni 7.753813733433885 5.368815661881669 10.996412721269035 -0.02771546363739743 2.5065818416740573 0.470058593027984
Ni 2.510667390394331 5.100697525638347 1.0698168773877974 -0.7724887161392954 2.057876774621185 0.5101109809641795
Ni 6.681965065488044 7.891075991069601 8.986895504265535 0.8508685389007797 -2.3360683369001056 0.32351985390207505
Ni 6.645929183454924 3.2830364619708687 7.315078266420263 0.5583037386193224 -0.5476976809687019 -0.2921691075049355
P 2.7117606483755345 7.134499388725149 2.413805360504635 -0.11882893191546631 0.0767011495074808 -0.9082812724922937
P 5.0733400524049355 1.8917348211800034 3.2377001564300794 -2.369996357106118 1.5974621324408682 3.002743045326364
P 6.32074026659636 5.588038600048527 5.12787342272198 -3.033176936336189 0.15859772717297202 1.7924702799220742
P 5.582423706801507 0.08649542847691243 8.117345015007638 -2.0843668504919135 1.303226372214891 -0.9291105505328192
P 2.528424606683003 5.648871266023301 12.465833077493661 1.4868388762646456 -2.115618095196711 0.8583296231645152
P 1.8438266524305453 7.103482457703877 7.931262052074855 0.35070258496445406 -1.416857819089818 0.7660792130685259
P 6.3032996446201235 1.6263636061769322 12.044468395475592 -0.7705393057224085 1.8711560639597515 1.054828496258635
P 7.972896997639375 5.8716232996140745 8.556930630866123 1.0120736217896118 0.9012490482358608 0.7547897561976357
