# total energy = -381167.177230585 ev
CRYSTAL
PRIMVEC
9.22654403969266 0.00000000000000 0.00000000000000
0.00000000000000 9.22654403969266 0.00000000000000
0.00000000000000 0.00000000000000 13.50397983545222
PRIMCOORD
 96 1
Ni 8.20031226617288 6.145920790389025 1.740176912373302 -2.193815883854377 2.350564987854384 0.875072389840493
Ni 4.370844475977861 0.7030100485640403 6.977628208223474 -1.1123870113993939 -0.2218234679018373 -0.5853180624246371
Ni 6.303030378730258 4.681529886373349 11.352809159801545 1.2707582243838567 -0.2646459623840023 -0.5403417548242629
Ni 0.738916066533781 9.036744597102793 4.220507170808019 3.5026907126042963 2.6484447725908513 -0.7913135621552824
Ni 2.6462096766865892 2.1762741197812527 6.56011141478085 -0.36760938802212173 -0.8169376904812898 -1.4865406282979365
Ni 2.377062166614817 9.024353348738787 0.18215504156840553 -0.08415580601331313 1.5156504011796994 -0.04392266952487919
Ni 3.748947742188562 0.8778650486539641 4.456407752841924 1.2872086566303962 -2.7981431403916646 1.2376583565060943
Ni 4.493566735463811 2.02784670918427 1.1692180817619617 -0.41374834847202935 -0.2960679283387095 0.5553994204883338
Ni 1.6822296038475137 6.479727919623081 4.6949148335078705 -0.49857289841759295 0.7093434509393785 0.5904605258575251
Ni 2.59157008412394 6.870536636640326 12.967911966666572 1.0845455637070935 -0.3636547742497479 0.8649023912860265
Ni 8.824829338409966 5.080900836065052 6.556100636177847 0.27034506965130856 0.8326782411449983 2.007686526920039
Ni 9.020782676276486 8.792914723301184 1.1019464280413385 -1.0917749915759971 0.20660433695923774 0.7330006853470021
Ni 5.984114891238202 2.2383318535834107 11.122363310480075 -1.4746063387541957 0.8267927288984986 -1.8496675550686723
Ni 2.837946484022693 8.408647625859576 11.246262876958763 0.5978357352756736 0.9349950343380542 0.05311590598837304
Ni 4.055794910350672 9.03666155820832 2.0808144520048804 -1.017716421897686 -0.15129270887112656 -0.5148184137421778
Ni 6.1313889838564055 4.565902839092849 5.088812597399477 0.16520160564273487 1.745762077232258 0.09893990630102314
Ni 7.401275117386907 3.451207172786893 9.262015277989883 0.9172881039765944 -0.8546902266397151 0.7765209772271401
Ni 0.7631625010652543 7.757502748128433 7.503648234455275 -0.14839944648373155 -1.5346606237336151 0.39083082044390755
Ni 6.098505581645449 7.634715902835672 1.3765006927976278 0.5942529030204217 -2.235460041757724 2.9938285164455536
Ni 6.313179576943517 1.3946474592029334 13.172159967436473 1.6467110992746674 -0.5707831020332557 0.5214148360127729
Ni 7.170510029648911 3.716848596203176 13.508705534879342 1.1965340756619587 -0.5926788736650824 -0.8631622686664683
Ni 7.296932133210785 2.471302085296833 4.422944923678429 0.0048401017011206965 0.6127877285998157 -0.26940893099028435
Ni 4.164585088652967 1.0056010120572634 12.500066221938784 -1.617076821348002 0.476268835603754 0.1321996967954175
Ni 3.077080047014712 7.533233147246922 6.599259640252535 -0.052412709273761356 0.46139988891172146 -0.7777185970796671
P 4.140328504923281 5.230500017728474 3.2438858102671397 -0.02767072644239105 0.17983375373361288 0.9939614855699332
Ni 1.6974718542550613 7.7909120633377125 2.0574934398195794 0.11204533333472962 0.3839834585047709 1.8718842003750276
P 1.9436544967333795 0.22422992674304112 5.991445380311323 0.37333960563767965 -0.9262057181811985 0.9686371478725317
Ni 3.6978880486320436 7.500709580245346 3.890820616048546 0.47989640505401227 -0.7666150309673377 0.5104868762463595
P 4.4499344096906315 0.8626449419516092 9.805104410307617 -0.4208067979807076 0.5682950455040793 -0.7899498490385363
P 2.8905470103988606 6.53794741119186 10.06986377613373 1.3971726819560648 0.20135028764914997 -0.6582468893738792
P 9.427405689418753 2.9704765596001823 4.6101773323166135 -1.2355829620343044 -0.663307077505606 -1.3948949416654817
Ni 2.5335535765194255 4.535953477819908 12.720992123336217 1.1233849051717943 -1.7131602320368369 0.41554066448576177
Ni 3.6004096130656156 4.400535494023556 1.250076743926988 0.3662688148338273 -0.9913538727437573 0.6434064819269371
Ni 7.385322423104432 3.105165646433946 6.922166530605552 -2.9167614989582216 0.3392460063880802 -1.4414303662228596
Ni 0.4089231905191442 7.828104261517388 12.481336337963407 0.17593853244426474 -0.0745967015699683 -0.13746660162131163
Ni 3.5756455694252662 4.867186401325328 5.6536569974145205 0.8463076590029748 0.38075466715482814 -2.08246834791762
Ni 7.709976820858895 9.178325912177742 4.094676488705663 -1.8008970705331888 0.4076170387633109 -1.7366179488391449
Ni 6.8033858506438785 4.790200119605851 2.8841262585474 -0.6723072241216873 0.00878237417832036 -0.43104441654831566
Ni 0.33967521111008486 5.103192165958898 8.950451500621758 0.7559428959654724 -0.32830956198123457 -0.02934065794564624
Ni 1.426737378644489 4.068038534013393 5.720906507429952 1.4157532731717295 0.8906406765923953 0.09354213232421954
Ni 8.737361702899342 7.684963660535129 5.513108132594175 -0.700530994854071 -0.1846525152784949 2.816758184389691
Ni 2.142385024292801 2.162867951595922 11.743398285075632 -0.3371533855251097 -0.011082483066406721 -0.2564372013209648
Ni 8.175538995988699 1.9468653339863011 10.920330602883814 0.9333999219367924 -1.2955678272283688 -0.10221137796344332
Ni 4.992907287556104 3.4361217736244596 12.931937672272486 -1.529976073773752 0.9386467721580286 -0.5510758534123155
Ni 4.8579506309512634 3.912635856280753 9.520197963373807 0.33029599628364403 1.2494502069346998 1.1291043241540748
Ni 7.727553386855492 8.029861095453127 9.909786931296692 -0.08476592879348627 0.20578415505078754 -0.5487042678563454
Ni 2.463053555112603 2.392876462739839 3.933668685596156 -2.021372251937248 2.3781796642478588 -0.7296898758062142
Ni 6.923118709928832 6.9660590449147435 11.90961908544922 -2.1814540198549137 2.62266354986169 -0.03805078412513446
Ni 5.735690198609136 1.0232329373168416 3.100391832656183 0.28975124209206227 -0.8713296349686092 1.9780265379617612
Ni 4.889948284954517 7.890595642879567 13.156792236032835 -1.8334284675019907 0.23426503609929977 -1.5463923103482464
Ni 4.920912566048784 6.150580195023294 7.129534025844457 -1.041846225066354 1.1826969126685503 0.3801674271927904
Ni 6.832366424814644 2.755959415547229 1.929191889279487 1.304881905540443 -1.7893571882143895 -0.9824943654705983
Ni 0.9307921946817216 7.557406692082136 10.047271660911019 -0.378329088432471 -1.0153924017501996 -1.8506592295579805
Ni 7.121083434350345 5.599580224025516 8.790024047119172 0.3672810581484255 0.6325422855189234 -1.1387351623756194
Ni 6.003140024616146 5.691522733293803 0.46530752252009056 -0.9408630630830571 -1.662320780787466 -1.192383543828695
Ni 1.347868881983644 5.7623364571908535 11.331175682482796 -1.5873993488882274 0.8729435164229481 0.37606343232674594
P 8.09450226152775 9.189120968459116 11.940420979372076 -0.5872168221092469 0.5153848277686092 -0.5039092230288419
Ni 5.273006705154365 6.590317273972271 9.422766583180913 -1.6190840815860181 1.0069769239929947 1.08542642365015
P 7.647863727793756 8.299571424698543 7.433684275244989 1.070448462184079 -1.1276830183265159 -0.31578828958577226
Ni 8.239617342889678 5.5341548017253235 12.766176353781642 1.9393874854333246 -0.0681774283071858 1.4713986304501758
P 8.256372746485384 5.880260913885081 10.568173723280186 0.6819447472114514 0.22966584676439158 0.036187505664150584
P 1.7063939221388982 1.00468758421807 2.4352262989206155 0.7237308300093019 -1.3820543382573875 -0.9771431284610139
P 0.6402012740941015 3.8257679461190945 -0.08427063807344723 -0.5105712084300498 -0.0430063283581969 2.0865813416447287
Ni 8.690583125680053 1.2697938680921994 5.966895392487835 3.344369893241795 0.2480302082041922 -0.4593221804470863
Ni 5.766405363019987 8.771379970001416 8.322921039169717 -1.078624313126652 -1.0974319327514586 0.7103433529588024
Ni 3.7496766391511502 6.6667868692372565 1.654939332506446 0.6837468334171967 0.4175273558984874 -0.908245791268668
Ni 0.8630822801291623 0.43410980986691844 10.389975023706187 -0.4459742983852706 2.231819873901976 0.33447223914852076
Ni 3.0051683644018645 8.764330890515117 8.725933705711213 -0.054583748783151156 -0.4281305853356304 0.5551834478227858
Ni 0.012797216292535317 3.9024220722606833 11.468362394731404 -0.2444921131439467 -1.1813941346967267 -2.075116535538239
Ni 2.6847766298969695 4.169724273566408 10.204120138061855 -0.3437019852769049 0.8529141085758989 0.2271158266490282
Ni 5.232003944372803 2.619028278562718 5.563072635398044 -1.6338373286357928 -1.38447888853848 1.5565954761334935
Ni 8.910036470682181 1.8089377302681249 2.7861412857246926 0.6458379741865651 -0.7432863835437263 -0.5272083027660985
Ni 3.126755758996695 3.9456668831929926 7.750231308935826 1.0887688577598218 0.8317323322919612 1.2572038827381897
Ni 6.987058658672358 6.344162311125444 6.4113112518131254 0.315901675235185 1.562505156749709 -0.25596488967023656
Ni 7.6432043231594875 0.9154115461167206 8.481336183462929 1.4489045631127175 1.2518439039778568 0.4279482941214952
Ni 6.712209144513501 0.6139905083811712 6.0618955783814625 -2.374130176768834 0.39377704755642506 1.1924272525824369
Ni 0.1783767718699245 2.9808748744968563 7.419383132308126 2.790706738718278 -0.06939818808816435 2.3844403004455903
Ni 2.748799617534967 2.0528506429642053 9.040171335481341 1.3891834931030012 -1.8253096950495982 0.06449920812465021
Ni 2.02315039837468 2.308610437938307 0.7233296660413657 0.2857467489183595 0.15423816465269566 0.24523644750913895
Ni 1.8897899338524702 4.656212250103185 3.2898395344680056 0.4687205909428508 0.004351592100476377 -0.3826202596086572
Ni 0.8456136646953792 0.7520103775376498 7.903865258216209 0.759919364114717 0.5783568006154556 0.39361044007157375
Ni 5.285905413429033 8.265931445893507 5.512418909770057 -0.3960046513353631 -1.446819912669547 -0.33106886989392664
Ni 9.099697305656482 4.130972789479423 2.1083224697803415 0.20193778472150384 -1.2050207729767313 -0.49710582695376315
Ni 8.522853785390218 5.665337801903598 4.453369451958628 -0.2717550626249578 -2.399844550815802 -1.6768192315139574
Ni 6.529698881007631 6.933489345194016 3.762803243058425 -0.18963531320506696 0.6899426778152634 0.43221015472164276
Ni 5.576569223712911 9.077553600463919 11.152545180657539 1.894572128890847 -1.8254382502076625 0.06229988648048627
Ni 5.129663120207841 3.1828162393092003 3.2156756525061976 -2.366870666992943 1.597219420302443 1.1860419178813832
Ni 8.879782633462842 1.6180682180520627 13.342876862618537 0.02735088120912709 0.5580952221529419 -0.03954948015784802
P 0.9778198885844271 2.8736255290142103 9.662178787796604 -2.2372536433230374 -0.18435066776735995 0.4871556577195868
Ni 4.357309136178907 5.872058516420003 11.548522607528481 -0.31508123621641865 0.09039870159923141 0.785968238682969
P 6.579540670778559 0.2474300712041659 1.3995116931102327 2.0227349366127294 3.050471975971211 -0.18435195331894055
Ni 5.664405920976745 2.1969969372239597 8.346876837570539 -0.9626107391727938 -1.9325954022121554 -0.4438006877727196
P 2.057989827877646 5.667939687263724 7.369013584230109 -1.3736409173827118 1.5686287531489436 -1.1360110785762372
P 8.992060445332966 7.418390356191993 3.437383964820435 -0.19616231569030732 -1.1857346710536094 -3.0984891272804376
P 5.470823804874594 4.217434731712551 7.443879606177398 0.4376634645267301 -1.055404423366763 -0.799882534771216
Ni 0.8604185769253736 6.060667525397658 0.7963226995911173 1.9532020227189133 -1.2531999037851191 -1.0180527221911821
