# total energy = -381166.3465754729 ev
CRYSTAL
PRIMVEC
9.29703789945468 0.00000000000000 0.00000000000000
0.00000000000000 9.29703789945468 0.00000000000000
0.00000000000000 0.00000000000000 13.60715472484919
PRIMCOORD
 96 1
Ni 9.27199142345827 5.515188670502248 10.98297360547104 0.2177392705301347 0.022635992231961017 0.1632550234393253
Ni 3.7686192878001075 1.7256045628174728 12.33926729348204 -0.06017641237958024 -0.8939589423323506 -0.0705407863330398
Ni 5.749808712457669 0.21164148371730787 4.479992349785571 0.3268337487666565 -1.8960744244679861 -2.5723329199279377
Ni 0.22475681472010198 7.80755924210425 10.57470442412589 -0.8278579369382194 -1.4368615159052545 -0.19506651152296728
Ni 6.386851028784637 7.6833787103084585 0.8858514971329351 -0.9512415781039038 2.3240592282543715 -0.34443629233976814
Ni 5.917146092991652 7.2138876063812605 2.9851644335619576 0.27667563985502674 0.136579571030668 1.5195715906109764
Ni 3.626532661504153 7.592611731801138 5.23371992616065 0.28130696797945104 -0.43011213454203345 -0.8119196684414082
Ni 0.5298186514880062 3.827925090923963 12.38785826072249 -1.168088675837072 0.5780649804066497 1.768234547303161
Ni 6.0563413405806745 3.771891845050397 9.303619945519307 0.6046126489881909 -1.1037244506283894 -0.09213393912278325
Ni 4.010156325761822 2.9777760777471705 1.384882078762819 0.8587134888664952 0.06001057622567729 -0.8710964359118805
Ni 8.110242896643108 8.115588693287757 4.4374695590146205 0.06409245960453477 -2.3165076411593586 -1.013267642097713
Ni 7.230473521536137 6.213675108610932 13.18578116494047 1.1304428404598403 -1.8789915008437705 -0.5955705933905807
Ni 2.711564701881284 3.72052571207355 13.069086607854718 0.9872041122414418 1.1498873223376969 0.3012170766398167
Ni 6.340561078360797 7.6831927695556015 10.590829206213682 1.591131305126834 0.8497418814955043 0.2003089908688292
Ni 2.5552164198411695 5.041532493711044 6.832764845249523 0.25603019569053326 1.096417118333699 0.05966167752669079
Ni 7.658341787936216 2.9042365099920837 11.4386502411647 -0.3127273912722614 0.41434664417766065 -0.2057425031795747
Ni 7.82733404117063 6.469204188225164 9.19692621182599 0.5609638019499887 -0.3742322926552781 -1.224231798687543
Ni 4.8014550906592595 6.172247508874312 10.416331247287161 0.21933078338697065 -0.16689930506013193 -0.0859586635500068
Ni 5.653937660284412 2.7115461078059977 3.1950683009438134 0.43476043194732217 -0.007723593896502828 -0.30485518761303626
Ni 3.303711623430842 0.44076883583332216 8.86023027477446 -2.3734040972360866 1.230247922974636 -0.17660779059714746
Ni 4.825841220396502 9.192538939762319 6.745950967147948 -1.51399203964067 0.6197317640178165 -0.5353543289120005
Ni 3.9993903561713804 8.380089414227356 10.955568727611158 -0.08254500988276751 0.7089580425755017 0.1155201792572075
Ni 3.433991011920354 7.52108032417691 8.275680892386655 0.6760666911641194 -0.9067815480183157 0.68426131115977
Ni 8.358018246863187 0.99970116069997 4.565077908589337 0.03187370878014511 2.2546985782723623 1.6278991087744867
P 7.747109903350321 8.338076101119235 12.735398262480658 0.5759211945907694 0.6483214027300512 -0.04203188026006955
Ni 9.228843871757718 5.765595082375259 5.2824466301506865 -0.7770089726071521 0.39545752058264155 0.7121724357477413
P 3.6064882483461296 3.475613849447474 3.420893345289081 -0.5810505453975349 0.43830341210357415 1.1276519079782643
Ni 2.18533377721966 6.668402516761257 0.27694759493587096 0.547425915364554 -1.0095428849479584 0.7171801733749777
P 5.078423139077945 0.2047012451169068 13.096559354089393 0.15986425259022147 -1.0570432445217668 0.8525454123825704
P 7.311460016443162 1.5775399413171545 9.254592947213405 -0.25070364127129724 1.4863177136538532 0.05915799841739489
P 0.3887472617026534 1.8615551442691338 6.561002208207079 1.1592700491041776 0.405369894600347 -1.7499321494495474
Ni 2.697154293534838 3.0730428224736404 7.900327872816081 -0.007210658815826292 -1.4967026564326031 0.36727411616989003
Ni 9.175906539419227 2.928715610105755 3.3597290643404154 -0.7457811249411221 0.33639362454094973 -0.7896446590932916
Ni 5.982364812056373 7.799210502300953 8.024791964259979 -0.303029190147891 -2.4730459147001405 0.8178530032067075
Ni 1.3261201523410708 2.2654835387388266 11.080836083107398 0.5492992211278669 -2.3763063584845465 0.0049095214864754155
Ni 5.002810331928498 0.591107512741086 1.9072063882069092 2.808818360717324 2.526864246072177 -1.4424179269471094
Ni 0.8969019560752481 6.1578556946031515 3.2181602830411693 1.356146360142374 -0.035446770843384115 -0.8125069084034459
Ni 6.653787573586668 0.5138128714820444 11.531097194374087 -0.9017087614810987 0.695952374344453 0.2969816984022305
Ni 1.6862594995128548 9.10696900529736 11.679592268717272 0.572984994780581 0.9742501231839349 -0.016473057954358727
Ni 2.528719862558996 0.2682269736268606 6.363616802011346 -0.5709841623004682 1.60440745341045 0.11129559965289865
Ni 2.947346873542063 8.82055516663352 0.10889806131844329 1.2759091724571767 1.287052076447874 0.007245111598187523
Ni 2.612867350264595 1.1889981441464086 2.1193275990665894 -0.14624563336552232 -0.44846595445887283 -0.16238110547480422
Ni 5.936567604627604 2.2536484098194554 13.464891250832073 0.1200049545014385 -0.31930555871041133 0.17428017090523534
Ni 0.44878567139276737 8.65254839938925 0.1723819531590042 -0.0555347998425108 -0.7280986200596945 -0.22301800243057074
Ni 5.931361263547598 2.0676983599244494 5.374186078795452 -0.3795853294370753 1.8547562824454895 2.581871198435676
Ni 6.889848656376733 5.276431446795751 11.021563749319057 0.96161546513906 0.2539180344435369 -0.645557723941985
Ni 3.6635813565109827 3.074344407743642 10.467208356083994 0.11173834361727207 0.005361264311913347 -1.200385845307881
Ni 8.409170547974247 1.3226802484132099 13.09167469051183 0.24633559411058864 -0.27248808413624037 -0.06955399693973828
Ni 4.137079483662259 4.874018469461846 8.814075131396441 -1.5080103681359385 -0.1736425373212364 -1.0832044762981667
Ni 2.5567597280898857 5.215284830218606 4.560519571033038 1.6972165642233865 0.3727423383733129 -1.23937739607973
Ni -0.013285466791658596 0.024342433660321693 2.423039505968749 -0.18086142366717883 -0.4521259198089633 1.0397829147794222
Ni 5.943075530977612 7.373712980499806 5.409333529604315 -0.6610409071792487 -2.590611920742784 0.4980224252307616
Ni 0.575762752111532 1.7942259976594825 8.667294430794604 0.34295019471254484 0.10919680814234098 -0.034339910932450535
Ni 5.389641474172956 3.9717595602967766 11.981194677778264 -1.6933290562435226 0.15212651762633156 0.13239201531188166
Ni 8.816008915226158 0.6137448696977056 10.456853315557366 0.4006467780930648 1.5013869492821499 1.2985608484184217
Ni 3.9696398357142026 8.181997433170764 2.3938254245835644 -2.356532775402045 -2.007826137821697 0.3345259752045916
P 2.3011004899486545 7.0969494669092645 10.22581728161327 0.13122679135918688 1.115320640106421 0.008378453871682345
Ni 0.6156014881149865 1.947645712842093 1.2940732635861045 -0.7989805917822369 0.7891432939768409 0.22232457590797194
P 7.192039567920521 5.985470022629091 4.245663305108372 0.8954373266500901 -1.1277182424398255 -0.11034660547606802
Ni 7.02786318018511 8.994502740931583 6.3232583616036555 1.556132934674778 2.2514880417548646 1.4946658285082324
P 4.524068675546645 6.102835825832658 6.667750794422491 -0.37516200355839907 2.280849268525801 0.5304581771619639
P 0.2860308007129531 6.118928997992463 13.243448830031653 -0.8396402742851281 -0.7207354948264039 -0.7585870184565388
P 7.827956942692701 3.9148059076965662 13.535662160777113 -0.13451548941278768 -0.4479239659124738 -0.8749988562900801
Ni 0.9881728340228134 3.7384225095360715 5.110997169867262 0.028540016421221812 -1.0604625546159607 1.1934492660890479
Ni 1.4939874640206985 3.9636432464345526 9.70616029226892 0.6773116193148141 0.33511090117378417 -0.3149853340685027
Ni 8.515528658608659 3.8204223815461686 9.248020871303662 -1.4377130652722723 0.32729449045315895 1.1072324637816477
Ni 2.33236642754162 4.643070757375358 1.9396865189160337 -0.730329309162426 -1.1675772834182925 0.10063940549063313
Ni 7.296064122106572 4.841674075502307 7.2043618616123775 0.2232794836220735 1.1873976605783294 0.08772372587022957
Ni 3.393539601136234 2.633283644928334 5.535213559881222 -0.026637142971554124 0.04416666721488523 -0.8601098549933898
Ni 1.4631491901593046 8.289805881677463 4.316569951802999 -0.08708274985212099 0.2194706513989446 -0.25614460978121045
Ni 1.043146217605093 6.014634829714768 8.771457510841534 -0.220491122243659 1.4433844046254367 -0.5786704752011325
Ni 1.3675477520776915 1.5536930397631976 4.320203234113832 1.1333854680279318 -1.0876889944320818 0.7982956499000704
Ni 7.579921275418622 2.5742009707079068 1.6383695289106766 -0.16586109360360468 -0.23302756414777284 0.18010886177187047
Ni 4.101694958393502 5.878935268279465 2.26353673905641 1.0186433045873295 -0.20355320883773978 -0.3086678764909071
Ni 8.038358201588451 8.84979435002034 8.550273547687587 -0.6849195135690591 0.017186024860983307 -0.23731616422079777
Ni 0.5092675497784461 4.143996479668552 7.42922094374655 -0.5882738026188514 -0.6833382851248683 -0.9362332776205294
Ni 6.338246115987723 4.943922895498571 1.879596975518884 2.776332986495109 -0.03158111724039077 2.2175132274713163
Ni 5.4010024541725405 0.4908463993928672 9.235597239901498 2.4287332088256948 -0.8288794362241984 1.1913525314610194
Ni 3.5511894684463496 0.4133462936019182 4.073437542181769 -0.5459238768977308 0.8554361036668042 1.1088203770940581
Ni 0.1021921080666425 4.34055444951407 1.5183680155353558 -0.927344716881648 1.1781612295817256 -0.9561503282594307
Ni 4.971525800260246 4.1519547438908475 6.636032091096318 0.797231213191298 -2.2979558462991005 1.5676527623889194
Ni 0.04211558052219275 8.934918026678442 6.277238954975222 0.895881099055728 1.645181292893702 -0.1337881243284599
Ni 4.609424778145818 6.687191829837493 12.742378478342925 0.0311964802074624 -0.3940357005344504 0.8529475329169955
Ni 5.283097422785687 4.831484522245724 4.574180638145469 0.16703557352768006 0.7460220373073345 -1.7449912605045044
Ni 1.831646574172027 7.448284519433252 6.638373085174792 -1.274817739165211 -2.4883092686171144 -0.2150938624874876
Ni 4.766795734326647 1.9936474550990044 7.643777978468663 0.16701911846744785 1.0431446321628037 -0.03219355401340907
Ni 1.0392042736445168 8.698038804575804 8.49174869572573 1.2197534512012156 -0.11306349018659882 0.8094095004250447
Ni 8.237166054543543 6.724919208592252 2.4187535716153867 -1.0073880433884843 -0.11726904362751417 -1.1585635099554563
P 1.7724988206880996 1.7773797654506056 13.230127104793189 0.21788762318254087 -1.1472730246433016 -1.108528299774936
Ni 7.621655677397458 3.5991064004576923 5.007106493023268 0.1423522118483871 1.4904384206904462 -0.35723935764170733
P 1.8629311058402784 7.926775155798747 2.1450590101507556 -0.987828376089002 0.2279534920589752 -0.5233663033121889
Ni 7.738789054659954 2.5389651980414363 7.1914352604737335 -0.7535078041614184 -1.1451210112973054 0.3859822341023546
P 7.199114613566742 0.7972014540968944 2.88602268354594 -1.3986538944872815 -0.2674862600462748 -1.4158478897680649
P 8.90275027643412 7.029099686191612 7.007711851094194 -0.48053121042453373 -1.151610989897023 2.024586130888855
P 5.091671417719032 4.830220125126294 0.40611226861200256 -3.040767347088937 -0.011437552412980301 -2.711706508763975
Ni 2.899894793412864 5.2758550304618925 11.185503062594574 -0.9962865341586842 -0.11213866437948429 0.7482972064947564
