# total energy = -340872.8802716012 ev
CRYSTAL
PRIMVEC
9.22769223323066 0.00000000000000 0.00000000000000

0.00000000000000 9.22769223323066 0.00000000000000

0.00000000000000 0.00000000000000 13.50566033275962

PRIMCOORD
 96 1
Ni 6.090396775550487 8.62935935841721 3.4713867316354703 0.23142550976797563 -0.1751486895531177 0.7198114403502378
Ni 4.95418181407199 4.663860163813027 0.16530395431231487 -0.8750528494564671 0.2615809503054334 0.7479171974475184
Ni 7.045158398694096 2.3610711336997183 5.22320595086081 -0.5790877652442091 0.2820353615050433 -0.5406448878869786
Ni 7.823615735719601 4.983119856638011 11.760985233589647 1.621765485072923 1.3993221241988998 -0.5044725517314796
Ni 2.1649088540860557 2.7390374039497707 1.2711081335584855 0.412925852570734 1.0620715509742935 0.0005054788815088069
Ni 3.590356598150433 3.2576613855626544 9.570232382113716 -0.5174658786673539 -0.2652396301039432 -0.09152021679818433
Ni 3.5489980819575435 5.11021286054802 4.945232798229986 0.0011747370343915251 0.7292520169378472 -0.25587824349370125
Ni 8.021918839910851 0.898494847521618 3.204109396969658 -0.8634227214167066 0.040345750806898256 0.16298017251138383
Ni 3.153665295091021 8.82213507501374 6.771292491836912 -1.7307296083791677 1.4781189798931447 0.5957305160072128
Ni 0.954484792379265 3.525781208521286 12.591948138918934 -3.3068281875425956 -2.070420929834783 -1.1983474747216136
Ni 5.8493971398053555 5.4595825128414095 3.6197873994769836 -0.29951937722241967 0.4047877968446319 0.9423432471730093
Ni 4.3596139261075955 2.1150424057356827 2.100670275220193 -0.29083239097138297 0.14566070739632977 1.3412545306322061
Ni 5.700185357824316 8.538614233865477 9.937437317784529 0.3962507059078982 -0.2334433115289528 0.36402064222959885
Ni 2.905504970241542 6.5890243482856405 6.915991932359156 -0.7045923094076382 -1.4713163551490145 0.6748541589132572
Ni 1.1229732232507423 6.280053532202083 5.146142725452137 -0.17578760868869725 -1.6260101192818899 -0.4247518986713846
Ni 7.188049211555963 3.740131269352303 0.24527390274659297 0.5914925666664651 -0.08427561942062906 0.8502478745976454
Ni 1.181698256060101 2.296883307140652 9.921622898986811 0.7326911245263833 1.575877721401873 -0.2019951203220005
Ni 8.159549868250195 0.012350343166569102 5.986113703853152 -0.8835020086650849 1.401776242166347 -1.8588492215679406
Ni 0.3559711432537629 -0.09186352083968076 1.5066237518619774 0.7331945465253631 1.6210309208997438 -0.909355479393079
Ni 8.824275899591328 2.590037858888062 6.960182427271277 -0.45346186501156743 -1.653688816144081 -1.0449922268945036
Ni 7.9199897524796485 6.9982079010614715 4.259995452789444 -0.341716836526076 0.2033439210404111 0.543631224208812
Ni 5.000569422483783 0.4210374461050122 5.964288366392327 1.9709398063183088 1.6154783665126307 -0.890008699435351
Ni 4.062556060582945 8.128554050335891 2.295368120090479 -0.7980799343448385 -0.4470240798060237 -0.7841334994670753
Ni 7.084902068761649 6.338630921937125 13.475083492865569 -1.9699252490108654 1.10981179447305 0.12593006173662183
P 8.392530639521517 3.0886562039310697 3.5563239467512817 1.2755404762638485 -0.39076294332044964 0.3185640525586965
P 8.660585868635135 1.7019370837983203 12.70064204746147 0.3412303838079607 0.8112259848084932 0.8727239442129744
P 5.400128492352613 6.358627330814857 1.7466055731635408 0.5360976348359283 0.004739314457198289 -1.0840801940349007
P 8.511927748182783 7.69103225498345 2.326984961686128 -2.3070521521734144 -1.0121314716107408 0.5127728440670588
P 3.9529495332872875 2.191226232082959 7.538967270591246 0.6540176817838801 -0.5843364152376581 -0.40782221279558145
P 5.572234178544843 4.336572378822088 5.675091571805811 0.6825103899069342 0.14817601761901578 -0.9577924918485441
P 3.1007721637171617 3.766365598119903 3.2994600626708492 -1.0406917997469367 -0.9367886359033673 -0.45533079989950614
P 1.5314093329628475 5.36268251762911 8.544463667916052 1.1957241781661536 0.2975956778371456 0.016434748517255564
Ni 7.1812391747531175 0.9359463588604087 11.37533137301378 -1.506570293255302 -1.2977944025660424 -1.158067029935012
Ni 7.812976206676674 6.770394637391226 6.9103731906122015 1.424182120665373 -1.2939130652337651 -0.3620298370518152
Ni 6.8443730453159 1.349531520789299 0.7537280448467182 -0.21178459560859658 0.7569322564619351 -0.07838907873286499
Ni 4.018826027508848 2.6604359222605636 5.039231607031969 0.312850547113687 -0.28375774351278876 0.46638448661050647
Ni 7.905862155805996 5.512558693444572 2.009142642374582 0.40511998337307004 -0.37042860263847166 0.9508430571139044
Ni 6.978276086028755 4.1622243634386775 7.390107986450137 -0.9369555004985347 0.5712767538402226 0.7996156542630745
Ni 2.0992076860152458 4.990354367279515 0.32102679587070815 0.6074881707637731 1.6906923899516237 -0.13204003128910163
Ni 1.075838171775223 0.803893470422582 7.855486338849231 0.03469369472744347 -0.04242577326437855 -0.25527969067775386
Ni 0.5861743791895065 8.491469954697813 4.082531245768743 0.5789669233956287 0.17541685561283982 -0.5469985980191483
Ni 3.4872740492011327 5.8652318595257915 9.52447502507541 1.6498619861988233 1.1760812071242457 -0.6048882712470808
Ni 5.620771839226369 5.664640287682637 11.565261269352861 -0.9446464413848892 2.427452799451374 -1.2404359192512315
Ni 0.7433035210307638 8.101073983128746 6.422211666307654 1.2253923946545477 -0.29514618785538843 1.6562339511634379
Ni 0.2702034358449217 6.118024485831949 10.330547153613375 1.359109556535756 -0.7986915997869083 -1.7720989153545739
Ni 4.295629108775714 0.45620971748404304 0.2718782619691986 -1.0004110978500191 0.12143474496942958 -0.4581371590000497
Ni 1.9758057589631475 7.941388770563386 9.119075748848152 -0.682796039468153 -0.3750432185923476 0.6011012934008229
Ni 6.960854203259417 6.523886069435662 9.315569302609813 0.006044663532183138 -1.5152981600466033 -0.4713305177618721
Ni 0.08514576095828333 7.072942979742019 -0.009606950291926998 2.097772325264542 -1.500003695781378 0.07119256098442578
Ni 6.895457549029383 8.732626461209406 7.732017049644476 -0.811651502381686 -0.6240306485034866 1.6336871762111735
Ni 3.7779463517615977 0.6732884068822709 9.219922427990774 -0.9021137102290012 0.19677578090459014 -1.032312574544306
Ni 6.52977333702403 3.3529003961888946 2.6739185032532964 -0.34570410330859813 -0.4710412686562275 -0.5865768745324027
Ni 1.1010943651754768 6.520702515645714 2.140201708368416 0.15680181161481382 0.5677330023530223 0.501544322341091
Ni 4.1244646471822515 6.963576372442125 -0.11559899057447531 1.0646621945196049 -1.031501134386604 0.9263196180512434
Ni 0.2584501243601196 9.607134845769894 10.306304160810619 -1.4063643757576618 -1.814245466815637 -0.17259404145206406
Ni 4.672894074422764 1.1983173296128438 11.449437123090053 1.0113089757094453 0.30633794280614984 0.7031982572735889
P 6.249851295812229 7.732095485027706 5.687489898971532 1.8081419250210602 0.45844440582782336 0.46162871709307596
P 9.010509182457211 7.883937159270006 8.594164940577032 -1.074511319399543 0.29614171899943836 -0.09226943625938304
P 3.3838593033346203 5.422708655030881 11.960032089767767 0.7526403139548005 0.4855710868412863 0.7971929037541948
P 2.571942354592155 7.355024300915697 3.7232270601122868 -0.6964038600595749 -0.9472185729874396 0.11992242208996119
P 1.5897837134707047 0.8326903292987866 5.465511305044428 -0.4399910842186422 0.7410178992245239 0.44371918380250686
P 4.085007035571186 7.885533550011052 8.509105919924911 1.165034976612413 -1.112487284422684 0.10711344325075102
P 1.0817900332086041 7.984491320571638 11.546826185986026 0.1526286540737307 -0.5118963549993765 1.0022298962263128
P 2.652177137790988 1.2627358484755298 10.950389690362314 -0.3451366608409024 0.13761495427371784 0.9700255435796262
Ni 7.8463619968564755 4.800614561398618 5.175139825247883 -0.29043001332664176 -0.5225875161646354 -1.7122528897312188
Ni 3.843389144452354 8.091163441765257 11.440023954333169 -0.6974395004129408 0.335044566712223 -0.9523288976308116
Ni 8.99296733968999 2.4055209267611075 1.2969244478719275 0.09867071180003652 0.5922672400489606 -0.10325447451597701
Ni 4.319196634513474 7.624168397702398 5.0223633857913175 -1.5340751835437902 -1.7141858450878735 -0.731323040534263
Ni 2.2900455872613725 8.208964159685475 0.2499089725109143 -0.47474211454658233 -1.1689227417025934 0.2157006428335511
Ni 0.8570984977909354 4.363101993738321 3.2869131696615965 0.3494298888996175 0.32604339165487717 -1.0032187425021433
Ni 3.306254412397048 5.598219359624534 2.2050290139931157 1.1187273517951248 0.310119264225453 0.8574222808588975
Ni 6.3219564822315135 1.7231238649627278 7.439890462801994 0.5996982424057091 -0.24481118704626226 -3.558638688724826
Ni 7.973178170002141 2.968686978356828 10.974564398243201 2.5492500699665452 -0.46274997518171274 -1.7390113887719856
Ni 8.217527457995828 8.81861932430658 13.010042873998975 -1.0389678750772944 1.7655837399438754 0.4100912113354163
Ni 5.645372866484344 2.2560415417078703 9.333140673991897 0.07208241978854682 0.918294947974554 3.752471070730376
Ni 9.116240079052062 3.826548606288137 8.837213123978305 -0.40894064267074093 1.8468671095054 1.4320869773347464
Ni 3.2611771362698145 0.4364670701402933 3.871586203339148 -0.027091199789837213 0.33455991376632055 1.1548104706709272
Ni 1.966947174504162 3.1961034512648494 7.523057806564436 0.16096828428767762 0.13671018307126132 0.6754385706618173
Ni 3.0459965831457674 3.073605838042939 12.255805460545865 2.8808979522923934 -0.2595155831359724 0.20684370666355345
Ni 4.17760692624402 4.430694838698811 7.274473007876298 -0.3551742475825625 -0.6521456615721478 0.8976479611481637
Ni 1.997721527806992 4.599321684952459 10.618879313445925 -2.0312368034361534 -1.1193061071167305 0.5956497833679484
Ni 1.1275593862466962 1.5465704311567157 3.157205037797758 -0.17895649333498212 1.0888819862989183 1.838289652249034
Ni 1.3772607356843531 3.2494671949380924 5.236711601083905 0.32365509392835873 -0.7833796520201862 0.2704121754438182
Ni 5.959059033253881 3.4173927365887384 11.784471555636532 -2.080081335742682 -1.3397159825004927 -0.6507963466331049
Ni 5.502878844384702 6.358996438500647 7.494047787999687 -0.8545549866134314 0.8137952881975663 -0.29701820806712076
Ni 1.61353579305136 0.9713806966963511 13.021752815330697 -0.6567872741092172 1.3725404852296814 -1.1121502127982394
Ni 6.034661514996037 8.440311629447171 1.0482298396472658 1.7372666381667372 -1.590701930898899 -0.6924659584577494
Ni 8.068168032940472 7.496078803040753 11.0413230598338 -1.6854848776087552 2.0341884298653095 1.152824293478834
P 7.7772558103842435 1.9596388423254987 8.925431706420799 1.818864710755203 -0.06479848453262388 0.9885382576718331
P 5.41843623356785 4.565843617851209 9.661138991277983 0.7553412578257314 0.07281107042445525 -0.6897292762528766
P 5.016736339121431 2.5221774108553743 0.1322355967422932 0.6272931213048423 -0.051002973410428296 -1.4200051064695478
P -0.10545960244579472 4.754051626836075 6.828664744977847 0.8174837927927469 0.4948921071318961 -0.3484909220251159
P 6.173501371006346 8.298426635029085 12.240031643593584 -0.8231175940397567 -0.3468880963143703 -0.17422643484916445
P 9.083860107316042 4.968124856902748 0.12226230707221857 -0.811255552494848 -0.03806595363378606 0.7604014459574582
P 5.591492372050992 1.489404878319824 3.804841383286764 0.18323660876757475 -0.44305558207657886 0.319250794213076
P 2.4590599965851014 0.6750416683897784 1.765135701759467 1.1085761222937358 -1.1064115105422494 -0.7712206480601492
