# total energy = -340877.328015288 ev
CRYSTAL
PRIMVEC
9.20785747697134 0.00000000000000 0.00000000000000
0.00000000000000 9.20785747697134 0.00000000000000
0.00000000000000 0.00000000000000 13.47663016204379
PRIMCOORD
 96 1
Ni 4.346799340950644 3.2638908410487586 6.01604855466465 -0.13397581485923377 0.08570926654336207 1.3419523280301793
Ni 0.3270492874893935 0.31375958672406157 0.14381844746331027 -0.2094052967431426 -2.5657089868535166 0.24086042992863035
Ni 1.9410163661968873 4.354073548395119 10.009767074117953 0.19357527168942146 0.9113038613687016 0.34765351372548514
Ni 2.10514642657383 2.5762848725377583 6.6846513468162705 -1.3078242759982186 0.30753093467298653 -0.7901748205651488
Ni 4.032756152214822 9.079499990759501 12.603425332233227 0.6780577534522193 -0.2739726391015669 -0.6116140200066886
Ni 9.032825360967033 6.172837190237186 9.349870311255891 -0.8028236196774108 0.09492692848688812 0.31228104776346216
Ni 6.6710006980359715 5.184631504976359 10.354998197075526 -0.5653922700349876 1.651692868759975 1.5804887378113233
Ni 0.8385301196260849 4.319636161252917 7.891739775652885 -0.3098968638020018 0.1940180156537949 -0.48391401085383756
Ni 1.591596588851349 7.864716555389533 3.4450305766309928 -0.503635657652481 0.8821727483306999 0.19082881929253587
Ni 5.752691859244787 0.12866783869224596 3.4853527055172018 -1.1005956751914208 -1.3057190567297576 -0.7985579024225214
Ni 3.053776740193698 7.547616357955528 5.440165204643277 -0.05756262890581699 -0.9210725107196911 0.15040439272890224
Ni 6.795914493215418 3.8299438823768117 5.837132516674619 -0.003363260045278079 -0.17759432288013283 -0.02197599005045893
Ni 8.68847911311758 2.5918737753269965 6.695742211204715 -0.07826206623669747 -0.2556175336331469 0.5889885692976888
Ni 7.251841558548619 -0.08642218836913722 1.4018254076255046 -0.18765222133676715 0.9575438661728478 0.1903865895487947
Ni 3.9662662130293023 7.259438041006457 7.593151054986443 -0.8621759934937989 1.5858626005287269 0.4705455599667316
Ni 3.4722646568316593 7.971214635519672 10.24923306240435 -0.4152187623699688 1.9884528755014077 -0.061818833079009664
Ni 2.9411370190946156 1.4351919209375905 8.485586734919105 -0.29836520901331837 0.14353491930257858 0.2902667482759001
Ni 7.847074300372297 2.3029864533485283 0.7709720689677046 -1.0396607873792612 0.12373433963688368 1.0585105730959126
Ni 3.0501488443289846 4.887337409077883 0.5104302155931285 0.7087173873196052 0.21552915025269334 -0.4674041861242725
Ni 8.669980527350551 3.874905850669693 10.422704494240053 1.6581180555600283 -0.2058440617544455 -0.41129063096015617
Ni 4.854327239852002 5.314775363229808 7.949365310399423 1.0268656924971218 -2.5248089062050454 1.5420193780915314
Ni 5.757885090888691 1.8002834717900884 12.833175189259611 -0.025049743879776213 -0.7697219520274357 -0.33116091538710063
Ni 3.917252787425573 7.6387281081619705 3.21016023003515 0.7521916564531562 1.2088362900680794 0.211385560397965
Ni 7.990440642031148 8.192626777557482 4.344501980498243 1.8762532759770008 1.3201154346607458 -1.8110858381407324
P 3.1533689271803467 7.099258151507591 13.51126483701888 0.8043883930613694 0.5028265314876244 -1.1837644347011163
P 8.113595736423385 5.294416790242799 7.071322432563545 -0.004780452107778864 -0.0030429005913818565 -0.8759380802748978
P 6.3805940795659355 2.8634595330166412 10.260674746164485 -0.22115446685927073 -0.7283084220776554 0.8199793055210911
P 3.0532518923147927 3.7162176340898205 12.04596506354718 0.028572926541686274 -0.1418495611803557 -1.2934623508495917
P 0.2250501665458005 2.141867362382147 8.815320112876934 0.08097252318932506 0.8948097203684203 -0.4696716420022105
P 6.595450227046192 2.0095964890405043 2.4850635488267723 0.7953694773922109 0.8245787519663152 -0.08817495447503525
P 3.23053077323694 4.01622804795807 7.863802215137334 -1.1289534003985073 -0.6415380612596306 1.199062241400451
P 1.253032875527377 4.332361420351988 1.470394481040092 -1.5702403206104378 1.1957833135388631 1.1669008261765579
Ni 9.091875351272634 3.1418959367046284 2.845806228570377 -0.6241360637330993 -0.19912834029716672 0.579817444321382
Ni 8.171798603836717 1.2891000534514434 10.629031403295224 -0.7657863644184554 0.6185819666840894 0.4401119260672227
Ni 7.462020114406352 1.1577039265746427 8.380549941778128 -0.19298108974884828 -0.004430782077843982 -0.6611537786080292
Ni 0.24479273386440933 9.10330230246073 6.171191746097532 0.12620696954709235 -0.11517616565422746 0.5284354903049803
Ni 7.308893443771369 3.483590321586983 12.265377258930636 0.7200392400903277 0.3778920008950524 -0.057084403717817825
Ni 2.7884062863331938 8.866402544066453 1.234655833479674 -0.5503765133524458 1.022769153830245 0.7385444979833667
Ni 7.231271204838543 1.4228073525669318 4.5139164303085835 2.4934003099867765 2.1788561772207506 0.5851285721216504
Ni 5.086991383784937 2.545070235529184 3.9699456728961535 -0.9938694400767594 0.14304460992972137 -1.1239176377468127
Ni 1.372200967611438 7.000052694536977 7.639996030143116 0.25874245241537375 0.7252192416293703 -0.4821250372742148
Ni 3.5193352244976865 5.822616329287004 11.448356694482142 -0.7794996002394898 0.6399825438470527 0.04565713571748266
Ni 0.861849018807269 3.9298491365192985 12.506636017077083 0.490843133873503 1.2494340089847837 0.0035830893655680227
Ni 1.3835542559393355 6.709397463913776 1.27697146351997 0.06679160370325271 -0.9704721441987416 -0.5498268114965628
Ni 8.096220509274364 7.281831550506413 0.16166419613184055 -0.14118235991000203 -1.244234209951399 -0.09475723567824326
Ni 5.149236500651592 7.930810556701494 1.112719859423702 -0.40912267677455993 -1.369932615293189 -0.757068010708851
Ni 5.49588471288221 7.085934381669418 12.009524046607613 0.5969247934256301 -0.5096016454279289 0.06713150354117471
Ni 4.385573628986958 3.9090762099436813 10.180866561855305 -0.21875588472010715 -0.151783532464616 -1.0317592731439973
Ni 4.512430282104105 0.3598568838497327 6.045777964254498 0.5621825048484382 -0.5109591878970877 -0.3221201453410711
Ni 4.6588812560337125 5.610863229792555 2.41431129239309 0.17532866677440773 -0.1051527199799544 -0.1792313442629236
Ni 0.8057630378388542 8.952643337642355 9.650453453862175 -0.34550432859296626 -0.19627467289845552 -1.0911939222615465
Ni 6.749322734140672 6.925597958592633 2.7138161948832358 -0.3217871874816845 0.04758289198528579 -0.7780849792801502
Ni 5.5690503487731045 0.6105463296729299 10.617818995187454 -0.1062158711371461 0.23649726786392816 0.2634493709727398
Ni 5.171537931576303 5.607391867505761 5.623878536403652 -1.1379252648798144 0.5712628698831516 -1.0249180818524477
Ni 4.883746344643268 1.176276175201868 1.4507725366550561 -1.216869187674885 -1.1339269423536988 0.11487251837087957
Ni 7.382353731103053 6.142598586126226 4.86690977715944 0.005883455363970512 -1.2261508700871269 1.5334660892048817
P 6.553775463889613 8.830031506844072 12.652278541116027 -0.373030559037693 1.323139051978418 0.7578565680484174
P 9.068155910289128 2.0432788318656856 12.504399428484344 -0.6593046412144323 -0.48679313217384557 -1.2947887829704992
P 6.006865558355313 1.8022263297277903 6.5265432252604505 1.1193104779921046 0.9137119565895618 0.08898330930894352
P 9.167609979412907 8.085788006698932 1.9589762922987235 -1.325602425917246 0.5877600962072265 0.7524577656303492
P 5.564160976427514 7.658561833270073 4.8077069364189295 0.3254137284906783 -0.6441752417721616 0.7611501511980246
P 3.272002963527978 0.9581236147277852 3.212976913651941 0.33693946974209066 -0.4702095167835515 -0.9251397388105292
P 3.2121150581876337 0.9900472567657578 10.469683904116586 0.6529234202784369 -1.137186329831261 2.68032825156301
P 2.5751983453498495 9.006187029148213 7.188016373330733 -0.45843463563581044 -0.963990650239456 -0.38592001340585147
Ni 6.952788761862934 9.081175820828987 6.183401365175221 -0.5257602574656622 -1.0820917028499624 1.6943546692945595
Ni 2.415607758732561 0.6204272815826353 5.169864863864073 -1.795019271596173 0.9445477110234959 -1.320801404984177
Ni 6.954363305499649 7.611749085614737 9.638997958315752 0.4160348305133609 0.4580741669725982 1.0928833941488276
Ni 6.387481556994376 6.876271465833065 7.337284030877133 1.7756794336169808 0.865273144361884 -0.4941374883540586
Ni 2.2947362130064386 5.640540154594512 3.281290008627343 -0.6910994171275259 -0.9821410958962374 -0.6332092296789612
Ni 5.458482395617069 9.094996814973493 8.319123403445415 -0.8094400965526639 -0.31806680120730385 -0.24466746237954634
Ni 2.083931522837029 3.032036988577992 4.19806481835492 -0.14286951780443782 -0.33080456048894635 1.4363105284977908
Ni 2.8364805104694075 2.886902738274409 2.1280003289500193 1.4350036367609094 0.10449503179129746 -0.9572196500642095
Ni 8.349666787640441 8.344068410265454 11.55127752196395 0.4284113498008429 -0.6863379911831405 -0.5018294576816777
Ni 1.2432172994060966 2.094446896130183 10.736360032174087 1.4742337859061254 -0.5493611847140538 0.2189577163182681
Ni 1.7313718660755841 8.72868982692774 11.746972117935405 -0.021706281328840036 0.47483698825323384 0.7896821971994464
Ni 1.0116765140911679 2.3245236320986917 0.8106947663290585 0.4060005862058104 -0.02839320643071239 1.0816597575188662
Ni 8.252662008618222 4.804825797799466 0.8547028005823857 -0.8910965331828911 -0.2520709539324691 -1.3995622652341637
Ni 2.4634886178607576 5.088234444550766 5.640037405573666 0.10460327523438759 0.10283589892131967 2.2463898012963504
Ni 5.148472248477047 2.399236188053728 8.43600702607761 0.16457657046422625 0.37170309847552113 -0.16097316938368406
Ni 1.2306577817424695 6.380078439544556 12.33821877823666 -0.32921844694874913 0.5642969800882798 -0.769170964619972
Ni 5.0855457501535675 3.462357002135133 1.3430313957590891 0.9650198628349187 0.6264305161942308 -0.5065610588293921
Ni 7.315071916170412 3.947251987240893 8.560530408098009 -0.16910531157251524 -1.0748003113948714 -2.276766099595363
Ni 3.0788405283758036 1.9088993591508971 13.268092686078813 0.5448244731859648 0.46592785868906206 -0.3797336820894815
Ni 0.12018740191204039 4.488388566107235 5.0444243792342185 -0.7885786797226225 0.10501028086481916 0.9728486148507182
Ni 5.227724278191736 4.37515033426905 12.30378599502322 -0.7386077471211344 0.19649964442506804 1.469038100637799
Ni 8.841467665889692 5.59983221647802 2.8814516866198137 1.253469355396422 1.2571136370172284 1.0848895773100735
Ni 0.7422822264923904 0.7680338416315878 2.888904526500268 0.1240233316322122 0.8476829420839465 0.018187469542304158
Ni 6.751541827804114 4.4247806863269314 3.2644175304991685 -0.12791675314934745 -0.8314479682823229 -0.24884216258252626
P 5.904492598396219 5.515782892992986 0.5837091081315758 0.8399817167849469 0.19200252788566288 0.4696539013903976
P 0.3199675242671827 1.8790474850559715 4.920182757654073 0.32575311410796803 -0.5008465249431181 -0.9390350087353827
P 8.372161583573169 8.306408272989621 8.256403161130487 0.46744969465022723 -0.09299114491675597 -1.8719045120900017
P 3.85242026259449 4.48453968166193 4.146719042440197 1.5668289809360436 -1.0023461100892028 -0.3564433441029732
P 1.8374371769020639 6.682621014232084 9.90316678676929 -0.3773883217857565 -0.6203997366191185 0.41037917488948034
P 8.366084397606897 5.698917971300813 11.982233798476047 -0.1784867527874152 -0.5923423162612702 -0.38038957050592553
P 0.9491183300686744 6.584980893040663 4.9863126696103794 -0.6212155476521947 -0.23503739548895006 0.6170758144522082
P 5.031219390758113 6.8125530917624655 9.737728289838095 0.8279744079114257 -2.1675690343427054 -1.3454544276461666
