# total energy = -381169.7647101915 ev
CRYSTAL
PRIMVEC
9.21542365346100 0.00000000000000 0.00000000000000
0.00000000000000 9.21542365346100 0.00000000000000
0.00000000000000 0.00000000000000 13.48770402613461
PRIMCOORD
 96 1
Ni 8.658655446672455 8.927561510249493 9.771112827968642 0.6567746757037269 -0.5263559820681322 0.6753624660082433
Ni 6.761992233202816 6.579987615120346 -0.13673200606962155 -1.4261487574734408 0.05144417471290495 0.8598455455884095
Ni 8.716353214460524 4.988041601727412 1.6335905130949435 1.2837893465362018 0.9517596553909028 2.2700987148775162
Ni 0.15044363499341432 2.6342288647531102 1.9209596780556875 -0.33652757901565267 -0.9754310308659139 0.2793058783890222
Ni 1.5127025849933822 8.522995194379188 3.4055506130510658 1.2792816884738354 -0.24185056175604155 -0.9654142700598599
Ni 7.084403046784248 4.151188975496067 0.5089245384804966 -0.7796117003373219 -1.1372130693041382 -0.9767227530941437
Ni 6.4476449153592155 8.821961970066859 3.4754035246999324 0.1752926713301497 -0.47085306390482135 0.14689046603837283
Ni 2.4417463099233108 4.356831155370006 5.721052069075785 2.1399636139206115 2.9921629558176726 4.467337765480829
Ni 6.074917888373719 2.075774188510191 12.417953921598091 0.8890576483759914 -0.33255959550684017 0.41492000018262737
Ni 4.380680671906585 0.9942244167627036 0.06089644135446923 -0.8322545233440182 -0.1785975673336666 0.10380186237901479
Ni 3.227508627159759 6.917686816620706 10.415393509760294 0.2726834879764981 1.3337559082623158 0.5194507703078667
Ni 5.009578046915196 5.768468188641341 1.3560403820869527 2.224661922700956 0.3618822557303574 -0.47741117673831324
Ni 2.2196453833204957 5.093816234960354 11.524892740048658 -0.6203488287765251 0.6577799770397897 0.4297485805550276
Ni 1.6573847370893202 8.70329495907709 9.03421253027634 1.60763907297387 2.7352917522830826 0.23791471703674508
Ni 8.735889912705327 5.613796517254193 12.862171441024012 0.3328493588331171 -0.9226871635049786 -1.1539206118668062
Ni 0.8309280303343718 3.8020257869124374 13.314778682186756 -0.8472849353145795 0.04368844202688605 1.0718291445816894
Ni 4.643255739401462 4.91317549958554 10.21257954342 0.04475365006660679 -0.5304594627135445 1.037998826295806
Ni 8.3185694504337 3.674364522391098 6.159968876789248 -0.016474857726571628 -2.6992798529648483 2.9280959501344346
Ni 1.5578397302778346 3.4928022446462466 10.02884979802082 -0.3100961242970014 2.517484347519174 -1.0865394542086706
Ni 5.810555028680969 7.324455618755399 10.014067336863043 -1.3478154716791755 -0.5505834871569292 0.22687568561376412
Ni 0.8984429889904526 6.8346282028091965 9.630571165741284 0.4382987841178839 -3.451140608441147 1.99928261912706
Ni 6.267750629304132 3.0882267133522427 9.880053880785033 0.15836092857181758 -0.5904340434949638 0.33135991877178417
Ni 6.651545380153784 5.41585843159377 5.763902867740174 -1.1548950599649337 -0.44898865973156227 -0.634952694732629
Ni 6.206560215933621 5.031593694135399 8.320861326307982 0.47493186195988535 -1.1908118284662008 0.006678954682072368
P 5.397648754361823 1.3058992617331948 4.990881795311869 0.25587592950085614 -2.628050782315532 1.0325493731454602
Ni 1.8509362810683636 1.2825750243475376 0.19194345254332748 0.8194817970593822 -0.19277771548879058 1.5266210412585903
P 0.03687091022521321 2.2464161891700942 4.545598972906184 -0.2835499983773568 -0.35618829066937363 0.6478915142814842
Ni 8.1772601434121 3.4592028098346677 11.57927479838933 -0.12449281506946301 0.13037189955805933 0.21094564464706897
P 4.321748037342667 6.138651758685534 12.169928165041371 0.4044995761802518 0.6542441959723895 -0.09145748188104895
P 2.2855448782019003 0.5273950122031645 10.950936799599333 -0.224386086422691 0.10331900920532529 0.13673075189655162
P 8.273257212098938 2.042801402510238 13.243023707086133 0.2428013557050851 -0.5451887985039191 0.7878068345536045
Ni 9.200577652796897 7.759856742327169 7.7217371421905545 -2.513419433421181 1.648590061464935 -1.3397074978600605
Ni 2.732916837160461 6.76793618148956 2.505098661693931 -0.23917250070324617 0.2663367198228639 -1.098438776749418
Ni 2.0365902069361828 7.046822548934106 7.381294509054593 0.12941802028522228 -0.9450007394005144 -0.7845214789341134
Ni 5.169382709303455 2.930394151635865 1.0701936051215115 -0.6028882100979166 -0.05737879502978505 0.2745961316181787
Ni 8.011069192399479 7.515224104776929 5.362036671014081 -0.4343986777325293 0.1720746786134843 1.3089028537743779
Ni 4.463545761820387 0.9079588355034632 2.9480343156831292 0.24376012007392858 0.4623979911589327 -1.3031332982804524
Ni 3.4465408176703485 -0.1014387763819131 4.784627711304224 -0.0946029694885661 -0.5399434909445797 1.4231433949882135
Ni 5.121628383688095 8.163418577014133 1.1388116499945276 0.3254749207459169 0.030462944475547538 0.7282965950031135
Ni 3.0196086684792265 5.515302068744551 0.3614565637999344 -1.1841894380536766 0.5831611639826344 -0.19500069128203837
Ni 6.863417186449178 0.6129169087697844 10.836210303783844 -0.6161322195920163 0.002820500167930626 0.18915914489959681
Ni 3.8195074456720546 3.3678042375743162 8.2676791161331 0.706501610615209 0.766045531617113 -0.47874455083775613
Ni 3.0118677125709086 3.3783558977112493 12.972797073292831 1.7161429688142444 -1.7216952660910412 0.24798649945045032
Ni 4.762825861913869 0.8491201982612885 7.360806779083912 -0.3023823005925115 0.38352528792142976 -0.32702452462122383
Ni 7.09149892303354 1.1453942271437076 1.6331988575876775 -0.37261969675251955 0.8599710154226802 -0.26929760222340077
Ni 3.199438446568407 2.2976815912152984 5.796367883894236 0.15885149505499094 -2.493360714998093 0.7686436313615923
Ni 7.466585098486333 0.7688888764410556 6.322064493509422 -0.9230682009934812 -0.01971701881295314 -1.0897584753666008
Ni 8.819261850922647 7.185920154267614 3.310165448497931 2.218611859852134 0.053266829743940515 -1.6244412321328734
Ni 7.913717456428684 6.619724522116378 9.432127153319708 -0.5926958429459469 -0.28567938601553383 -1.345798955469779
Ni 2.2925670310615884 1.7809819997587923 8.779254932012195 0.5374952865144033 -2.5333033168293015 0.27341805214967746
Ni 4.193202092146091 0.6417952820196596 10.020379902097803 1.5037629057134942 -1.2323942798936776 0.24195597698565427
Ni 3.937372714799892 8.095012486886224 8.443208055981314 0.9783795719712765 0.9448202479585922 -0.7024271834355192
Ni 0.44750742568695595 -0.19432840419698535 12.313572660428648 0.01899376749368342 1.1685972400423743 -0.9467318631590083
Ni -0.05330108914061751 1.0144430563613334 7.874566650379997 0.267680635445268 -1.3993702038280156 -1.2448934408019527
Ni 5.153596688504706 8.234220677304137 12.157411776571518 -0.3379992784651727 -0.18317670206391679 -0.5791420155209123
Ni 4.803198633145226 3.1843159362760862 4.421835832610104 -0.614995791994728 1.815389607722409 -0.9766841865467244
P 7.5633009702218015 7.785125434113606 1.536815662647792 -0.5935828735365907 0.0959394289118025 0.6038297480755794
Ni 6.607449577747474 8.954018991693278 8.672809415933868 -0.21735489060752244 1.5055153696282264 -1.1930769703512936
P 0.35277839930128824 5.84833826585252 4.975344590953031 0.34610982338744906 0.6471001287284404 0.9667512437037286
Ni 5.267342663238474 4.1765406060958075 12.307300643058168 -0.36032802386936014 0.32235925793507064 0.8629848625483396
P 7.046214330969881 1.9941163191011397 8.124196812202952 0.5705414183360948 -0.7615139622953466 1.043295555918371
P 0.995892408452472 7.031782977455088 12.126282075311641 0.577141954371748 -1.6727442901136353 -0.8671675331711195
P 1.7103457770953938 4.47168298094782 1.8778121427481465 -0.2601213350407714 0.5935594764978229 -0.3989465075725065
Ni 7.2100184872441035 9.030783471117429 13.169973964955602 -0.1192667907838333 0.6668310314984645 -0.33573619346260886
Ni 6.902223335651471 5.411775998894503 11.08462679430546 -0.3950782828663519 -0.8696085385124442 -0.14305849388679234
Ni 6.865297132884056 6.293424799733385 3.4076415926886816 -1.908137269169791 -1.5806134363146456 -0.7872445342922314
Ni 3.848729554225954 5.830534067263388 8.407736047073818 -0.7153348926361228 -0.7309157777935154 -0.618274976966632
Ni 4.671694536940829 6.989806722499866 3.815347603413704 -0.1973347387318537 0.6532854316035458 0.4296688763570278
Ni 5.651671908662748 8.267285617541093 5.801358035827991 0.2913959767843369 2.0473625053534223 -1.6755041122469596
Ni 3.931548567021253 4.836669052025 3.0155400589155095 -1.9978399731432628 -0.6755411576779526 1.257206196731035
Ni 1.2330974145002072 2.7031878803030405 7.113266675356203 -0.49619051422834554 1.873636150069128 -1.2524671393841527
Ni 2.757098108950253 8.07175275746647 13.230196758837575 0.03852078178301753 -0.7777026562400672 -1.7167448640643015
Ni 1.0663258917944627 2.176093290912508 11.725899561801308 -0.3736370822734404 -1.1387739860333548 -0.11637147151390925
Ni 0.016475334491536157 -0.04186659141318823 1.137508589083294 0.22224461459965594 0.5335802677307133 1.02933703685575
Ni 8.97992354771504 2.1531100242037646 9.65992044714225 -1.6497892239793586 -0.6257597153794513 1.5290317075826116
Ni 8.58808373197496 5.616303112500697 7.220265116856553 0.6117556877908755 0.9955558266402468 -0.6037757549091923
Ni 0.6128993994647537 0.05425949320545684 5.661531490479783 0.891843952871877 0.13320294124895127 0.20612971131566435
Ni 3.4980550361554625 2.663727436018021 10.673372845455791 1.3711469473162645 0.7807198457998361 1.4434201429593787
Ni 8.72916265340405 0.40802117821557543 3.516662819691266 -0.8498830350590588 1.0602362975377677 0.08856524793491843
Ni 0.7142957848976451 6.885773804346297 0.9112468986797582 0.7638755205489876 0.3989349376082807 0.40342691194136326
Ni 2.411547366457171 6.735055549726611 4.990572157075536 -1.7393628585741334 0.15142589201488113 -1.5534528167394537
Ni 5.914661670224142 2.886971075159683 6.54130679568038 0.08735477256658504 0.7577017876381079 0.21888109744406176
Ni 8.391168558345278 4.23628419794536 4.181539051910893 -0.979372789122481 1.8239377544027364 -3.9445959831265163
Ni 4.134905321817499 6.738760150054163 6.309076275346109 1.1388112670291934 0.09626904433707938 -0.35714911192074617
Ni 1.4958291441979896 3.94902101035717 4.032297108168008 -1.0868495292499216 -0.7315199870364176 -4.0387544088784955
Ni 6.984701377769857 2.3821962419714664 3.793052728855379 0.2257515993116499 -0.7084116831537284 -0.4432373590700818
Ni 6.445728107229536 7.06593533768869 7.402361889176027 0.7480663214308729 0.16477531673859364 1.4065885759533259
Ni 8.768024095148546 4.284996927625558 9.102311746795024 -0.7085122132873347 1.1128624083739158 0.1169661676751147
P 5.941073074549426 4.133126745043326 2.659613670878172 1.347960481897472 0.5796397810929372 0.5002181473304999
Ni 1.9223926764410963 1.5653595160173432 3.732101916501078 -0.44994793832103797 -0.5367015869685143 0.7824939069811233
P 1.725025947050096 4.85885057687181 8.330761455989299 -0.47926622766918103 0.08156387691642082 -0.5998316826597799
Ni 3.002440334125422 2.746924281185035 2.1850211933934345 0.1100784394163459 0.1295470896639188 -1.4339487131338335
P 2.547815836714664 0.141396853546753 6.93263976311694 0.13574524805483076 0.3754808203503985 0.3721777241190945
P 3.052194406683764 8.978504372465183 1.552758345649446 -0.36314363894128426 0.8096534981150507 2.2758757265706095
P 4.56571716438648 4.711717122071572 6.577872675381109 0.6511719848049689 -1.3232321259128565 -0.36916182011090615
Ni 7.992020911610798 7.392161336682078 11.625996075007878 0.43719809485453737 1.432189564350882 -1.2016292307966787
