# total energy = -381173.3877152014 ev
CRYSTAL
PRIMVEC
9.20166556365292 0.00000000000000 0.00000000000000

0.00000000000000 9.20166556365292 0.00000000000000

0.00000000000000 0.00000000000000 13.46756767101098

PRIMCOORD
 96 1
Ni 4.156051899891816 7.449806512667436 13.195294321300866 0.4897624992148146 0.09273943391726609 -0.126202341561402
Ni 8.08453740728253 4.740698128525612 12.418201697345983 -0.9970339538476699 1.1423858717543294 -0.7054623707174172
Ni 2.274946195092477 3.5217166768984733 1.605576550409405 -0.5588305576570698 -0.05269218818739312 -0.7331125283345181
Ni 5.952060601017621 8.165622484744812 4.6602764911546855 0.7092398354819786 -0.566122977553425 1.0546716589657965
Ni 6.782888191706103 8.344677696086 9.45607787409191 -0.40867067683880587 0.27699137132323265 0.21296318929773003
Ni 0.7912374243492325 2.181613700687129 8.222367316303416 0.17374795255084916 -0.4098965788261069 1.965445873083273
Ni 2.5121743364968223 3.6257231034255017 8.31571177287407 1.3952271281939197 0.6454073144070498 0.08569332570376209
Ni 3.0448863643592703 4.687310064585966 13.240733066309545 0.30715221117732905 0.6371003372032512 -1.2092201557700593
Ni 3.8179274949407245 2.600363099819395 2.9726422472267386 0.4628283938281319 -0.25291504710031926 1.1230432055616593
Ni 6.08004656815594 5.646546899031387 0.047809094072943564 -1.1283453345008632 0.6283354465264276 -0.15536225095480988
Ni 2.5648814771804305 2.1591064265753785 10.360384445439415 -0.33732487810596745 -0.1957807639811725 -0.5017744360740262
Ni 4.681798266878305 1.0936731691848605 4.642580767996752 -1.1074762043613378 -0.30630528979600147 -0.9930875676054122
Ni 8.587178391891833 2.3918809618186097 13.266389150397192 -1.5416694509512803 -0.04127031950369667 -0.8654443798324256
Ni 0.4266950373969826 8.033422154751554 1.7362926517378143 0.39562052852306706 1.388589568272744 0.09405558162552834
Ni 0.7128364727489283 5.1474025473584994 8.105859506862151 -1.6915423966567449 -0.3860609098590899 -1.415158319900208
Ni 6.743689096155793 4.613485101299551 10.230502935182933 0.2890719566368506 -0.29009448436409396 1.4067410423707902
Ni 1.4248779215881036 3.1047800058937685 12.296266745520782 1.5732084020998258 -0.6003009089867145 0.262603992253309
Ni 0.40297590392279686 4.312406602143188 0.49040921049779207 0.4928617069654285 1.7668114417033893 1.7600093311798917
Ni 4.774238199718305 3.577994063843471 0.9708981052883568 0.031720985252364726 -0.03973485669577673 -0.33637716948071744
Ni 5.96432642129193 6.64452274574601 2.6308086508633637 0.2872891537048149 -0.12891562672750703 -0.07654919731064881
Ni 7.449907730989279 4.775185971277386 6.3089766475022415 0.3896599400642579 0.5027825656235664 2.2939127865779785
Ni 3.3548444708409964 0.23135379807117248 11.641621606166256 0.5377927631501641 1.354446860952764 -0.9243658367589823
Ni 8.326320373169835 1.5867444215471374 6.728867973338216 -0.9625647164262068 -0.1887667945571846 -0.6590632146275875
Ni 8.510979398874905 3.171400064998049 4.862546584693966 0.4629299524030028 -1.9061886300838529 -0.7978899298212194
P 6.084619795970143 2.41081798966897 8.298916892780545 0.06352398869557446 0.7695890259939973 -0.6611200971566162
Ni 3.737256492431439 8.406485284069904 6.067031732299989 -0.28713591595640225 2.2954469638343173 -1.9033650445921286
P 3.0189192639735962 6.760960622528548 11.267343856985784 0.6209370971798274 1.0941488911248125 1.3802707639944034
Ni 1.6196035694837927 1.366520958212503 6.078788700465394 0.7335604145052141 -0.4777341072953708 -1.1643631473563687
P 3.4000522540425617 5.686242884525291 8.170948408806908 -0.23689038953728883 -1.2774266375429677 -0.9261630378687211
P 2.7851233438463083 3.366723821159177 5.280471514586489 0.5653902131524585 -0.16604878413437857 0.40585788998035904
P 1.1519933258979727 1.1481010213398082 13.42071396521232 0.6692324418511055 0.356187005117793 0.3048194492790944
Ni 4.999310940835807 1.40652980033756 9.933058173780754 -1.4981090498618264 -0.24419849316292783 -1.3484482201671681
Ni 0.19889124192283103 7.388173756330355 8.618798995635746 0.2694454406551747 2.759642156102989 -1.4298287774281893
Ni 1.0579338999084757 5.903254966557799 11.957220333674352 2.8127485490096658 -2.2596759768822956 -0.21778683593861847
Ni 6.35490032028921 2.241065662271764 3.120825870405653 0.14176754298951066 0.9244805079599756 -0.7753279853603035
Ni 3.927519332500391 5.747544380899976 1.7432555521140862 -0.0655729008048032 0.27614444994190507 -0.15243145046126005
Ni 0.9081859935737981 3.582236031695276 6.4381569908383165 0.5327564862778372 0.9702628564014129 -0.7887100630941642
Ni 8.727945472579302 5.992446711433185 10.201669515955965 -0.9253325715476257 -0.8913166196134973 1.1847550807491596
Ni 2.781838349219205 0.6485343132148641 8.52802732477304 0.5763189442498203 0.8539093826096326 0.2151439989991327
Ni 6.215467481116948 1.7714402539146954 0.42150897865234543 0.34772010529736247 -0.120371850922554 0.28976126939439123
Ni 1.6348599310852978 6.248317427387983 0.9542946198397707 0.574120908157237 0.20620812996208357 0.2082326165912801
Ni 5.025158419568393 6.647301648763896 6.484028214131237 1.224051307245621 -0.2882702866711616 0.46302791143344774
Ni 8.30271810084905 0.13704040611050455 0.38222430761175075 -1.1286343264961918 -0.33698934914341966 -0.2688324896615241
Ni 7.267622735014721 4.1345200023360125 1.31403189700414 0.1893481209819513 -0.8525500403682608 1.0251080863760667
Ni 8.234680985238962 7.113688070821971 3.6055236070517838 0.1728804623442313 -0.1250700277291717 0.09924303936373877
Ni 2.6871624116330253 5.78280516356401 5.877098311860309 -0.08613735521971617 -0.46626827274761634 1.1188543642912925
Ni 7.1756888937839385 4.7360972957145435 4.179767352699752 -0.9210375437166977 1.783325894418645 -3.7087286355371036
Ni 7.871509646464409 3.9919401935209806 8.411519515331774 0.39092569415055906 -2.213097100681492 -0.14195163397585872
Ni -0.20397792267874904 3.511281988082968 10.676064147604986 0.8787776066062221 0.561590122680078 -1.2031988892766439
Ni 1.0206947591356823 7.610633224411168 5.442217472725872 0.04639864186919752 1.2675070644364106 3.0908174696677926
Ni 7.6535958012009315 8.395047613701585 7.227114242446383 0.7464987198334369 -0.04232652868235291 -1.356750055164644
Ni 7.10610589834933 -0.19641875437016248 2.888725817252525 0.8590420758505075 1.106872252228752 -1.5879428800965232
Ni 7.459836328195568 6.37727877108225 8.336801990480014 -1.1546693171073728 -1.7505345589202368 -1.5465810293202849
Ni 1.901947477433482 1.0370921272743325 2.0643219093348573 0.00643624254364698 -0.16422741465492363 0.36478734519229433
Ni 1.7349096413948066 6.1685205831128 9.663962823993819 2.417578734870772 0.32170285529799436 0.10205119823649522
Ni 1.30879890976483 2.715061861799348 3.6887802776008902 1.4240990740332635 -0.09638525819996949 1.5688377838359564
P 4.935874658036785 8.439270818681582 8.16771586367385 -0.542065422383589 0.05064173341626762 -0.6042863759970238
Ni 6.201692587680608 2.905646760165075 5.539412826359394 -0.5232061235852409 -0.9294689623135026 0.893223606828223
P 5.395470250865724 4.386581228723244 2.9057350961550474 0.40580878190997854 0.11472982214542822 -2.2023162080159038
Ni 1.5466251594346145 6.9967349007645945 3.410418850532462 0.9674485268810693 -0.6294474486436837 -0.6485584584415218
P 0.9422137530444654 -0.14719444412453409 7.407889245092348 -1.3390642078491066 0.6744137289417288 0.1504514439167538
P 2.8029745751532564 9.105867081346142 3.963801500048482 -0.17421306511272577 -0.1276763550037672 0.0021080474819383053
P 7.635854989881449 6.7601508759538 5.659112693604979 -0.14028170247260358 0.8578665674851678 0.11280380876730894
Ni 1.7996617623777935 8.379469193803306 12.884906497034585 -0.5317077332983488 -0.9730777001423887 1.0774562609604799
Ni 4.349526121262894 2.7363637177145983 11.908238947401147 0.6531530197907396 0.6549939296542204 0.4252548064497322
Ni 4.628097346307507 3.808155326050014 9.61102196100341 0.03967957797780908 -0.7714736446112197 -0.3082382451526563
Ni 2.752586254206428 4.549294281919515 10.819453702994767 0.34025336460667205 -1.4132657308631855 0.3243796307992091
Ni 6.811155708497311 6.868721328629408 11.350614330033322 0.6343682829840688 0.6339245105784308 0.6369365579318772
Ni 8.874242754305678 7.13864298798921 12.787913580044751 -2.199043450801903 2.4654971558186056 -0.08820606482328679
Ni 0.2863521534946926 5.552938354657375 4.907958644872343 0.0639551626957221 -1.8196252430703115 -0.2972778894864106
Ni 2.602847549537372 7.738895241518153 7.798072073300687 -0.4061329980186167 -2.560514844247087 1.2047279243266606
Ni 3.5262807030470538 1.1837206689631052 0.2214390033633185 -0.4246187155276301 0.5645242656077375 0.46234065555843595
Ni 2.75113239103813 4.8317762148535355 3.6051868260900135 -1.2322407850349488 0.09798911235197963 -0.2169982785990521
Ni 4.038795074868908 2.0069292805164567 6.966005018252901 -0.47353215339888116 1.3850818122298019 -0.40458313703299353
Ni 0.3655959776659848 0.12113624724920084 4.114745622914038 -0.22908014946425065 1.255581002422786 -1.016564824791746
Ni 4.760104441322702 4.656328056436227 4.804218146481794 -0.47850569535407267 0.005337610162829517 2.185221971537778
Ni 5.305165104450059 6.132081987249132 9.084291935961913 -0.6206419345369119 0.9371668451783924 -0.2180308336286245
Ni 8.838199830063763 2.2612817216436016 2.1726015893768067 -1.1337292245205957 -1.9585247204834075 -0.46896021775748264
Ni 5.794850143863389 0.5874674593135438 6.570583681805881 1.4171049021036175 -0.17822938536097044 1.2981111624755126
Ni 4.921998546278601 5.638992331555611 11.3747208536302 -1.580444514836949 -0.461634887740663 0.7676257316200393
Ni 4.888421668423419 0.5649104962074342 2.0753390635842437 -0.4187707413872853 -0.540087986942244 0.9555394341483092
Ni 1.5583388797715965 8.424446935364317 10.301827805919814 0.4571138599418579 0.21086156957369492 0.3561227275387609
Ni 4.63921295837905 8.140962020877483 10.344802344874887 -0.7057228234676556 -1.0039121690247421 -0.21985528843187296
Ni 8.45067168238741 0.7000940061953912 9.06923525050441 0.5093383644642131 -0.30614562428968567 -0.7261967750512912
Ni 7.16764663803019 2.1074206707758285 10.447196639584917 -0.13555627197247622 0.3397334875474601 0.1215625287965455
Ni 3.082788025056858 8.138256731184574 1.934575663563022 0.052401910640483954 -0.44064645841445405 -0.4487690875215884
Ni 5.226960148327507 4.45408464772725 7.310545744642311 -0.09464924934546924 -1.4133320653247465 0.3400584749870466
Ni 6.002540938620671 0.35676881983466757 11.694562469156665 0.5373153092931132 -0.6251513923714911 1.905117765617177
P 8.544519470067598 8.574526101661391 10.862306779963628 -0.7874257970651019 -1.95013135421339 0.30613533987704056
Ni 3.9998352226247755 6.93861718069517 4.1224630598713246 -0.5231174205261766 0.3146348927076194 -0.5050124833953497
P 5.997728467500292 8.821627630278291 0.49121987723910243 0.3448844356207802 -1.009998741538454 -0.3381933967538498
Ni 0.3680739862180266 1.1399115389361052 11.179697071768354 0.6191923465745788 1.1224284547957961 0.8930320596427073
P 7.420333577679728 1.1538612640192667 4.6753874664393615 0.12586269883379614 -0.7915968977236562 0.29564986696468437
P 9.269113831148497 4.206495430832378 2.7123814166036193 -0.12244955938718913 1.579155106601564 0.5067263807626627
P 6.615509894039408 3.203615096341155 12.38016937299656 -0.8551843926673143 0.38563847760969067 -0.7333626966721112
Ni 8.01425508526064 6.495041687714375 1.2270660350427494 -0.721189551644687 -0.5913305871673041 0.8247168202060765
