# total energy = -340853.68686430715 ev
CRYSTAL
PRIMVEC
9.47271084591424 0.00000000000000 0.00000000000000
0.00000000000000 9.47271084591424 0.00000000000000
0.00000000000000 0.00000000000000 13.86426983927774
PRIMCOORD
 96 1
Ni 2.6230788520539634 8.857031884354484 5.751730484163462 -0.21789919314676667 1.1979695225569045 1.0876547987600365
Ni 7.419879577858969 0.8133563076021172 1.3460333548334462 0.026884740205985955 1.692824348692962 0.015318118414309101
Ni 0.04084538134250416 2.562368249065928 6.844443661720213 -1.1116084813621565 -0.38347180897567507 -0.2062981185727286
Ni 1.509779579566084 6.665974949990539 6.864588328331908 0.26843808243658285 0.17868344217925355 -0.6521268925190704
Ni 1.5816585084899741 8.579860368762363 7.9936530332668125 0.1992376121815214 2.2238214290775313 0.5360498123171283
Ni 4.927533606416313 1.5518384151514915 1.7570466946943386 -2.8184201454731457 -2.030386539620716 1.824651235529993
Ni 9.108456572216621 2.574853281791506 9.711851194037884 -1.0297363291766974 0.8661406345685018 -0.08097663695438312
Ni 7.895627528220661 4.240714715848752 5.95323398654472 -0.5984378876360468 3.0866885351010844 -0.9118119113533717
Ni 7.034008706784289 3.0335787709939703 7.5214497712555834 -0.5053487836888457 -2.309811460086106 2.6077838045363797
Ni 6.384417569336245 2.9399126074199824 0.9956084199923343 4.512730591793331 0.22724875268246672 -2.5106459844411018
Ni 7.6979415282585295 7.6441081132513515 4.257162183467433 -0.5497198536050532 0.7359687668363906 -0.9683067611163066
Ni 7.04500652392723 2.2135072587642646 5.149217771709993 1.1138036892412624 1.5696240271826774 0.0740228313443693
Ni 2.900657694206935 7.727818457861316 0.0744024590590145 -0.5845331046294965 -0.0824064274223742 -0.5803170096656199
Ni 5.213060052861212 5.976787881743619 4.217399532959932 0.9223315799377728 0.4723823560651542 -1.147271996202037
Ni 7.612298750662207 5.356401111437425 3.486711571788862 0.18766764795573485 -0.7535008621828829 -0.24722673846629034
Ni 2.4570506513094954 6.992594015527668 4.623720091931407 -0.1333402381577639 -0.8928690517022817 -1.9213203435189685
Ni 6.168780782564575 3.1989059911453483 12.175088472716935 3.4947807137286007 -0.8417722330264664 0.008981891783636144
Ni 8.367700066823991 8.976672220715677 12.590212969029194 -0.9565349652923592 -0.9451943434685591 -0.7386272875051603
Ni 0.2377110445565069 1.5735877589587202 1.5844917962655587 -0.4070537100606732 -0.026472592369231825 0.2133182586443036
Ni 8.144826129064201 4.5271505425225245 0.4086631603318969 0.8677563157950539 1.0357190291226939 0.10719623277254442
Ni 4.778414194302465 3.3804504920449734 4.229253683151729 -0.8784598182554871 -1.3404775432568656 -1.4259901204083894
Ni 0.31484259157321415 0.9136344232568746 11.70231684806266 1.5974842439280552 1.014443150463053 -0.8035072760079969
Ni 3.492474768989349 4.768382593652702 9.840858146756474 -2.090035104521284 -0.4125661552384701 -2.2786167796508567
Ni 8.701092120524084 2.5085537794801853 13.477859010432788 -0.5879418732007293 -2.055527557662718 0.10223168967841748
P 1.277868675781862 6.177183076970938 13.686821325232952 -0.7725969595823855 0.45440263165828193 0.6525732360278697
P 9.139602845055544 8.502544103886665 6.617970093887798 1.2815437450351348 1.6725913094755387 0.3401109254915368
P 0.26265458641765443 4.815992437718527 9.875810554761664 -0.08151271196351122 0.7387046777103149 0.42841186402147513
P 6.937680711498701 1.0659262461899912 12.943876623664595 0.32053300335960927 1.622051134634142 0.22532376774561194
P 2.197109996512386 3.2118172958532107 12.987937043024598 0.2642245585758675 1.3127991035049906 -0.32113566994061465
P 4.022785533083463 8.997029076047443 7.642900342634878 -0.746075002032457 -0.4708517783532407 0.7883943316259584
P 3.820618940951984 6.719097911693909 10.670385318824325 0.602419240881298 1.7591703802183636 -0.3626559006715883
P 0.7896252727128013 0.582516767400037 9.545355988655047 -0.4763099732543345 -1.1040813197471762 0.6335545288335217
Ni 1.694554274820354 6.641961628321844 9.395371718052695 0.7640560119909099 -1.6418064628841982 0.9670698033854119
Ni 4.261791497195043 9.058317514389243 10.01055702290395 0.05973212575331003 -0.8093897029307029 -1.276671247434182
Ni 0.38931893777582466 3.772516515928854 11.952386938292202 1.008034932943864 0.14458058695827358 -0.9887652860809746
Ni 2.4697630290922925 5.741580474629731 12.005625467066325 -0.9184132187199732 0.06039701303081856 0.2523180369462687
Ni 9.233439517422447 7.861611024034356 9.486086184967132 -0.7525744937138716 1.076888561382468 -0.4565317621861428
Ni 2.981412553073061 4.966381193068511 3.270872069007839 0.4565353617305685 0.6428536947472606 -0.04683315830345483
Ni 0.1838700513807549 6.013380963245068 2.1260163553069713 -0.7582944269167844 -1.8998449472540118 -1.1306585560150721
Ni 3.7071832301107106 0.8412401788699563 4.056698784722949 -0.7356520069269201 0.23862434150925999 -1.194051675559737
Ni 2.0872833884544546 2.4944678586433606 2.5793783957012244 0.709986483840016 0.7088773099362372 1.2250242126818516
Ni 8.808853677645615 7.094075165443539 13.911131325937507 -0.15684809147171697 -0.1501575668254188 1.6449126126133478
Ni 5.9002199610146 5.090331612806135 10.353281591202858 0.31254150051370044 2.0498850146649596 -0.22358518778795042
Ni 4.327986799688473 4.394949391750014 11.787651762560664 -1.073395203517229 -0.7810705442710354 2.529645922582372
Ni 9.23317428152236 3.508796249555488 4.387597620962214 1.2312966759541246 -0.8740277506260624 -1.3994560786736028
Ni 1.9655116921818394 4.204159525190174 5.251411269471816 2.478088876440687 -0.6924870415036719 0.9550141577724586
Ni 8.063559743819333 6.7420692351836875 6.411947161223252 1.5414023133328227 -1.193173386719842 -0.3339965850636828
Ni 6.996184172889575 6.474853538555588 12.741291337719407 -1.0646351979364117 2.2059679458358783 0.007769102422457587
Ni 7.303630471934616 1.142465748786859 10.630747708098292 -0.23820679435586717 -0.04067459490122673 0.4908287356957998
Ni 3.1513908741866987 9.047461787907062 1.977072188341396 -0.3501922209869388 0.5109697294200489 0.25486445751720627
Ni 5.188336277888709 4.141052326390628 2.1853278389220416 -1.7858797711887502 2.7371470603242667 1.1197941024967424
Ni 4.427668134568032 1.0611425272776869 6.212093805048971 0.5126062365822075 1.0358121030571321 0.9537682011804992
Ni 6.930651960146365 7.018122970911152 8.460226663298672 0.5550757186003279 -0.03688504595180745 0.8435653203711472
Ni 9.472445481534027 0.9267086585890772 4.852522052058167 0.39568686298462824 -0.44896577691342676 0.35411212486663535
Ni 7.972280703346139 5.076312000944333 11.652974445206617 1.4205931177625342 -2.642037583512927 -2.3872636288269984
Ni 4.196998155887794 2.5962331898807554 8.670659142802185 1.0050269993554755 0.19378301682485335 -0.49537393186432105
P 3.2271062509511497 4.570819738929896 7.6561820303317925 1.0142690867790338 -0.5092365487790262 -1.0354115251846037
P 2.0192409073711257 2.1068634815073914 4.846684967714085 -0.5828875986062735 -0.3041396496032504 0.7973641392247365
P 6.525362032100947 0.9530494252810463 6.790969262449226 0.8874928749920328 0.12433572066630844 -0.5606583548944281
P 6.554376945028448 2.0371253852056412 3.0025158580093607 0.8541610936091225 1.2727366882664661 0.7168420733092686
P 3.3709114723525166 2.686962813132339 10.712297327393612 1.292849656966257 -0.7056387483942815 1.2574095709910926
P 1.64118502263833 0.09349944386536169 3.5702570912323437 -0.10804623947766553 0.42666248543053614 -0.02989395934595497
P 5.259646844169553 4.572913207998449 13.738534747581571 0.5552909199349275 -0.349722737549688 1.478140062939067
P 6.8036702729791605 3.3041572799267587 10.151681467172281 1.7143503956901962 -1.5332503736496497 -1.7966892030994284
Ni 8.445499439946277 0.661369505954102 8.245802383498832 0.44679370896277243 -0.2271687913741507 -0.8701736669872949
Ni 8.321710056290847 4.862834992216238 8.133210691182482 -0.46598288029671364 0.6348596207981905 1.7787922682143495
Ni 4.569465141297303 2.5128259720137476 13.541439844768206 -2.8113766083628033 -0.5882298367547933 -0.365604441776951
Ni 6.052020150261481 0.4396152426011129 4.257343112242136 0.15055351671225684 -1.7477446548799254 0.6465465702178156
Ni 0.5644021026950877 7.695829113768541 3.595143796829187 -1.1821017022867126 1.1368436017798615 -0.050703182781822356
Ni 3.8474267122823225 6.04401570970525 5.984192699711437 0.24682178971838784 -1.474112686947229 2.5980796898747385
Ni 4.915588518201628 5.900759905525494 8.389283638193664 -0.12998854807671162 0.349030853688986 -1.5770249476324387
Ni 3.5521812646413364 0.7532907962139392 12.033978237514678 -0.21202216554069936 2.288013647484724 -0.08576943035733617
Ni 5.796219070047891 7.996578206336356 6.396724515100335 -0.8508795946443732 1.5683886121136794 -0.11798740985077745
Ni 2.429437699568175 8.51246203200782 11.37990366608407 -1.7124380091588314 -2.2923796377629038 -0.4856482199361249
Ni 0.7722940011841838 9.028904747611609 0.2280574050643698 0.08225164701206479 0.4185928210485243 0.14079438044296397
Ni 6.460976017354547 5.965089084007588 1.1118461586638249 0.8028490735987077 0.3156569062142306 1.021945372377369
Ni 1.902224511878662 2.353135014739243 9.29859945263446 -0.6863493040370503 0.9741467648368515 1.1146603808146027
Ni 5.217464863344818 3.6536908326893602 6.270101843669321 -0.5384573933173565 1.483427793700568 2.408040199252717
Ni 2.375035921917951 1.6198335326812339 0.36960243768855733 0.06185945650895797 -1.594376551537009 0.47036018342880287
Ni 1.0932171257669188 4.5109427344849955 7.726654261714144 0.649560674453791 -0.45228095732958884 0.7724969436694115
Ni 4.647974967723397 7.019430204990158 2.016142383695453 -1.1330527672788615 -0.18768487434691547 -0.03627980826764075
Ni 6.4414148697230456 8.523412485597172 0.24716480985250613 -0.6555132924928001 -1.4213976159417003 0.9762650967314347
Ni 6.257132755426083 9.32196199907687 8.605288913412243 -1.5493033133474545 0.03984515702139589 -0.09500560424362348
Ni 5.651940213110652 9.061708744826083 12.007206462485064 0.34051715979102004 -0.6722573447203584 -1.107896579728208
Ni 4.81904265056954 6.509893095499377 13.30028546986591 -1.1416402518375566 1.3744207329715297 -0.7630247425129181
Ni 3.0554891508833957 4.626017224280385 0.980299572201889 -0.20777084646351315 -0.12061636283319227 -1.9630192659196515
Ni 2.302389703425949 2.1421493289298335 7.201849984360074 1.0349070747443596 0.11564796308432342 -3.1315290884545424
Ni 0.2236848017972022 6.94326013811127 11.655192006785567 0.17997207908369003 -0.4408847996775052 0.11086288299085423
P 9.934884273337724 5.501219912885558 5.484427638596762 -3.240045582700407 0.7523158407358462 -0.552270645051365
P 9.13367292814643 3.6853391591963076 2.194090096335668 0.023118588295334377 0.2017153842980526 -0.33495457810157797
P 7.245827991136834 8.32074383979767 10.254332496861757 -0.1817893347980869 -0.006049034407557324 1.1497122302124136
P 2.1489033716713637 6.844194529428344 2.1137330913196744 1.6323088078064083 -0.06104955901315293 0.6071590695591286
P 4.807798542947946 8.374634091069153 3.674904968341054 -0.4617888968200241 -1.5716847663664482 -0.11661315521107014
P 8.298397715215243 8.514129229094086 1.8705951307931497 0.9047997417015965 -2.188281841410025 0.4372490026971308
P 6.119977376948354 5.940232691085042 6.278406569155296 -0.739636959716597 -2.3181302643644464 0.12041478834534745
P 4.344355643808199 9.726768818875698 0.07386156727704903 -0.014499993388387929 -1.3174330027325762 0.3187815678861413
