# total energy = -340873.2211443891 ev
CRYSTAL
PRIMVEC
9.18269874274545 0.00000000000000 0.00000000000000

0.00000000000000 9.18269874274545 0.00000000000000

0.00000000000000 0.00000000000000 13.43980781141900

PRIMCOORD
 96 1
Ni 2.1327828182121857 3.9437579551337287 5.107825731935316 0.06621207705069887 -0.1741441595480033 -1.087523929609127
Ni 0.7796469451143568 7.2581061828112 2.3887110631243598 0.5902316976761706 -0.11508849103642761 0.03885039720829438
Ni 0.2928188192827552 7.11474588832384 12.695793741200806 0.3088409117336617 2.356809683212515 -0.8711329455767707
Ni 8.615281525134304 3.7976061201951676 0.7982290545125519 -1.44357878002443 2.5759823437550664 1.2642682457841388
Ni 1.2022356645825698 0.2921815399823822 12.916636730336826 0.1573075476066388 1.1123679852360002 0.6136871004856334
Ni 8.149984991572364 0.5448242152450826 8.499173644301798 -2.0085259921021987 -0.7948943375280053 0.973170259856195
Ni 1.518735745936389 8.361122786291032 4.834177633047209 0.616693491412125 -0.5552153295019857 0.7384725070948507
Ni 3.5808668791763907 3.164532495896708 7.532327282107711 -0.3958010199649893 0.7132348155739845 -0.22998620621828778
Ni 7.533412677112093 2.829869036212374 7.012595709747342 0.029277665918194737 -0.9333515851973604 0.5884815477542833
Ni 3.018004170305189 1.285366637295487 11.441281890320061 2.4103698758271586 0.060521711534140925 1.0456956807194315
Ni 5.15226540303265 2.008449075747489 6.141038213547062 0.45439388990753354 0.14952019035173603 0.2528854794139645
Ni 8.517504147751431 5.121365621393528 8.575861117229822 -2.429134300918855 -1.0661117824819382 -0.9334888821061731
Ni 8.589882180107912 3.8564396717440093 5.00296849373706 -0.2781054303230178 0.7012874134041213 0.39910643018913844
Ni 4.4352159977268295 2.71348751095406 13.252617907306515 2.2561252834165595 0.514084878010263 -2.6702883508285047
Ni 4.631780849366365 1.0753766799333977 3.680881161999765 0.39995952221805314 -0.19981251084838492 -0.7547362772518809
Ni 4.0230505597262445 7.6925763963248395 12.704704632167404 1.0244851080800872 -1.3682254027940952 0.8759236820971947
Ni 7.051008775587691 1.7609202454758217 4.627782702285926 -0.8148041890780547 1.017094729153287 0.5449054629355454
Ni 4.347328387008247 3.45196015268308 3.7026808890759244 -0.5893297546871915 -0.22752437494135652 1.08871717858628
Ni 7.3641204410648875 1.7339506589456286 0.7667131137804184 -0.941274953809495 -0.2427260223824594 -0.4690617763323534
Ni 7.39074108503868 4.9566188212783775 2.8042695083509943 -0.24750467471802534 -0.19111215486090957 0.779660037076754
Ni 3.3764416373189987 4.6800359318369695 9.426762132361095 -0.10738520885489893 -0.2935973553110298 0.9499436852280866
Ni 0.7722649735067223 3.4973226850151042 6.96387690098468 0.12051454714800536 0.12434780485116649 1.41380669096832
Ni 5.6134389048097555 3.3300506427154795 9.069881132802807 -0.03425943540350229 1.1630369723457776 0.3042517497010825
Ni 2.342993160346739 8.186339296329951 11.398193912493836 -0.9192282584221008 0.962323032729046 -2.766243720579907
P 9.309236442825743 4.977390086083041 12.45618866176908 -1.2981893240116158 -1.4231559933937037 -0.7478194955273896
P 0.4225997387068362 0.10046882641658027 3.235983075669072 -0.8882397804603864 0.484140782152663 -0.8086800784581879
P 8.060683245230475 2.9817233271384227 3.1967123457558873 0.5909490354581693 -1.1086807661924 -2.1730295432366447
P 7.246086030013099 8.820955614035654 12.549985339199335 1.310088389442047 0.057724094184345744 -0.7056575174473589
P 0.5400896157166633 5.663466248158919 4.972783126068674 0.987744558125944 1.0499570270989467 -0.8432246492022768
P 1.409498360385426 5.059988462262506 8.529157910865312 1.7501396374746632 1.0248640886860607 -1.0151455758467163
P 7.870555465486638 7.385405937005299 8.659053614025051 -0.593871608421603 0.4744680349495894 1.568563704238963
P 8.729293914088638 2.687656579081594 8.934206757255104 0.15213011717075736 -0.11092356102546057 0.8987931304962005
Ni 2.71564544518443 6.305483821139846 3.8220660751289355 -1.1145536800334095 -1.0991707698194362 0.22507539918023173
Ni 6.5356481678811775 8.322298335542087 10.445848868327833 0.7238113055382502 -0.8288763509004048 -1.22908012791878
Ni 7.365791692256067 7.203946624978351 2.4319735122287858 -1.166782812541455 1.2697544657096906 1.4503567221782119
Ni 5.258031728417316 0.4374922397060419 11.969439507147609 0.4885152570712748 1.0735463843831126 -0.6554240752131035
Ni 8.284704366439394 9.14242353546875 5.38049311858596 0.3748881810717221 -1.3254782416345559 -0.07630160007621697
Ni 7.033497368875714 0.4355758104554967 2.697516961109555 1.21165679023601 0.1211059008751011 0.07975973382814651
Ni 1.2734107633893545 8.910092071798196 9.131704571098068 0.3151344580518573 -1.0253538838382859 -0.1161084476605097
Ni 2.088733411816089 1.6849517778679606 3.6499428130254628 2.4295143099660934 1.6503111579210998 0.16914902032625706
Ni 6.299285499414316 6.681662262336949 12.474345612210396 -1.2276773340339826 0.661625318927809 0.8848248412415665
Ni 8.45884506748079 6.045007385485961 0.846682483278373 -0.9143012534341286 -0.10169150090423132 0.5853969952916886
Ni 3.085377631786982 7.059218108361948 8.969929292331631 -0.46415893971409733 0.27028850538176036 0.4598004056350855
Ni 5.867110960613837 8.54083738553598 0.7452990600560703 0.5811222791757347 -0.7239390893653662 0.534295548630183
Ni 7.869719839891048 6.050030321758353 11.07026228933837 0.22950489570649504 1.1199527395617936 -0.15041133470743773
Ni 8.644831450042087 8.614546909226092 0.9133791798547272 -0.9456113764013199 1.021725028836447 0.17986177875807088
Ni 0.9559005851617454 4.1775494679218514 10.434317235108692 -0.498097244332755 -0.765371902588856 0.19311427289260288
Ni 3.937348431334589 0.08903177499562161 5.6184985718775575 -1.3314557993742295 0.040362977198078874 0.9351531571824734
Ni 5.151145113772627 8.076642775836358 8.029411564287821 0.3579502676658029 -0.5730366739541228 -0.7443600762238793
Ni 4.176438361360683 5.169418684489374 -0.0012341547257943338 0.34730384369555023 0.29201535553589064 -0.0775321300492084
Ni 6.962891597397792 6.681322502479402 6.730521566392056 -0.8184777812749001 -0.48406544883003727 0.2711549671471137
Ni 1.7636842378304651 5.096104016849925 0.4801146547004391 0.277907969600231 0.11583488228414889 1.3997928931877313
Ni 4.762386375147413 7.045269588804794 5.901110821385608 -1.3001168800516318 -0.6684400278567971 -0.6569240567973977
Ni -0.1884115333282792 2.427290335813941 12.655796659808377 1.2447468879217596 -1.0720170922227796 -2.8717697647388802
Ni 0.7494698418749377 4.829071134215258 2.8193355623585146 0.32168562890681374 -0.5465154877351427 0.4964219135128612
Ni 5.081044390731602 5.825513334811393 3.711604635820916 0.9206189681220404 0.31599912004499775 -0.8190809620765377
P 6.6248213564391305 0.43820298059723595 6.698669538881917 -0.8070602834665777 0.1367531204940548 0.33559118324431236
P 4.091039262031164 7.970876450451692 3.8411109925493037 0.013922009397730861 0.4926429060864031 -0.5283694129537352
P 2.1680535645051626 2.34881499141931 13.27729365566332 -0.4590982373617383 -0.20193315673581352 -0.3966520551113749
P 4.381910430887276 8.805143006611415 9.93465261455099 -0.6168675550961441 0.37495065887854134 0.9485635170511084
P 3.009014308128458 4.39011058096268 2.3672611968744866 -1.0433204956190354 1.2503392944078724 -0.47089831532045995
P 2.1877963670383305 7.739463256666401 0.5118647542533148 -1.1156811087696334 0.13203386064151454 -0.31559751373120487
P 2.590870933174806 1.9425999422752331 6.01860161666532 -0.5841821490479809 -0.725474552173286 -0.630086110668947
P 4.141195163164264 6.160176794495728 11.176664975753525 0.19449984038621987 -1.3420253473599597 -0.7607876256522833
Ni 3.448029957574152 2.327410120393815 1.710820358805723 -1.889103906687424 0.8206835306769672 2.257314418628654
Ni 7.3872424767758265 1.4691675375298576 10.729226954920192 -0.15505654678893294 0.43539446598689524 0.029057836597904795
Ni 2.516435976275335 -0.0258492972701715 2.359600071221732 0.44607508562919307 -1.864832178624253 -0.46867122576215414
Ni 3.069794591834058 0.9116317122630704 8.051735623468467 0.2777233643932508 -0.7517080319485182 -0.4522632167177759
Ni 1.1635581370152652 1.6426562669527174 10.515453725630815 -2.918001284902594 0.7496411221171606 -1.373139295155945
Ni 5.625697807778025 3.7566145525169987 1.7481021161474268 -0.0476170876573309 -0.07299978939649363 -0.7054268894937916
Ni 6.214464910112514 8.405493587146973 4.491812643835169 -0.6581234764221376 -0.4644366188555163 0.6834488425608036
Ni 8.952764073366398 8.847750729287648 10.969329736629732 -0.3242644453775835 -0.46203957937824947 0.4197783567161932
Ni 3.116929385044641 3.9990010714311897 11.666277295877245 -0.024497213810415877 -1.8030493409895012 0.28812013424654254
Ni 1.9522693241670592 6.00431884686993 11.71549380691772 1.605375987971306 -0.8715939443735892 -0.7278042287477271
Ni 6.104373533568256 4.03724701215242 5.196824449215067 0.7912899080061985 0.6389728716356157 0.4024208392743521
Ni 7.650161510324512 3.9274586646702994 10.74512679798353 0.5749241207848228 -1.934227795609256 -1.2926889630186769
Ni 0.46930202680145966 2.1156203540566088 1.6155994447834243 1.4600459244415178 -2.2061162984882845 1.6549897943436918
Ni -0.06677750432625726 7.605359122622499 6.9151571739521325 1.7394065673278754 -0.12417914048378616 0.4563106473142722
Ni 0.6407962740335268 0.9830446429701386 7.23041483615119 1.9796972407959648 0.738188914416161 -1.7784546823692726
Ni 4.576831579432189 5.400299281741212 7.601675942112706 -0.37917600981379856 0.2943661151562543 -0.9967578173681477
Ni 3.9327754473059757 7.108419008814374 1.6854999849894632 -0.4141165304447255 0.11868006504242785 0.9650926250543831
Ni 5.521878214550117 1.0825759158338646 8.664119708982051 0.48156787921916416 0.3596199420587419 -0.04017297267445985
Ni 0.4521120145493243 6.660643064663264 9.833342652919507 1.91971571803601 1.5034808556967012 -0.36771891701679255
Ni 5.923988597307066 6.056724509221926 9.409276437205905 0.41479581589993725 -0.06903026322578434 0.7239861405532175
Ni 0.41374578047312416 1.7684225104384257 4.905072659538988 -1.4358495297009723 0.3767067223376996 1.4421914127586
Ni 3.73230794865407 0.5195855674486114 0.3480022480376737 -1.151344623609514 -0.9057749611306724 -0.1589887919638036
Ni 1.985317857337698 6.077771254992168 6.564513063454555 0.5670133505781784 -0.25261551358202944 0.025410726763620755
Ni 6.577723294023958 4.314601248297451 12.780088161858354 -0.26772434419900987 -0.5144664297193978 1.1614832547054126
P 3.045304333994077 2.4689063270140896 9.619905510408138 0.1996569591071271 0.861027995932285 0.3010769515175266
P 2.794506462930871 8.064677719231373 7.00090337929828 -0.5059105697295868 0.03425017943212166 0.49127945007997326
P 5.332962551054829 1.2685622983951625 1.6344423428290342 0.57033187342845 0.8346623614545625 -0.36721909456223856
P 5.794631918569977 2.8659478600043826 11.25538182512798 -0.5008431825090084 -0.11035020502049384 0.7090050937633531
P 4.066879581349878 4.801706691634402 5.543194931666628 0.02266787391116096 0.7523616063721172 0.0036450529517550127
P 5.760003961196685 6.060764896717086 1.1906324063123785 1.8497534299142595 -0.44707164521450743 0.3675425393399283
P 7.6839630248010655 6.712323293805903 4.699994527793175 -0.2840109971741754 0.04468011651619402 -0.8904547858338342
P 6.548871254228974 4.666656739608678 7.442696795146897 0.19402907139738843 -0.30127878311568757 0.3255134872933361
