# total energy = -340887.21666715137 ev
CRYSTAL
PRIMVEC
9.07956116870602 0.00000000000000 0.00000000000000

0.00000000000000 9.07956116870602 0.00000000000000

0.00000000000000 0.00000000000000 13.28885554651380

PRIMCOORD
 96 1
Ni 6.809053457121787 2.342245311948617 11.456428650923996 -0.15543809849806778 -1.0858714816073687 -1.0334723991803618
Ni 4.990689744334786 0.6849630015929621 5.746964527206025 0.10592507936960466 -1.2917073158316978 0.6315277282114802
Ni 3.0056797660837007 1.6385248449627021 4.683192246651872 0.03196009784636432 -0.11952467243091026 -0.590408332463351
Ni 3.573933180616517 4.194067207596854 4.552124241579037 -0.13882620097299964 0.6103426094934327 -0.34040248859002664
Ni 4.100357056901919 2.937719250828242 2.534875465530014 1.7157115377037804 -1.564482592191054 0.5056727426871679
Ni 5.057342802783728 4.996645936453368 2.4629299308830235 1.5313421008833432 0.5413879367005903 0.7587132596217578
Ni 5.559406216486579 2.9062767305437194 0.019838841126676957 -0.8609860869507558 1.5239290962487237 1.5775821056874895
Ni 5.659599173847165 8.180466692425124 12.62342918613331 -0.2553149147910635 -0.6551278841289233 -1.9532927826605069
Ni 2.055921350882366 6.646029936559093 0.25159100781865806 0.6610974714487968 0.6482514687240643 -0.037989848980211995
Ni 0.8255890606951123 -0.046587228293354446 0.005554875515469548 0.7686642001868826 0.8551273141771338 0.49399916300398145
Ni 8.155951877302915 8.803778565810193 7.03407040534797 -0.020673726299267618 1.3966751734943559 0.08008754948121045
Ni 8.837191350865648 2.923418942006953 1.250731340237279 0.9525312434496047 -0.19944330043442426 -0.08232698033469048
Ni 7.3584032253270335 0.7132440186828355 4.292473307321866 -2.0268952386380064 -0.3382383910591723 0.8190477948457571
Ni 1.2094701825182534 7.789110367901941 2.4266643477122347 1.736213000091242 0.7565116239847487 -0.8348647072733556
Ni 7.821297412201287 4.18022995639454 3.780559477720465 0.9066951589520965 -0.32119300554111135 -1.4334440055832731
Ni 7.924704534211228 4.090478494363785 12.570473553644876 0.3679940250550501 0.6313292390474289 0.10598961405895295
Ni 8.497488649761076 7.248395262356407 9.015119879022645 -0.44850452100629207 0.2861550401003717 0.4240895824970374
Ni 6.998888921779252 0.895797675292889 0.1072859105359452 0.4708852026943374 -1.1811912746573012 -0.03495286192610109
Ni 1.8544186501389603 6.928268095104976 9.170054418551127 1.232882789494322 -0.5893531517259591 -0.7768271956136492
Ni 0.29100447484236147 5.3293210572229075 1.213312652799631 0.27150797961115825 -0.9993057806009823 1.072664238888475
Ni 6.838507553513063 2.0841406269563763 6.524841401980508 -0.07588508136408867 0.18414549373508932 1.4625769183934876
Ni 3.7561781321472543 4.690546691188535 0.4214850323083794 -0.20387048296784244 -1.6301143712582506 0.16757473386060173
Ni 6.285780188557647 5.729856818075185 4.562050925791301 -0.9536008223646996 1.941020135940741 0.6855607466974838
Ni 5.4167753902811 2.738023382754955 9.528853252679784 0.3617465014834415 2.682279204641793 -1.1779460282471261
P 0.6110263191843783 5.724508956554081 12.251886279965566 -1.1052545141196706 0.5562005762333906 -0.12114575297410106
P 4.121557832202052 6.38126993323923 12.62311049353672 0.383169704354224 1.3785568666270902 -0.9301837289923398
P 2.7381141783665184 9.04323383218724 1.3650974925629646 0.6938011323294051 -1.5667986419187403 -1.2607491768872867
P 6.63394504065996 8.093475416985907 5.679670451739445 -2.426146164824809 0.35123197510536286 0.11908552801096264
P 4.994557637387403 1.2201840646827748 12.111596164626201 -0.2820240486511336 -0.6318254619575571 0.9449027803700695
P 3.7983345345962984 6.506885661837663 8.0303488600901 0.5518109318061271 -0.1463605616768318 1.034054239825761
P 5.113981105277188 1.3060494745386027 3.7512442986148806 0.2573363160964665 0.06593928300528644 -1.3698212865263055
P 0.5133293331856795 6.142595509121629 3.3530174701646684 -1.1216177859690426 -2.3529291172111866 1.5418190891552672
Ni 0.5503076619072435 0.3815149881857902 4.406119450447851 1.4198387560950125 -1.113324949832631 -0.20293665829966342
Ni 2.1653028241332026 6.6550368612262165 4.8051434643675925 -1.266692024734283 -0.10492569157081284 0.026784724293011937
Ni 6.030090666833002 5.954058421709527 9.211330103568 0.4814526937975386 -0.6572729554963842 0.6416707301827529
Ni 8.947208393397432 2.682293036377132 10.4493990878166 -0.0038661678236256002 0.1905015178601042 -0.9146684069655602
Ni 2.8866739580071084 5.071851941511613 6.622847093058524 -1.459844607063989 0.742743880776695 0.7218685799895825
Ni 1.0004496051373701 0.39529322224058766 8.994415755717766 -1.2970469828770566 -0.5022292642232576 -0.6033245263043867
Ni 1.6567021263977624 1.2622405919590987 11.13567590190889 0.5553953067232756 0.15265230822281453 1.2411298599944625
Ni 4.468814728188728 7.184093810246966 1.4708898152886865 -1.1994885303045923 0.541677442916551 -1.2354274102930465
Ni 5.435787991342548 8.040714087106219 8.263488383726777 0.35945204902231 0.532995855982153 -1.7529873913361034
Ni 5.706876448788403 3.3284036878258547 4.520522828974277 0.14223805486802601 -1.3949234809105717 0.03326518981103303
Ni 1.0823926445736445 7.5991023915825044 6.876490989654638 0.3136645583745501 0.19547377426371498 0.32411120762917084
Ni 5.072442112986778 4.617592417297071 7.340843354050606 1.2659836858133486 0.15991233221933748 -0.3092826272567706
Ni 0.9440019734281938 7.818782373760971 11.148286504398978 0.41129268784268513 -1.1508422300517984 0.6285575898395627
Ni 5.1433353264957455 0.6239501665343609 9.98264154767031 -1.8383014793235757 -2.0538283155834236 1.1265589320244018
Ni 8.421556279810321 7.283378811491915 5.22653316128383 2.091454353466314 -0.8672138130280226 -2.6870794542439143
Ni 7.197776708909623 6.379290588907141 7.040063823667292 -0.848875676840467 0.6672002419124251 -0.6224144530563023
Ni 2.783630018443421 5.798607255151249 2.539473355299602 -1.5066708233889083 -0.9247216774365041 -0.04788705348926591
Ni 2.652611950956946 5.440382249287673 11.141814593206714 -0.7598638282864333 -0.24415452729886988 1.2675230052760105
Ni 1.4672752419923338 3.4497429431196354 3.621173229357015 -1.593260949875327 1.3374624105796256 -1.513222251354181
Ni 1.6936196220595787 1.500933175199012 2.3290981073941874 -0.7100299354834417 -0.8322352400703087 0.1880545989815084
Ni 1.2616776591674035 3.534854749399484 8.036820771282365 -0.16096417052261958 0.7381202659617546 -0.09796982907826998
Ni 3.620057351290897 2.761875389912749 6.9981634648428575 0.11977869742324532 -0.002672404625840559 -1.6114872430753666
Ni 4.2345166525485 7.371495952514524 6.061458734716042 0.6825625833011083 -0.16087495324292292 -0.5764392718777684
Ni 8.462332588963596 7.189505228696166 13.449783653833904 -0.6703614132492262 0.8014506505892842 0.16849416035107756
P 0.488804530546198 5.723392170531848 7.638580323490418 -0.4551881036740548 -0.1503056623675089 1.124607978945618
P -0.29277589722397 2.0369087498209195 7.880995526804445 -0.8787606373253576 -1.2774420641619355 -0.2560322525730623
P 2.009633748107172 3.4568703986273888 10.297654198122355 -1.0838994454826623 0.013157620427880568 -0.30730390626384496
P 4.14860584488689 6.305546393195073 4.142521630956004 1.2483924550941468 -0.44114756642058855 -1.0960589636633316
P 7.09609470351939 4.163033267564368 10.27279072785174 0.2374416340550685 0.9119623208883068 0.03491095294457214
P 6.5170820090162715 8.018859583402826 10.169974685273079 1.3801401519538101 -1.3592620229532202 0.7906869843148769
P 2.386490013463627 8.721018365869845 5.535831135944054 1.0273125502265532 -0.19316132408045444 -0.5124697110043432
P 6.947090025382139 4.1245813260671245 1.5217862033068559 0.3388991645716228 0.14832462738173813 -0.06654194958629185
Ni 3.101242147254536 1.78578624735793 0.12798004632355256 -0.13114091651359994 -0.2088864481251951 0.6021387335264018
Ni 1.459067318706972 1.1600228924606413 6.622979654651407 -1.0120669369213924 1.7501442654603536 0.9999446997365617
Ni 7.325271906667425 0.7523115544264812 9.007983343953736 -0.4022953694400813 1.0064701595599053 -0.8984246914131881
Ni 3.01179031074194 2.00350504432662 9.008381936688501 -0.05372577165823005 -1.3277081594063391 1.318786174326361
Ni 6.839424589189857 1.9714541934446197 2.0993334566393367 -0.8624302755964502 0.9326162496932325 1.71896912540913
Ni 4.206188421740613 7.104220910754346 10.500800299435063 0.7800194772987018 0.8853822564069331 -0.5586948034101539
Ni 7.383825996564879 6.295976535736254 11.514674035742132 0.08301732153349574 0.22248732673808136 -1.6015892672353642
Ni 7.775209559771533 4.420275394246754 8.051106552805804 0.8294409651546232 -1.7676339376046846 1.0820220259542914
Ni 3.2550680723658227 8.532363244162708 12.44165092404601 -0.15900833234782938 0.3339845008788248 -0.33494455079924895
Ni 9.478607869196525 5.065686919486436 10.182731468697783 -0.8105585264278233 0.11828745758969951 -0.6575542341822289
Ni -0.31097678551803715 2.5787134027052185 5.32841945680008 0.687280557602068 0.33897938299025493 0.6644051956657911
Ni 3.6806634220096925 2.8518992387781963 11.391432612386092 0.7786292818193945 0.9219862807832121 0.09447801387492762
Ni 1.4251188395432899 3.7207587640762396 12.847054237634222 0.20208639448422613 -0.5458020066078858 -0.5317756104218068
Ni 3.1149886028452864 8.853870504709908 7.783628128875722 0.7348547078366054 0.02258405594810304 -0.054525384741389966
Ni 5.651890626425403 7.988043552838093 3.2858160062218826 1.6726177918381 0.44154377341774276 1.737938981643413
Ni 3.361335256140023 8.411514285171371 3.486995474588122 -0.5278369374890329 0.7083846865705349 0.22460617285329704
Ni 3.602742628165692 4.5255075080491265 9.121483306145103 -0.12812912627046963 0.19119211616922555 0.32943210562145203
Ni 5.23083505735972 4.847804690416931 11.354529644022126 -0.0010443821041143304 -0.3954480075009448 -0.04423377300739479
Ni 8.429882237390716 8.810243213353532 2.1420437123189195 -2.3393639769322423 1.3410390721872905 -0.06498591795308162
Ni 4.848621850921004 0.7454791846563098 1.661080290787366 -0.13066500531844594 -1.2260325993417078 -0.6422116902878876
Ni 6.144429580475218 5.687391710546826 0.288962481538293 0.06106472852180452 0.7307594547213092 -0.169474779096792
Ni 8.292263328943557 9.324164533926606 11.034600411203904 -0.20613356797040627 -0.37832137512298714 0.7808602280324423
Ni 0.33939036420079355 4.999133736210214 5.547711741717169 -0.06310335621838808 0.2962687314956059 0.06941284337618368
Ni 7.489230622029225 6.323487606040067 2.4805106851501098 0.1458543114643746 0.1798674351850257 -0.10536946397645078
P -0.3359991481088879 1.9923825819100616 3.205684339236305 0.21969048071923453 -0.27868547119620396 0.24280675502172372
P 2.4124666379320128 3.390871068581707 1.5941575693720809 -2.484856019961191 1.5364668237044183 -1.7239789199188955
P 5.104302293084493 1.3675635013730358 7.822471399458806 0.3554789233071749 -0.12519498334281018 0.8022147824488184
P 8.803515258536658 1.7288573989074658 12.585396720361492 0.6833441986621392 1.1583755623143663 -0.5841734072972327
P 6.509291745544103 7.938796013125921 1.2269210990608042 1.4396969284715206 0.15414714760078616 1.0299276192518971
P 1.8097472092496008 3.286374399233 5.6537174341300656 0.9590441048674582 -0.45686214894236804 1.7047478396034252
P 6.781487909451036 4.3352543835784685 6.09417602538692 1.2797357452921188 -0.5781963637781913 -0.49400970452694276
P 2.8580097834364357 8.807501185884306 10.030654267065215 -0.8679188095148472 0.5790908505680027 0.711444042222149
