# total energy = -381165.8839877977 ev
CRYSTAL
PRIMVEC
9.23493074373901 0.00000000000000 0.00000000000000

0.00000000000000 9.23493074373901 0.00000000000000

0.00000000000000 0.00000000000000 13.51625462456593

PRIMCOORD
 96 1
Ni 3.105088474163109 8.462151753828863 6.467433491009162 -2.3141759077023885 0.39945635732938944 1.9848289055955752
Ni 4.7565803768706445 3.2776154506178745 9.917443858571938 0.3496245214089269 -0.15344292244490992 -0.2648189976267568
Ni 8.193045871488007 6.343390824536474 1.3543016724330228 -0.5729266307388198 -0.7897521312054334 -0.5873620894378594
Ni 9.076228474702413 3.3650517750517537 12.108888310409409 -0.7432501309891523 1.3158911121667531 -2.0143204872967893
Ni 2.584506192301874 0.6398865053610651 10.517889821644006 0.970437177195748 -0.5289455971721794 1.5929305631191018
Ni 3.759189384949673 4.832168285139687 3.1646824058492373 1.34539246405998 -0.3390004660361775 0.9075536502976499
Ni 8.675497124241987 7.231504880776617 12.07675998629603 -0.1348106520557033 -0.6906129644094107 1.0722330648883276
Ni 8.65107073238229 3.8229565818461593 5.404379370906716 -2.641467827052386 0.859022792576798 1.8675323511642354
Ni 7.205019099357482 6.62024481378481 6.992566746748832 -0.15631124513164046 -0.49658312168107377 0.6243803185334215
Ni 5.426362200087366 7.952466690264204 3.5154564748713946 -0.9349911776833124 -0.7424212073299536 0.08653253377560581
Ni 5.577907413855844 5.532776307232655 8.824464868835403 0.02634660831432882 -1.1290426176782038 1.0968938008598013
Ni 1.6172026047963624 9.071657183976306 8.508671794038328 2.0368634055943113 1.3322387002868412 -1.1701802682587783
Ni 8.831031828098704 6.486172089013892 5.469257529973607 0.10270502977041022 -0.49048189387934243 -0.1860735639957376
Ni 4.684252399159815 0.2128623835343866 1.4128003413310375 -1.1261668387923056 1.4048003737046517 -0.4849079993359906
Ni 6.51055230621979 3.102031712081612 4.603285143723183 0.3991023164240804 -1.0556376224234916 -1.115688307858485
Ni 2.415248381336081 6.574818189377306 4.112564010473793 0.7859692671242335 -0.05496787159544726 0.26307784656593397
Ni 6.460526686293901 6.9076173891685695 10.932446786944944 1.2538480788920792 -0.6058827739498662 -0.6389466463833705
Ni 0.40278981652678575 8.446424666744907 10.285680258167819 -0.9321218265553173 -1.0679382941677156 0.19180738115572127
Ni 6.053072306240335 4.329538708675523 6.450173405419077 2.6066882574793557 2.012734887977224 2.8788739798838288
Ni 9.054360158663183 8.505860681115044 0.9162177975283962 -0.5184701515621523 -0.5796135558406921 -0.8901719644860927
Ni 4.952767245932043 1.1229491105313452 11.585376708511163 -1.2669789598470824 0.7758622605972186 1.8865880822441057
Ni 6.489579778464263 8.2244815757944 1.442778773563532 1.893192989155133 -0.9971126296044054 -0.08700690230886306
Ni 3.1491390938874018 7.522977765417732 13.007015802072415 0.8514748050262109 1.1766967292210573 -1.965581113109557
Ni 9.278057886458054 4.225756556796781 0.6748074725362097 0.15547435105264193 0.01956892327086307 0.6953247680627832
P 3.70111090540123 3.892237032406252 8.027344432357816 0.08961451513503922 -0.4865216236800137 -0.5100695862032828
Ni 8.594977762947206 0.47598772471518974 8.333541490602373 -0.4350563659211862 -0.3883227093100732 -0.6459081653028682
P 3.486611168643129 2.815988966727265 4.676421177875496 1.1173350994332885 0.6553798522387294 -0.6237642822159774
Ni 4.8053500462132 2.659881697163441 2.5690616940991684 0.8836112805494396 0.026915593443921387 1.360334944302425
P 1.330799697142383 6.491897746084975 9.500251244032151 -2.9606908533513208 -0.06800259329221837 -2.0405830205377433
P 6.449093842013256 1.3330530202477766 0.19178088359589296 -1.6887362946665176 0.2201219118296983 0.6723771581276743
P 7.5421217768828175 5.200540438217739 12.46669016173978 0.8965858384322366 2.073504453856113 -1.6121829835908106
Ni 8.263425278808517 6.7441314099276575 9.251105741035548 0.18388067010947687 1.1892174873958874 0.21960949096965407
Ni 0.0671684218953242 3.2770336499800066 3.4037849216445473 0.9641251189347911 -3.090625922482277 -2.1041887703138467
Ni 8.95888020953751 2.851774323421528 7.909225973967547 0.2635393595833848 -3.154654361618096 0.3155892862010888
Ni 0.3662859822194098 7.5396468154391885 7.3442864726807935 -0.6368871927511806 0.24675828347030404 -0.11540190851178835
Ni 7.386393139480146 4.812110015529381 10.139191168990337 -0.06560015449831283 -2.087922429053656 1.2786216862923334
Ni 1.0271921134828779 0.2019900995508626 12.36954884857042 0.13448412195422 -1.5312246014688726 0.1636707708205052
Ni 1.331335323126452 5.609500111985153 11.939083791542636 0.30998042465474357 -1.1351168488967418 0.8564303492592734
Ni 1.509661836098378 2.296718045033923 13.216113104336028 0.5690203537058781 0.5574969264473109 1.1751548386552342
Ni 2.8614248260655293 5.141575405316354 9.629263226746694 1.8071582209515522 -1.3779850532840203 0.21904796203922922
Ni 8.505334290061734 1.5569169767963245 13.355857000086544 0.04756669403536969 -0.7828096384493293 0.8867886498361567
Ni 1.6198253251321484 3.59238806556599 5.446428781135357 1.897059671199391 0.42059545330084985 -0.31633850566228744
Ni 3.742908202020129 2.383064647638144 0.5602583148846056 0.3255124588520717 0.45901621917089336 -0.762398421782829
Ni 0.09721611610851716 1.3722275965308894 10.434845630279494 0.26153055668347214 2.259032172650709 0.05460586027033822
Ni 2.5525348620114126 2.214942733155808 2.6652702792617906 -0.18176208110457728 0.4847737877509715 -1.3671249706410649
Ni 2.7946655116028647 1.7262763720004755 6.945435354123067 -0.8454460823336278 0.4114086445952593 0.4034127708739762
Ni 7.473635530368068 4.598672295808658 3.1937558148672704 -1.1784628199825447 1.8266314991848154 -0.9566627491194751
Ni 6.051160675573055 1.0103475997769849 9.68039519137761 0.5197467042817306 1.505356475452859 -2.01410322907966
Ni 2.3552952108433964 7.42115341886007 10.945314739465662 0.6081407167461075 0.9780005913653029 0.7732834441264489
Ni 6.696645395960716 8.745950411008577 12.553086632970105 0.5769475789727547 0.8277563783633486 -0.5046805539772276
Ni 8.827513319479216 1.3019682433102568 4.8376159707949 -3.1612330432768783 1.577845129540889 -0.30145490368223565
Ni 6.91587341726784 1.4145235794108182 6.796365101798218 1.183926157089961 0.9350641970130927 1.0430793261425069
Ni 3.6434572326677377 7.4826303529281235 9.014477263190791 0.38847466150690513 0.5185159171984232 -0.2743462203909017
Ni 6.521938975846635 0.6689460619829585 4.2089212780216485 -0.08098717847734441 0.9461934741570349 -0.19497703713295453
Ni 5.02282343067596 3.7249554966230587 12.440009523281615 1.0698128854826092 -1.356911520443173 -1.693942264347489
Ni 4.42429833320193 5.737200734531802 11.454606394979953 -0.9592271674125415 -0.1940144161093691 -0.3883653896225505
P 6.636969273390826 3.0576209300576873 8.703184370152973 0.9493392188748682 0.19179529697086323 -0.43775988089527834
Ni 8.60795284066474 4.889258627096831 7.954194545809364 -2.3272715645440822 1.7863826789670978 1.1758030137621944
P 7.418068951986294 8.85109009770901 10.212666125101535 1.6371712781050323 -1.4037138255086923 1.3152601634509735
Ni 1.3924151551718336 6.5550092628975145 0.6714967498588179 -0.7436386246768225 -0.37815759585161324 0.5707519916850042
P 3.1587157170853244 0.700568311890699 12.846456372389287 -0.05142540565982757 -0.8558824471756034 -0.6121876331219714
P 0.7922887207040533 5.095216052902109 6.607205091551959 1.6664268325360394 1.017776328601344 -0.9637847048762369
P 0.7557710340005377 0.6724673410816739 6.427628168955154 0.7047185505728573 -0.896540844126914 2.3820147217232335
Ni 0.723086767055419 4.245473133968975 10.140407409371402 -0.6449766546275344 -0.13327981723347368 -1.3927311012449435
Ni 6.198245417784545 5.938605339472494 4.919808701543358 -0.6181816459218772 0.6193748948990301 -1.2424182397885828
Ni 1.7055531873754621 1.4502719963820414 4.551652645845087 1.5905870025875897 -0.8598815410326675 0.7106179467764278
Ni 3.1202614654014766 9.080965994182195 3.234439378836536 -0.1313142088666706 -1.0952943175831653 0.043666587650015125
Ni 2.3007629447067197 2.463270021287092 9.298169718666768 0.07057009690907845 1.2441210814123025 -1.1807061074907663
Ni 2.095793656492743 8.963377620817537 1.1668150316404413 0.7076650347956909 1.5735228480164514 -1.184551963599418
Ni 7.813296283713871 7.190003101942032 3.5651283969491834 -0.22979003104708165 1.1190425690426984 -0.8091035391488518
Ni 3.6928733471634794 7.047351126495251 1.4702166763440028 1.4545147102106435 -0.8844620585855091 3.223542185728745
Ni 0.38574675180955686 5.378793071743586 3.681165301946193 0.6601549050298695 1.9664987398278198 -0.6000589681792377
Ni 8.346539655646804 0.6041722576336528 2.5976484222661593 -0.17328926774687575 -0.3581402721894219 0.6034152862459801
Ni 0.896279582017967 8.398356852140097 4.536568309942014 -1.0923774010466862 0.49618074403633255 1.9375776859180953
Ni 4.825186677485272 4.740400778179459 0.8310431076375949 -0.9497639651171127 -0.12282339778684008 1.3820124292758584
Ni 7.807201229412397 8.735385650219355 5.868000599841444 1.555872996145172 -1.4530332405691104 0.08883084289147927
Ni 7.054138800603711 3.767076015818551 0.25468830843864093 -1.127349546246497 -1.2961247281731034 0.24907304764640975
Ni 2.9230310491642197 3.3254431570229297 11.541827545527129 -0.903288961484025 0.25677453005572554 0.0034650757304650003
Ni 6.507218496215499 8.384772268992418 8.232791166492078 -0.3782087608045228 -0.25491485113916745 0.7623994502240935
Ni 5.79410637787375 6.599087587414085 13.178577728262779 0.28550557944183086 -0.13010064817454367 0.6751693761608308
Ni 4.232488821320683 0.5575026115458784 8.626938934813833 -1.6384313757643785 -0.40256276416885506 -1.0043196888758057
Ni 1.802113623400033 4.55006885521978 2.0235728039787264 1.0552259888073696 -0.36704297399569047 -0.42406515701700515
Ni 5.109290087380058 2.509047573063469 6.246131304253385 -3.556629371604281 -1.7433208147806172 0.1727490789726896
Ni 7.080504527922968 2.5131201775285446 2.117618568357401 0.06329644606580066 -1.0036730564307423 0.6410287257233799
Ni 2.4029474535640145 6.412920618227082 7.4333721557483745 -0.5011771688096593 -1.3308662454193467 -0.058032626563700056
Ni 5.58099188072962 8.817992105865853 6.148274283950138 -0.34989628701307485 -0.47775647589287407 0.18038396981012805
Ni 3.923451098374409 5.151179733306556 6.0000277874490635 -1.4402306894878034 -1.9818243144412968 -1.215209797694591
Ni 7.192662762000857 2.146936703040569 11.206975420627959 -0.0038759380156384864 1.0011911705491532 1.1204960136597735
P 0.591787291991672 1.9305715102689864 1.7709946772187022 -0.21457449964890787 0.05905361162904669 -1.0643366928593863
Ni 4.582344938225315 8.046081183376396 10.984957526738297 0.0917485307589065 1.7530660670928389 1.0186849564585425
P 4.2193659847109934 7.28085635075704 5.263499578672741 0.3932797962050324 -1.1367664686850227 -2.605343056305371
Ni 4.908291819392799 6.766581526604756 7.187322201542459 -0.04340587778946073 1.1493538184317302 0.10391910468316941
P 1.2176163857501547 7.738825802066765 2.6648787181975746 -0.3370747097683743 -1.1863481362678923 -1.6515357743568204
P 5.726543624434982 5.878412060780054 2.352557977366189 0.8412338440244931 1.491898035955108 0.8995765456294442
P 2.7963555039319097 4.541914411358868 13.423006028627272 -0.48349800636234147 0.06252717199994393 0.1557198914045447
Ni 3.9713711540870618 0.6908411593213913 5.124607143538279 0.8729473730776902 1.9236410212323454 -1.709025898153489
