# total energy = -381176.38896185905 ev
CRYSTAL
PRIMVEC
9.18762895577209 0.00000000000000 0.00000000000000
0.00000000000000 9.18762895577209 0.00000000000000
0.00000000000000 0.00000000000000 13.44702367653503
PRIMCOORD
 96 1
Ni 3.9493940590156065 8.585480672269535 8.271828811003765 1.3305176038306763 -1.9346360867912684 0.2105440383332761
Ni 4.251308724658633 1.512439868359401 9.17689384217432 0.5114371559747708 0.4005606461371618 0.9036725700756889
Ni 2.9664188555074396 4.416143970582421 10.890757768862997 -0.929052186491058 1.3056270112365838 -1.934479506608746
Ni 7.529858888887371 8.809006490121373 6.118691495041327 0.5782691259976557 -0.8991404865332902 0.4057987546076495
Ni 7.740678216292043 5.203404308215302 1.3385208139720475 -0.5619539337773999 -0.7958430745945198 1.3996820786414799
Ni 8.401434094801987 1.787149965517933 9.997995891241102 -1.226666633381281 -0.43872378747044444 -1.640731741762781
Ni 4.641075495620387 4.529353931023472 8.719896598438066 0.6938245293681728 -0.28394877647767225 1.085718243858956
Ni 1.6770178606804973 4.811184440399324 8.55682537721844 -0.8540950162578775 0.18073955337733388 0.02369657228599145
Ni 7.7841081370033605 5.512237258244964 8.847374946199759 0.23127150068861457 -0.40254553777767443 -1.3230498346987216
Ni 7.245566095028627 7.722495899159041 8.956618607345046 -0.23905294440624636 1.0670348085168397 -2.24363769247251
Ni 0.24492564254420005 6.891539199583486 0.42505737143652333 -1.257514472000073 -0.12995538084593103 -0.08628905030623203
Ni 1.167995669614472 8.906432104511643 3.9395881029387736 1.206360574834077 -1.7018998286316689 0.2927463201646442
Ni 4.016858816321128 6.648774487301884 11.695333111482665 -0.19310218870774484 -0.06873921434792676 -0.6811657029535818
Ni 2.752760550844507 3.5455977790785664 2.2360115640691065 0.21237800621822137 0.6355900712063118 -1.1257930003926546
Ni 3.679911722568887 9.098683234379276 4.201146109659765 -0.09513955871832647 -0.18955226657295743 0.3746662948689031
Ni 4.303356641060075 2.507698931396028 0.14816704999519117 -0.1256400413000288 -0.4492192876851296 -0.07297664946804205
Ni 3.6409837399046494 4.997757615750437 3.9260602384887324 0.6847207672946918 -0.5335422154039263 -0.7687117655953664
Ni 5.20211804020185 4.2437197433792715 1.478795690941848 0.09329504931041997 -0.314562130488155 0.5611067552857562
Ni 6.0370254201044355 7.912918690921842 12.625356335928508 0.06897112785307476 -0.963986793584714 -0.696724219513471
Ni 6.706169603587815 3.0086268216059775 13.280253263637182 -3.481389122913043 1.3680811639067472 0.655083404044233
Ni 8.05314946727404 4.600622366597342 4.827293109742069 -0.5148978608298616 -0.44089636964173096 -0.10841596411225846
Ni 3.052571249522675 6.395508315453319 7.640060819702679 1.4247786165987912 0.470984447276363 1.2931633315519342
Ni 0.47927632449209673 5.9842057428949245 10.165855704522235 -1.6578511750518867 0.5409865874971135 0.0716396758241734
Ni 3.1129982832688845 3.22497710146849 7.684987405123934 0.6361230608916464 -0.4635364756387501 -3.5946487882708484
P 7.178413717097801 3.2478175463359182 3.068933497416643 -0.3429933892456544 1.435002608319645 -0.27082792282499807
Ni 2.0671980749322882 6.069090244154044 1.833689898533202 0.9466845548608405 0.2050089674476598 0.6843826672289827
P 8.112143230948117 6.786901296689221 11.852583051178556 0.015222473376709268 -0.872679207017968 0.5074015524528164
Ni 1.4459214368066324 2.900212803329366 13.325005284113754 0.22363686696149226 1.1589455758852234 -0.9640940085865397
P 5.545744539995371 0.3828402177093175 5.780781537804731 -1.0036177777127748 -0.5847801876432961 -0.7192673949213096
P 2.5720582702119312 2.71645104235051 9.571227783346691 -2.2265105458739205 -0.10933693326463105 1.3078435592719282
P 6.334309520899039 2.939471540625634 9.322888017989644 -0.060245575054618826 -0.2067858568424245 -0.7449935960428202
Ni 6.172395940891519 0.8696017032768342 8.093131270946438 0.9280119181520018 -0.2643798532068092 0.10200029039390175
Ni 2.123821430410149 5.430476550732798 5.725002525401414 0.043821882280956785 -0.38613804295392856 0.7104611094835893
Ni 5.175721983040095 3.715477033140816 11.072884131939036 0.049646716492849984 0.6979868882759787 0.3428666338598031
Ni 8.066958473161305 1.9378454509224228 6.838860093092587 0.21443925962262422 -0.1840483060355927 0.2185093159269398
Ni 4.584819645289226 2.720888666996917 3.582152597257986 0.3636912839146382 0.21004832964378015 0.9085808060105837
Ni 7.2448035218492235 6.3434236485372075 6.45482640241936 -0.6940420446956177 -0.22849650904663873 0.7130687223097655
Ni 1.3875156813672749 5.720245171277377 12.14935815734498 2.0511821362098286 0.0670127185751233 0.9124238339057578
Ni 6.785789593620452 3.9435874776977404 7.280635273652511 0.36739084425341245 -0.24388353302567034 0.43715412899047945
Ni 5.193766485743085 2.398908220344049 6.305349196576182 -0.3159952633902558 1.7054039851301854 0.6035014182018832
Ni 4.928345081167404 6.272972911914746 0.5158412490630508 -1.3829364837520246 2.2109831396622823 1.7169572371854238
Ni 6.089817534427945 6.384712851768995 10.526558330957188 0.1777861271759648 -1.0340290430147805 -0.32806787828407374
Ni 1.2819314527202568 1.3374063546146786 11.018988583412558 -1.2517868254876765 -0.2813475914093993 -0.5002199471027127
Ni 0.7488643186684923 3.3920908793018185 5.984987610094529 1.249124962384797 -0.7732477057925069 -1.4425575378487672
Ni 1.138126688816399 0.8582154750691897 6.10925120658546 -1.568123788488067 0.28987002705811366 0.5444120682388947
Ni 0.645065246271571 8.371390549059232 12.05725953005613 0.6682600506355072 -0.5099952813219217 -0.5597394426245843
Ni 0.6112244536005336 8.195291270389077 9.56782560445111 0.18917817106299034 0.9924381069468714 0.7627758597269058
Ni 6.178138208808712 1.575871256679886 11.132293176428885 -0.02327902513259862 -0.5888936955910373 0.5397264898377673
Ni 8.409105764739357 2.3101557274159075 1.1833004214488094 -0.1359473367633078 1.2189862340178876 1.8149149820788357
Ni 2.544954765642779 7.432111707493738 0.01646239304644341 1.4789273347270528 -0.015559545001153849 -0.8974702979197189
Ni 3.6983329180472433 1.1064661204281614 1.9747356175482067 -1.4955484882235017 0.7889337490691961 1.3039948749497994
Ni 5.136215179769805 7.402343790611008 6.022181887229207 -0.8213093371864243 0.7021032244371973 0.13235139188193334
Ni 4.366879905667235 7.172322319291241 2.830329862158556 2.426100399188538 -0.009058767768158593 -2.096729485822325
Ni 0.04932929707872492 2.5686129094616157 3.7379361914185427 -1.6700721425981109 0.54431076677434 -0.07400714761508545
Ni 6.275150379908945 5.198112234102816 12.686795846353878 0.73761915795562 0.44081795099531185 -0.8697748888869795
Ni 0.8505419676060858 2.5274247701451706 8.136027390432174 -0.7350280001896761 -0.12825691009758555 1.1661253814631143
P 8.703109882099659 0.6171495553282104 4.561741240839309 -1.4574668508604318 0.6638017577538374 0.3223150349606965
Ni 4.857131771365538 4.9937426220227366 6.23846417863958 -0.42394585783032146 -0.4105396117267446 -0.3408334054798582
P 3.3033751368883477 3.319104357167124 5.294550178411329 0.1473370666574882 0.4279295250684178 1.1824606282880281
Ni 7.470855937584625 4.250546151479231 10.719509558129287 0.022925498447921806 -1.055010530362454 0.26549108399311694
P 0.7755755114935425 4.469147400365283 1.2555620396816378 -0.4294007102973056 -0.045504669300018404 0.30966469318653767
P 5.370628337592641 6.406395655424317 8.173288737256126 0.9154963021834943 1.4902599861310528 -0.811543516048912
P 8.712058632421813 0.19520035866990548 8.104090274421043 0.046850898915267704 0.3595667202233033 -0.02764398696951368
Ni 6.717709265194206 7.30070105466235 4.072081058427194 1.0696737888015835 -0.0028917197254982457 0.2625764814494833
Ni 1.5209108619908445 8.513523164545601 1.8149443797628826 1.7227324491063039 -0.292883874183773 -1.5006742394858412
Ni 8.38319665189698 2.3446185225477354 12.323094377921848 3.165893939087657 -1.5801578368344655 -2.8538710300815886
Ni 5.946426213814125 1.9256350924233028 1.900615342035941 1.2455688696024225 -0.21802594853261809 -1.4200408448034898
Ni 2.898044522963834 8.703109882099659 10.808112292710149 0.1444468895938867 0.02556602139456242 -0.10719777543444119
Ni 5.356635579132024 8.625125289969839 10.40330261733108 -0.6170308201468857 0.5665094143585663 -0.20456288104917675
Ni 2.20290853798007 1.8860272252376695 4.151203997748918 1.081943350197556 0.13165822246965067 0.4966150033602737
Ni 8.563494676868185 9.174903801804936 2.1058982044055714 -1.580074790202356 0.2576170805616789 0.6639537099506694
Ni 0.5846611815970303 3.664715384752826 10.535164382730045 0.7711455718478396 -0.3465880485754482 0.5101881140590181
Ni 6.896711834523293 1.8679000338766734 4.749354455755586 0.6592696742114388 0.38720479365554605 -0.1879746376731924
Ni 2.429356021748175 0.7138181091162776 13.19269975625015 0.6059401095503628 -0.6705845850036257 0.460806992522729
Ni 1.9841143488920003 0.49850511253032725 8.327405695576397 -0.525393618154863 0.19607027019713327 0.571589399984635
Ni 3.440068676203553 0.8598618981264073 6.508117404979515 0.4114636662029107 0.2904356697535966 -0.37405925741252355
Ni 3.5918758646768114 4.7407796419201995 12.977695463987427 -0.3634956229640643 -0.9309653443533709 1.684938261076666
Ni 8.667682385957743 4.679792162825271 12.74824913822225 0.013531973048163792 -0.23678008921166963 -0.16077905109500695
Ni 3.2840535538005757 2.1860033012318527 11.533875237857055 1.3918296724765964 -0.3616536846593191 -0.035763787863170665
Ni 5.035647396375246 8.784016140145747 1.1908590835535693 -0.9366109726749224 0.212149435147183 -1.6203878879991063
Ni 6.746227664578156 7.496709924654997 1.451619604106222 1.9206058339504475 -0.9657827091428721 1.0965137918125631
Ni 1.0337644147821592 4.894690797358317 3.641144523406331 -0.24745916619207062 -0.32299894840159854 -0.2588774353313413
Ni 7.759512855060437 8.69152428234993 10.924375302157411 -0.319826721321204 0.9636906025005337 0.6449028639668055
Ni 0.08668343895221803 6.714704910619932 5.286401670546114 0.016039312851049797 0.40281216117549984 -1.7123562480783028
Ni 7.191331523004319 0.5658825873635077 13.426691201917146 0.09812229549573424 -0.13344385361516375 0.3929949179747619
Ni 5.875249654526929 0.20136341998007082 3.4041542357422587 0.020863730822886648 -0.7421275873489349 0.20895278258675629
Ni 0.5107117959779803 7.028122487354682 7.532995545314459 -0.1723418162319419 -0.2510723374646257 0.477276708042978
Ni 8.920599427916942 6.831369419439966 2.7269084012998692 -0.2283494419458132 0.054579120797460835 1.0487205835886841
P 0.3114927685289062 0.5638025082331836 0.1380321768120615 -0.7668037499393762 0.8926625921184305 1.0373182552890134
Ni 2.2612407923900877 7.939608752200957 6.000855563566184 0.21178690960144173 -0.3596513095173096 -0.018981169088193115
P 4.607219083980614 0.45474535594984655 12.5206035876759 0.11687283663036001 0.07875726070556115 -0.658146616350589
Ni 6.021424826627004 5.207235549369653 3.55958870001345 0.2320258623561359 -0.7239164636575468 -0.3187805394448768
P 2.529868679370728 6.6743069073688925 9.985839739751123 0.26302411050986313 0.05527717530574996 -0.5410670630260617
P 2.970020405945103 6.954704146672612 4.167676497186895 -2.8948256181170793 0.7741761311440474 2.1614480090466324
P 8.987090296583707 4.947583975597169 6.91720300274044 -0.5295485208635009 1.149819188103923 0.8824332010809384
Ni 1.3353299505358214 1.8188564720495082 1.9743993503389758 0.25830433643669065 -1.9357766281536144 -0.49021655603309766
