# total energy = -340872.39077173127 ev
CRYSTAL
PRIMVEC
9.22034879484456 0.00000000000000 0.00000000000000

0.00000000000000 9.22034879484456 0.00000000000000

0.00000000000000 0.00000000000000 13.49491246839424

PRIMCOORD
 96 1
Ni 5.778798258634853 5.604856379415991 1.676648501950287 0.4398838692168166 0.17712921031825624 0.04700567932557711
Ni 3.194297621870267 6.5659117706028685 10.632411970870164 1.4164397577157928 3.8110171465953853 1.262206992379736
Ni 8.939238759885367 6.1355796536188905 11.982740344010564 0.6086207417063196 0.4267013090882716 0.6933380766500575
Ni 1.9389563595448571 5.745983037424149 0.8222826882152721 -1.338996844946281 0.4089480988699086 0.8380119946530857
Ni 6.630279025245161 6.081557630277078 5.131737234045311 -0.07067756902122022 -1.1943028723385947 1.3801329528649584
Ni 0.8342341042684652 4.933937702428952 3.8334595736834074 1.7343065270971487 -0.6410557223065734 -0.488865698432158
Ni 9.287104077625584 9.040349104306996 2.7331114518552755 -0.17473422772351843 0.6097278587275692 -0.2923172030470256
Ni 7.819077030622651 5.452296488954539 8.312244902321106 -0.6354280917071508 2.017891749587815 0.5864370065204287
Ni 1.5231831732413244 8.301347372130342 8.261815126853328 -0.8292463326453138 -0.7056472330347138 0.6121632076419393
Ni 1.00355197858787 3.6669880210239474 5.917572805676208 1.5733896648726968 1.6055176557554929 1.4920643863296432
Ni 2.8910311310466468 4.906792995701132 9.459474809416994 -2.051056923485874 -1.9225076789588504 -2.7184242871037827
Ni 7.058536563759791 2.8158115259224763 8.899085063102422 0.1823963722544665 0.035359096225584266 0.35764867726498406
Ni 3.2982939354514778 6.8395348401866976 7.689549571345335 1.052581352095671 -1.0587558563374992 -0.15056251557332137
Ni 6.774918636128082 2.785992918056386 4.376346331960812 2.595200054334098 -0.9833703403176484 0.2610615874668536
Ni 4.922845622879506 8.65917066652343 7.114531741734673 0.8472682231440312 -0.9477538766656193 0.17066931362552543
Ni 8.105995843107811 2.808730298080436 12.321975415318297 -1.4356579825154565 -0.693427036819438 -0.2447903611106558
Ni 0.835625454895241 4.009192044630035 12.772921466008588 -0.6221910241915865 0.08085065289948011 0.7124208043131214
Ni 5.324318048267669 2.0356962586577274 7.191493070738221 1.6729978008853381 -1.3714804193962833 -0.3565492735532182
Ni 2.008920365880013 3.207611805469103 10.959150703513421 -3.4045519620483304 0.11365895767875264 -1.0057664486246614
Ni 3.6890891969840647 1.9512839658271588 10.54953947628129 1.7206015188062305 -0.8460947716612203 -0.3366257951564138
Ni 1.7497271420940907 0.6593268545351999 11.36619775175744 0.23825590242624772 0.6150654688903988 0.6405954948407031
Ni 4.253033387742786 9.021871525406672 11.132479429540231 -0.6272293579464424 -1.498688319404064 0.19698249759875752
Ni 3.704542501493517 4.359878789088567 1.806861033139926 1.7753909558422842 -0.14035446469206794 0.08109207948632485
Ni 7.834253724669524 8.179288395342676 6.917290041217849 -0.40001840048044657 -0.412282048339148 -1.1086730528829165
P 5.683911649621267 6.184760993865559 7.3520285628707205 -0.22867571493698036 0.956894662624623 -0.4867036577838328
P 1.937490324093185 3.6013022565100234 1.2101965907626537 -1.4567597974910782 -0.9919012606067948 -1.2442460370259412
P 5.2741962324482285 7.159102907605014 11.751869265488176 -0.46316083746688624 -0.28124808971705756 -0.15056045869079232
P 7.3885328456173625 4.571734742378352 -0.06460145150061147 0.8417958871755503 -0.4700925315897129 0.9469095263874531
P 0.2693402175882211 6.902187109960997 7.25551271823254 0.3834658954384041 -1.519332735127293 -0.06984067494222165
P 5.761141290773516 2.9862588929640816 11.077433947486872 0.14763068663850704 -1.8372632678670486 -0.6933337057746833
P 4.885088294737378 1.7858248074607403 0.7249075070733435 -0.9786762772760887 -0.7201060887725211 -0.32539058856222675
P 2.1610745609963486 5.480455434045152 12.075935941062914 -0.6259844297957478 0.04251833297818483 0.29924966850080076
Ni 3.5741298887359454 1.1160678944165356 5.13952381856693 -0.1528464265114916 -0.3513371332246594 0.4671599313239503
Ni 8.930433326826579 6.905137621561847 4.487665446521382 0.5386890497121883 0.3172581892630794 0.48952724327555697
Ni 3.4466032451379554 0.1411358783569108 2.9511081574143296 -0.09194881969517069 -0.6627422061410715 0.10433768027782676
Ni 7.6915872684196716 0.7539525276790863 0.9151813900377859 -0.37993551368764245 -0.5620583205657481 -0.41196708820189054
Ni 4.322453393501535 5.096335705009488 5.814323340343963 -0.2951796121964852 0.31022673633759473 0.29349091164015256
Ni 8.864646138476376 4.373156091292392 10.428031876349033 0.2156962719581769 -1.6227193643457603 0.7891119265182732
Ni 2.0422058248771027 6.094281711555743 5.477207105179591 0.23147050407329814 -0.18315484768704587 1.2588632727184834
Ni 0.6819941599087302 6.224814188847098 9.420757642969715 0.19902318217787013 0.3279578350687707 -0.2572216448954731
Ni 8.571605014419452 0.4282999521188919 4.968759271528233 0.7929768087903182 -0.37621795562673915 -0.9516357282185289
Ni 6.495892442175196 7.762648496256394 9.035640272199014 -0.890016412744835 0.14096715857540237 -0.9869691134125003
Ni 6.272686239570891 0.2612069479535029 2.9990014149402526 0.572615013035672 0.6384259979932102 -0.7784251362283885
Ni 8.565113888897582 2.1875369619164724 6.296550346212515 -1.7663260174265387 0.42915388439382224 1.7188135736678718
Ni 0.1865820553238787 8.510806034744435 10.371852291399097 -0.7407098810658017 -0.5098289309473865 0.00045971324523791797
Ni 6.46633200407418 4.200836993453997 6.8693018140997735 0.2779871595775987 -0.6890553901143036 -1.0111855627577035
Ni 7.52240308915718 7.404041472219331 2.311502706826187 -0.435757762863585 -0.21460406733526266 0.7339512221857295
Ni 3.0194521484736447 0.6723026513348132 7.503077238171612 -0.4913910359571731 0.540457711576837 0.02421516379362281
Ni 4.515923971378523 2.1375811123745803 2.850598057696498 0.7151757413504393 -0.07589510866641767 -0.2415749394971517
Ni 0.5941362227492937 1.6765728950905152 0.23197752037270697 0.5625882249272892 -0.7230600291945225 -0.9082805011613455
Ni 4.338358495099867 3.296440645352194 8.750209624002531 1.8375309197061387 0.32925881326838136 2.2162449022818542
Ni 5.9742327707961564 0.8140544489884015 9.841758767016003 -0.33787020908647614 0.8417236391767181 0.21829257193044338
Ni 4.0686264126896585 5.931127640377489 13.339558920637959 0.5814107569504309 0.7209998042313841 -1.2825395332895007
Ni 3.9195610344054628 4.22031959036836 11.392472979597885 2.1345331869336595 0.8762844078707231 0.688328282140292
Ni 1.9380066636233335 7.421135998806756 3.522347488106152 -0.8774300914393921 -0.09420290583667001 -1.1712084524129764
Ni 5.326466389527038 5.443435733803236 9.343243093041007 -1.130406845015582 0.284422116569665 -0.8351521566067874
P 3.35751623548979 8.423599976241812 9.1867562560458 1.5975456932936098 0.9877486718910022 0.8539826590497293
P 1.48637554102072 1.5241605302091057 5.753758557527264 -0.4722003219613352 -0.1669784950374995 0.07551175718506994
P 3.6645446286044936 5.737435774130437 3.4601765205367405 -0.5280529101545809 0.006401789761285749 1.247055224339962
P 2.353577002254308 4.812957506445348 7.352689661876286 -0.5187714848526549 0.6645342650444879 -0.22084490603865192
P 7.928126095320318 1.9697984261224926 2.737469910710656 1.095101999066701 -1.874274040763443 -0.5969718446134816
P 0.24720769244234475 2.0786169821013427 9.824444796128265 0.0487098065008774 1.4356636389424116 2.013802924230422
P 8.913228156054123 -0.0027236910215346867 12.482294229255107 1.4756396651147166 1.4976794185235756 -0.0655243069550549
P 1.8248176623357242 8.77225824397476 1.5204179906504025 0.7123621831610442 0.1894532791012479 -0.1489332075000145
Ni 5.3367378580374965 3.74322186451091 13.355874327755785 -0.6493081921233528 0.5105313563310498 -1.9294866813798444
Ni 3.7425303383544613 7.260213252026644 1.9512830437922835 0.8225257260920286 -0.8516211007960881 -1.021279713768912
Ni 6.6564463750052 4.9925237984033295 11.033372666902554 0.17686130136885025 -0.4972431238625759 2.3649893908098303
Ni 6.183802077595283 0.6264065213487157 5.397290654400817 -0.29796797357489974 -0.11007612542350075 0.5085377229397886
Ni 1.7879639283713566 7.553798376659975 12.759089098809852 0.8811224526893149 0.49944218839642374 -1.68141944929013
Ni 3.0419036976863625 2.4347160712776836 12.979542105276614 0.24779880891967646 -0.3863401316624056 1.0521036411283042
Ni 7.221386363429208 8.496883308127925 11.557744964884623 -1.052287475004336 -0.9916796315142922 -0.7007541666084706
Ni 7.845133736197658 5.032659976523643 3.1661497411981574 -1.9818883349100127 -0.5031376349701399 -0.7262230003035364
Ni 8.977761376973964 3.5804734886777725 1.4913904887072897 -0.2894062000478177 0.3183627351811678 0.065432518572197
Ni 0.2663777195339926 2.6523900646303953 3.9723890225838074 -0.12732179987782585 -1.0958064813328934 -0.36572631206679596
Ni 3.3132862225232973 3.0464585499701746 6.882027739448191 -0.3849105983047307 -0.6637367088438569 -3.9232355151728697
Ni 9.160167536347766 7.750145703347791 0.4753108222691855 -0.8462305259081361 -0.32116986561265976 1.5767243856728845
Ni 6.476511269097112 2.9739773884255434 1.6215486198392879 0.8600442918627769 0.6993400598697633 1.029980841087336
Ni 1.9753214150253338 2.5500441934759097 8.587474156657649 0.17798538767096445 -0.4402803333242869 1.0053519867950622
Ni 1.8191655885503457 1.8545071853192776 2.3160640133541253 0.23653377752881846 -1.2058592097176264 0.14199328584707158
Ni 6.83801348264251 6.638457474588768 13.26769828856438 -0.26864454202043414 0.8194671417713629 0.038271641886688926
Ni 2.8008837812919256 3.2418285196902104 3.9621064896548455 -0.4025578790728486 1.1303906470656662 1.1791837573089692
Ni 1.244599556028565 8.371661751718099 5.8416911795115976 -0.10466241060709716 1.0046549607280377 0.23755784791795861
Ni 9.233257240910072 3.7253159472332515 8.27804939490213 0.7766384766416109 -0.35924276122498133 -1.590347375772958
Ni 6.013493015784968 0.9802705979874128 12.494615381293285 -0.8402871638405076 1.482698628844027 0.00029207731912207763
Ni 0.05588453378985016 0.7246216762620112 8.30735996155195 -1.23527442965495 0.5192221992368283 -1.3539755777433005
Ni 3.5587042452727515 8.820840261552506 0.11654705230332683 1.0517498573333113 1.282479883696159 -0.017656793849814754
Ni 5.3968729726023215 4.396216183522786 3.750681126651809 -0.7289324288148995 1.8373918230251132 -1.2955351742182204
Ni 5.123757022199888 7.666701547136252 4.0563412200116185 -0.7299035344789172 -0.5544879644176579 -0.44814919454940244
P 7.031391857031972 0.6043330064348564 7.958975538176955 -1.1544114354602957 1.269877107330484 -0.01674250956566149
P 8.255660544060929 4.305819884351743 5.166891657734564 -0.41304412331615314 0.1701036709300425 0.9791856128123395
P 5.770951741846343 8.088283553153959 1.210263899308548 -0.7748860127268784 -0.15642463078105318 0.0033866570840457803
P 3.2733989938193053 8.20342726837713 5.057501440133049 0.6672930587365475 -0.4059260242141332 0.7935177688954528
P 7.200068917113067 8.026765386276235 4.643828649275372 -0.9531776187843519 1.6138107490022204 -0.7054374310167528
P 7.73115178491732 6.706171715828277 10.310072266616798 1.8505931522067356 -0.2496821419853184 -0.7736495692166161
P 0.23069496986121246 6.311891162467186 2.3129742744871105 -0.013435556679615572 0.2908401042808668 -0.5471384660311222
P 4.814635609918331 2.8401624669782413 5.0553291259669235 -0.8680003134850599 0.24599595138298277 1.890193540207177
