# total energy = -340856.4925226126 ev
CRYSTAL
PRIMVEC
9.39477703007885 0.00000000000000 0.00000000000000
0.00000000000000 9.39477703007885 0.00000000000000
0.00000000000000 0.00000000000000 13.75020582213341
PRIMCOORD
 96 1
Ni 4.189337839661216 9.119998758811642 2.6300434513990663 0.6261183842704506 0.17006690415483616 -0.7900094986318782
Ni 3.533169020734817 1.0237488717486078 10.668895007666144 0.8275087811289168 3.702094160939721 -0.31957758142487547
Ni 6.4087881902944765 6.100188548749113 6.655333449462361 0.09692287587099437 -0.3519323436064971 0.4990200132573405
Ni 3.9167953530187725 0.6046807424684916 7.623815665362245 -0.6502600145136607 -0.1300836788936792 1.1253787956733714
Ni 0.47384625671431485 3.559277106580365 7.536528790374483 -1.6364122884518204 -0.342074734086127 0.7889221791049703
Ni 1.909995784362476 3.0736610729868477 1.1596039264397624 1.281571770059593 0.20651511967954111 1.8435807254446444
Ni 8.530654990126115 2.4249986810451887 3.296088999598379 0.2601614442500874 0.20434202328762227 -0.09576896477220927
Ni 0.6576090382715319 4.598611913707801 11.379051853264018 0.27075593193648206 -0.3969983827072001 0.7183693085870725
Ni 1.285477969831057 6.929042767433347 10.656560604677075 1.1367618406993327 0.7127000261164371 -0.19987318888299124
Ni 7.463746511909551 0.8787855805596994 8.57706237107295 0.8814710942779851 -0.3596207133896903 1.5680209443616158
Ni 7.295091471571559 4.7688546713930045 0.3269457624662655 -0.5355160513008456 -1.8991196390522134 1.4856145169392416
Ni 8.753095129948008 6.754722676442291 7.115168335456974 0.5406163486418882 -1.4549854791994747 1.7275249853989407
Ni 1.1203647604983802 1.3796887956170074 13.27626416428715 0.3006768878656305 -1.6973140090331993 -0.17256807331013505
Ni 3.899499568189102 7.128879073306198 3.7858988617350593 -0.6777021698850135 -0.9005522792791523 1.4490901967609622
Ni 4.061578264485394 7.379334438745733 6.472606911830572 0.06582049803923504 -0.08251184265198694 0.14896251807605312
Ni 4.846803137841551 3.187826405550756 6.797661505645988 -0.7300542011241685 -2.259795018958663 -0.06489772911464951
Ni 1.6172075528487988 6.4766842451364255 7.762403660741585 1.2202926115341373 -3.69622201842966 1.4793183995178845
Ni 9.281260109491324 5.761892016466874 9.294328244579901 -1.4102364571185584 -0.594621342103434 0.19173924692194722
Ni 2.748986967648129 9.04806294977265 12.184731035545303 -0.7398812145169193 -0.811241925648093 0.7653991562823657
Ni 2.406199731863129 0.9954893819237037 2.478419263173636 -1.335713546209319 0.7426747181016564 -0.12255548883743408
Ni 0.18354576220384097 8.008728142645213 5.497827376771901 -1.3601719363619995 0.34764785729853026 -1.985482480019174
Ni 6.968397489134319 3.5173576107031295 6.250087855880177 1.3983916419648303 0.31842212766419353 1.7454846552011554
Ni 7.856344856421827 1.700041303442609 13.44858128877865 -0.8100671886137017 -0.6829263943984303 0.35308985424970807
Ni 9.552327616112985 3.3247270989445408 13.696786605078202 -2.271805156045662 2.9197699467672424 -1.2010234788918799
P -0.2118794707686444 6.527556963687574 3.793448504694931 -0.275230422768068 0.10528718867528966 -0.12873153574115895
P 2.637405198814889 5.093801225270592 9.396395922540242 -1.0157520990824636 1.2236162765907312 1.5495467968168282
P 7.407979114435937 9.298067365906467 12.123639617831072 -0.019182229355405676 0.2949659535237823 -0.06389988397775447
P 2.202906147979784 7.479191525630343 5.088786293199936 0.819183549092673 0.4593237231089832 0.2502161601119175
P 5.473265671253873 6.142098649849145 4.716526701853199 0.5793926980791376 0.07974842097423684 0.11817407194028678
P 8.056726059372417 3.8571385177833526 12.030028178830637 0.3417042381205857 -2.2254875039260447 -0.07451056961406523
P 4.652359434082894 1.582794483956304 3.9205551428551844 -0.9576032586558734 -0.6943608614876171 -0.14315028226965026
P 0.3931639100998609 8.346836779383404 8.86313521584233 0.6022418347631693 -0.5497702472270145 1.1128055869940512
Ni 6.327805210809545 7.292799145934167 12.644414665626956 2.35974151214733 3.2298228765311343 0.9767278953004662
Ni 2.691246666962005 3.0526355616078136 12.64079861588174 -0.3572578695844686 0.33772982685387 -0.3695716539548151
Ni 8.089560805694905 8.545010209691425 0.43095721982978935 1.3530001012039088 -0.0813126801375632 -0.983527691831119
Ni 2.217562000415572 7.709570252188289 2.4432189119515777 -0.5803866865612907 0.050993974549363795 1.8738595789338437
Ni 1.4861316213205198 8.603182670128861 0.6663818812231594 -0.9336922563662308 0.6052639094189447 -1.6875541014329583
Ni 4.83801902115728 6.589459150674375 11.22806087302203 -3.2710106636233536 0.17409607991888726 -1.2456341756227192
Ni 5.123629642888303 4.1812677260443305 2.6128002773217296 0.3012852108735908 0.5648361404212014 0.02474609659642835
Ni 2.3604659564417085 5.332588277424712 5.505898429866507 0.21506995122808767 1.2288764965484062 0.9303724479643783
Ni 3.2184721687850772 5.704724797190098 1.7029358342986771 -0.19440008158356198 0.38332936986053984 -0.8975893399960864
Ni 7.380762444880502 7.603503217572873 4.306646664677057 -0.27308612273155547 -0.3585933005664405 -0.1863918665671048
Ni 6.012150091585158 0.7672047512041791 6.906879548535098 0.9687767587741896 -0.34961115167248824 -2.3262994304388
Ni 1.5066310251762183 3.4066965300357275 4.734512063329527 -0.8107971248011907 -2.2562852060331915 0.8017766664701353
Ni 5.554887495588569 6.902746786043751 2.1821991195479122 -3.045057232713543 0.494528038924258 0.6011594003322679
Ni 4.686058499908004 4.425184326550975 0.21777469346316813 0.12336872876734882 0.39798337232828873 -0.9339678786251205
Ni 8.59664390519597 6.2268113558834415 13.089165297345351 1.2815149486797284 1.5349799547462468 -0.2216946556334569
Ni 6.251829647573508 1.668296351275604 2.0400213797995237 1.3058103308919833 0.7333279867794339 1.3046808452732304
Ni 3.9066208093085426 3.684471907579924 4.693371394482374 0.35997295452278644 -0.6330207678172388 -0.4079589954837619
Ni 6.248926661417957 7.01838709862844 9.506080885856312 0.7499563393647343 1.1200144460376646 -1.2769401848248523
Ni 4.345253562112716 4.917451862403811 8.0280992337589 -1.2889564925594381 1.4890304845993259 -0.0651278428475846
Ni 5.456373861843907 8.896760062927541 4.511126808921069 -0.4015083547624117 0.619862633168726 1.0308653005748183
Ni 6.154048806450635 4.824283856887331 9.420390183515243 1.056996193333915 -1.478827833034711 -0.14725016337063673
Ni 6.309645106477251 5.097991295902876 12.106684863413848 -1.2125775022780665 -1.765242811664689 -1.2264054093000945
Ni 4.237204229507588 2.2611913457436494 1.2258474399718042 -1.0821364400449685 -0.5336332324558358 -0.5677211752784803
Ni 0.29586314209203163 6.376413788054909 1.5686234020241614 1.201255649507344 1.4563949579524917 0.4293207489889897
P 1.186043647920556 5.693225589894325 13.605719271744185 1.181800883216842 -1.6780240504553359 -0.9642919835299587
P 0.36035828758670163 1.4568105216717413 1.7482421473573873 0.202449948471232 -0.05866820326516992 -0.8088243173455361
P 0.3801699937511823 0.9233374930090545 5.391153439549209 3.0022133980751393 -1.162419650476753 -3.0767805319587525
P 3.4709098322143244 0.2363895050120595 0.44684284860137524 -0.3049042956834168 0.05897005077630489 0.5288453241488892
P 7.910890932859124 4.534135557767536 7.993999010947245 -0.34812993914127144 0.49042995759548436 0.03670095496545937
P 7.1990768485627425 9.061976614809446 2.279990294925708 0.6827497596112501 -0.46524420235847613 2.858730929277051
P 4.283999614752884 6.947108923993617 8.938568700433787 -1.3980463428102698 1.0704307215722662 -0.6560946189175667
P 2.4810291322804705 3.6591247986877726 7.054281723885756 2.3483224716771103 0.6022750019939499 -2.1506205794138253
Ni 0.34678283452919284 8.519362467928795 12.174610981542845 -0.7084541063558896 -0.05124722821075045 0.33119022596313935
Ni 1.6246294268387171 8.416104471696906 7.0974713936407605 1.985688425382393 4.287407595378667 -0.09360898100641298
Ni 6.044392966943891 2.9861863024550384 10.940612632870215 -0.41908672996580726 -1.5608923037366345 0.4268267789225424
Ni 1.9707142294217697 3.0743938656086374 9.123426913012807 2.154990683457063 0.682973702696598 1.0628994461922276
Ni 7.893519989811835 8.326694377061397 10.09410844625578 2.592226830638387 0.6290296443799747 0.6296978740915928
Ni 8.912674815508455 1.439890527930168 11.284628705513294 -0.4331630055532153 -1.2663639519709031 0.34923448505935983
Ni 7.309146058266392 5.030508611257833 4.1169492023610665 -0.15180847216528048 0.9641760267773847 0.3808130311965893
Ni 1.8773207492524302 1.5491236024628015 7.0157809874324855 -0.6059776476565177 0.5091938684665489 -1.0118211394591736
Ni 8.562897865484848 1.5761899555829972 6.72280579985248 -1.435567479684179 1.959103218694697 2.3053670511615074
Ni 8.962655030225372 4.758219783599855 5.919545772700823 0.28647848487806143 0.9971391119669665 -1.929183548317129
Ni 4.0046459146386795 4.238848315518013 11.026358764396779 -0.28150417159192165 0.6113756787436374 -0.40908359600650834
Ni 0.3756764718152609 4.604586992008546 3.0183079851878607 -0.9819420925115541 -0.8352141201929744 0.20340434196470134
Ni 8.100270851705673 2.897236551902447 9.809947438647093 0.4180562318187639 1.6624102551774786 -1.403819754958937
Ni 2.792155968893287 6.72725234790239 12.760108528441698 0.6712502436120826 -0.10251656790868796 0.12258917028884693
Ni 0.750684035493709 1.225548686056767 8.980644149612584 -1.651489494499917 -1.8914734353608653 0.8730677007056384
Ni 5.912631216679836 0.1896504884299789 10.256155200309584 -0.7022878296441776 0.3812274930261886 0.16458094133960044
Ni 0.2839608988542752 9.091588952551499 3.4191399124403437 -0.2176582807805542 0.8936218707079062 -1.2301988149042555
Ni 2.919511568649405 0.5318101530978567 5.1364309663043315 0.33981319174545993 -0.6046514726459264 -0.665210465175906
Ni 7.609450111542011 0.6816032992465337 4.7533908681178065 -0.32935651518851017 -0.6175802648924525 -0.37505144612246377
Ni 7.508606573051146 6.606754935504045 1.7795521213399201 2.4303098092841955 -0.36271195072050433 0.31940686017496606
Ni 5.745798763119114 9.113732442417621 0.7997116198023011 -0.8775450197507015 -1.337345168275471 -0.6933573599237672
Ni 5.044929594263561 0.48970745906517443 12.5165235635703 0.5400553339320957 0.0704993915721431 -0.5970692894232943
Ni 2.8031102791113187 8.70775593516909 9.696480138029324 -0.8996328527886764 -2.4597836503735957 -1.8530408424162794
Ni 6.332305309089508 2.7700688476903785 4.352751533797973 -0.552646540333545 -0.43343734226052444 -1.3054331500582228
P 5.561830235941164 2.1365978104850454 8.693348104851445 0.006570197018349975 -0.609411613038731 0.569272064705368
P 7.319903078163172 8.162257591687295 7.102517328476185 -2.248898426650817 2.071201516754549 -0.306958092888652
P 7.785047892232598 6.318184958954259 11.163503721997825 0.5332555374014428 0.6744828916167673 -2.492002915418618
P 4.7971705298811225 6.753670461395618 0.14654819010295825 -1.670018920762672 -1.2844524340414976 0.4918882873085658
P 7.2963973456026965 3.9981071497057887 2.2741194986519107 0.021751532744478667 -1.3636637515653418 -0.025571677821517248
P 2.4789153074099244 4.1549341655459235 2.9237204288360927 1.067380621892033 -0.3450181329851671 0.9970725203950893
P 1.4393362360752247 2.245098092395889 10.974479865207249 0.8256102785546233 -0.5827392459538674 1.0950307795091334
P 4.783228680512718 2.569894329838239 12.786288954071706 0.27725850894169024 1.134811401841181 -0.6866786623520109
