# total energy = -340861.3834065428 ev
CRYSTAL
PRIMVEC
9.30315980886484 0.00000000000000 0.00000000000000
0.00000000000000 9.30315980886484 0.00000000000000
0.00000000000000 0.00000000000000 13.61611475808029
PRIMCOORD
 96 1
Ni 1.1088249976074707 6.940557167584575 9.035517092755155 -0.07441389613520089 -0.5616374309782457 -0.3588393551389755
Ni 5.438524822350855 8.92106962219967 3.1171641331832647 -0.0068663881025301104 0.3585310798699373 -1.1317134796421477
Ni 2.0393549396795922 6.591623556942032 2.4181126196691336 1.127052840941685 -2.3243888436796483 1.37169382095867
Ni 5.736942275855024 1.4134569617872257 6.484756300905212 1.9467056163612926 2.0882011366363393 -0.9204757576759567
Ni 8.245371830465366 4.348492207325247 12.91597384808747 -0.24509066595989404 -1.3674887817383867 -0.38069193223769277
Ni 3.227154459929358 0.8549585152458892 10.12285923399726 0.3113631639348831 0.4534739491964255 -0.2914016332112917
Ni 9.163779755456217 9.03205631734899 13.114864238553379 0.37815811007224553 1.0507373569083969 -0.8363222656554887
Ni 5.560368304863063 4.1149363832075885 2.538139195093105 0.7433601742044553 -0.8216623496504687 2.5459336039988023
Ni 5.799692087990997 6.074098086324973 3.2427595800000595 -0.2897478996579526 0.5469494899487677 0.9510055508336976
Ni 8.758506209706862 4.2796581287494035 9.389182290418061 0.37220420648165575 1.2794917476021126 0.7166063031493787
Ni 3.1451191977477397 4.38343487513588 4.413296157121654 3.0861938548528527 2.082831387683994 0.3517603368050071
Ni 8.261103473507907 0.2384492861166987 2.138342419455602 -0.05907598022654986 1.2722731183664864 0.4349126412544703
Ni 5.304587232236458 7.09383602670278 7.40764276697275 0.6666775366397356 0.08837627185256393 0.9372650613191537
Ni 7.452444923427074 1.582504676586747 13.537141169275444 0.29193205179346493 0.5397311178234575 -0.9954498971900018
Ni 6.886440687644626 3.454895809238272 7.9482847287974385 -3.9862943913065667 4.341357824342878 -3.180467723136774
Ni 1.9139018312061156 4.365144863177492 10.270499448024937 0.06494143786839138 1.8820056050797458 0.16842139813161314
Ni 0.6190117790868742 1.1270219779689183 5.107854244503587 0.30460656193733987 -0.09213933843942196 -1.9307642625406878
Ni 8.9718090551707 9.264849282371742 9.358478142164012 0.7982655679930833 0.2797761331572214 -0.8539325225380843
Ni 2.8747786802000377 7.269414559607483 6.7717020281907185 1.2876223471290469 0.5808404862692578 0.5560110859304037
Ni 6.945729724374434 6.070823374112688 11.159862908451148 0.9903367443331524 -0.41974750347825773 0.6209430107170982
Ni 8.547612882603765 1.0270967396957544 6.851424524872411 -0.9998297714252524 -0.41357274212611356 1.4626507090542165
Ni 1.330872813183662 5.625955580705704 6.813354134772658 -1.311468300508709 -1.1524059749944928 -0.47273613986014706
Ni 2.6668530610393257 4.308200222690569 12.574740462723645 0.3973686215624253 -0.4505889143391466 -0.18534208514635178
Ni 8.76519518152684 2.50711780909349 3.438178031268169 0.11376283024646859 -1.051167245356964 0.14808037258141596
P 4.452631776939789 5.97550319988805 5.836057208918841 -0.3619799576504863 -0.5705151930838497 -1.4500124514649158
P 8.134208375281862 2.539288135315313 11.535300290745903 -0.13583266556231446 -0.2775302745458382 -0.4854656716116736
P 5.4251282723915075 7.37601016338124 1.4658290992845513 -1.027983608151649 0.1042338077101108 0.14422500339106775
P 0.46713862739843076 2.8934780311849613 7.799187639961682 -2.080261312963972 0.10658610999237127 -1.8945759855455886
P 0.3015433151613497 5.410447886394388 11.377720580901164 -1.7857265334403374 -1.587840550190704 -0.9817443746784512
P 5.527900277531032 1.4893056227723391 9.474759265495182 -0.2473907748479804 -0.32555462494391674 -0.5345148637298408
P 9.1120914001964 6.386740071001255 1.5722116607013146 0.6176936505418652 -1.0432544182677903 0.00016197949916101135
P 7.803890387186995 1.0325856039152095 4.772571160080037 -1.3238839005642424 -0.1410797728938667 -0.03637133954018252
Ni 1.1335993118725705 4.41245143022144 0.6519682223028395 -0.38025253070742904 1.046379079939701 0.7981701800657997
Ni 0.3779213259330514 8.240413246348469 3.7423485587271026 -1.7116399387375683 0.3129266517672611 2.0091952502550816
Ni 3.792842388282211 8.845732634997725 11.970539313869605 -0.4024583773805069 -0.476648844650992 1.5365912650974247
Ni 1.7339415100855422 3.0466359492271446 5.895927693129523 -0.17356334734386883 -0.7455260715075226 -0.709320825231559
Ni 5.432580103306394 7.032881724387747 12.845796393251815 -1.1108649183279127 0.20304927261812775 -0.6563684414042438
Ni 6.049026070949666 2.5653090729794075 4.0190142945507485 0.6543426692234666 -3.1068801795576104 0.7546532306197713
Ni 6.350150743924785 7.732646790250407 4.887789862574154 -0.5520778123142686 0.1952230917054896 0.8026433853458047
Ni 4.511074226137445 4.471638132194614 7.56141004197489 2.6585034423784344 -0.3052233695857324 -1.3647006774702883
Ni 0.9454708165406722 4.398552509638616 4.130883859555029 -2.6043092157242183 2.2330360056972642 -0.20393347499529393
Ni 1.4428456432605452 8.575978216510746 10.713825707870626 0.4993126047970949 0.386191007679051 0.947389037127033
Ni 3.8874834318491875 3.189281296815118 9.742425124630861 0.7317177048695205 -1.2839168732530017 -0.3851021454902464
Ni 4.287175081782149 0.23460429021517196 7.597110917300583 -0.7032419660273308 -1.3351520172788942 2.0172669715196228
Ni 1.0710448660901708 2.451168606693825 9.691746162197841 -0.5045054618519441 -2.793252902178899 2.252544765154153
Ni 5.925266137540495 4.350529599298231 5.3533116008177695 -0.3175775202757111 0.9903130901840687 1.1029412926054618
Ni 7.129671797844036 8.382574829632354 0.32363552848667154 -1.1244979357303149 0.6566494629797723 -0.10288397855043573
Ni 8.753882539338948 6.6138767149300595 13.040057531453993 1.1081989414599753 1.0792267225973413 -0.8311921435177749
Ni 8.48977513878622 6.707475804611309 5.023080132108058 0.0677349414531285 -2.3551870600074274 -0.329882048674677
Ni 0.8773251717821837 8.232254375296838 1.6799013160550837 0.370325244291388 2.2679004216746166 -3.795693371754121
Ni 2.3538110404962027 9.300592021916056 3.511963251433156 1.0783849434223365 0.152239389055112 -0.7115952230880326
Ni 6.365593989016811 3.8266779800892587 10.409846825501392 0.0741650133491884 -1.8928062952396758 0.8782829263579907
Ni 4.419670682143977 9.250178199534316 5.263077463997837 0.7140526834895896 0.2668632817502952 -0.6033877754421544
Ni 3.882180630823612 2.541520893641871 1.9648868675930673 0.5822563927801778 -0.12879144244481688 -1.203664773169469
Ni 2.146592461472234 2.551419455556278 3.6320437851833525 -0.9283165938766142 -2.2748138609649984 -1.173184602302741
Ni 6.1955973519285035 1.3789608456419047 1.765015924095413 -0.4867314256979746 1.2483279204047986 1.3655884793918804
P 2.778304914173345 4.410702436198969 2.1214450905034052 -0.10575127279590174 0.6846266649189887 0.20659816631165065
P 7.659830959325536 8.11644864342603 11.618344945754318 -0.30953742358005404 0.6052703371768479 -0.24777078389521845
P 5.063421423489114 0.7402589290626973 0.14253929156746167 -0.9247365898348395 -0.589778669299152 -0.8338378086707382
P 6.090787954815994 5.482342704509556 9.10727422410685 0.4646723890154062 0.3466410133005708 -1.3031618375255427
P 7.769822216387597 4.393305527571205 4.239091700903753 0.25713988381494424 1.4012576506587158 -0.7883467662174746
P 5.6057863304891296 4.8881871074930885 12.296182464218239 -0.2666740485576246 -1.02625017040031 1.9804264056525056
P 2.2887075289576493 2.2724363026528582 11.705610444315898 0.025752683484071778 0.034983972274352654 0.19968369858000448
P 6.6675094305659215 3.570161957846828 0.9156402349818882 1.4316264927585602 -0.9812545795262261 -1.1167432314855605
Ni 4.249246099709745 2.61386226342235 12.76468493482781 0.12825742431821785 0.5867105718967894 -0.4754373408413941
Ni 0.45241637718268907 2.187033296662015 13.179445842833099 0.8420411704171369 0.17657642313857977 -0.20923946058923965
Ni 2.087722066928655 6.397745708919246 11.573588374782494 0.9387377892099382 1.0051990061569658 -0.2726361796783304
Ni 2.7759233052916836 1.1835479762696113 0.3478981689686016 -2.741709482883969 1.6499393764039778 -1.518156969651637
Ni 4.615651044257604 4.434620859772222 0.6862345504037187 -1.3170370528457382 1.4012465949151223 -3.2591745902203737
Ni 8.462684337757317 3.289076290852566 5.897656220200667 0.11827228808104795 -0.1842113139760182 0.846852218652535
Ni 2.335232630587301 0.07091612571535916 5.982103791690937 -0.7738868820384027 -0.12344637608281965 0.6376474679559728
Ni 0.3585819175611816 8.000224269368994 6.773077035193491 -0.4371477012325762 0.5385070156083693 1.023676753246179
Ni 4.033719799079042 7.269926233390653 4.030396710436348 -1.8654150477109162 -0.9618466073132595 0.5926871011951986
Ni 6.6421490172401 9.028037352361187 8.191672132079708 1.2288407582144643 1.2815458019176638 -1.1693238337957539
Ni 7.924152332551225 2.1298095613842727 8.876984739357752 2.480294368732438 -4.650347602949578 3.8693418504782073
Ni 3.4512954864366976 8.69079781345399 1.2248567962588421 1.4716102322403495 -2.966218725148085 0.8586895776070952
Ni 3.1032177664860017 6.377595065022061 0.06941087447687132 -0.016237030684152682 0.49372456918635615 1.2765182667960853
Ni 5.452842385119908 8.494445324952602 10.043722836376292 -0.18261311625096294 0.1929839179623257 1.0076263846515356
Ni 4.229793192789608 5.208290226243951 10.76185047884295 0.42240345304386606 0.6347359507361326 1.3941356949019539
Ni 5.765130849727818 1.2952789241944502 11.711683546964137 1.198264428089504 -0.8845173373034767 -1.1551334012279848
Ni 7.745661910662301 7.345653953299745 9.459564414766987 -0.2271705911463636 -0.6038019801614375 -1.0736086050796154
Ni 8.04338162718942 5.634309818110908 7.33053445816507 0.31824086489132286 -1.4832146492484972 0.690075860959018
Ni 7.472381594651298 7.3354204776363545 2.5563845518849613 1.435339165723457 1.2927681529960446 1.145266535736234
Ni 2.3828275955817624 3.8149466957151352 7.8412481552541875 0.12903364036261003 1.3829413688480312 2.6129535216627775
Ni 2.3158727552641047 1.4625590386521132 7.924415611970565 -0.45566889996521526 1.9489206217347403 -0.809068057925226
Ni 6.946269307636686 5.935611251120213 0.7188244491277407 -0.636702330433884 -1.7400264603000615 0.4346617015859289
Ni 3.4636872951490942 5.9211541409557515 8.803185564453225 -1.9784584832928571 0.9123585278854609 -0.8895122194149068
Ni 8.485365441091268 4.336835348228676 2.122234928761425 -0.8696856716072827 0.9734510243214074 -0.7524477383280203
P 1.7215124887343694 8.038757956821508 12.998256574316947 1.133881433827744 0.665556535661415 0.5776487188048375
P 1.4445946372830156 7.049794868711424 5.124465966453179 0.41520359286131714 -0.3462545764954295 -0.7611570931765601
P 7.419400100194016 7.466604332481329 6.744347947742476 -0.05201521672502655 2.435372568519083 0.5487011825325517
P 3.628855592356221 7.3608460130800335 10.315568605162479 0.23934759282852971 0.8380366772434342 0.5128186097033297
P 4.024305001468722 1.3931574673349358 3.6597941802345595 1.2396643311925293 -0.9038232367209401 0.9931611011558251
P 2.070669375209568 8.864236619629075 8.469917544419395 -0.9218101602166642 -2.150154181300368 0.13812763224407823
P 3.80917873670486 2.574779689547891 6.65938312057322 0.5336985384761325 -0.4085063833467997 -0.21801540700965677
P 0.9000155782758292 1.3214208029345667 2.0122027377967084 0.5285784436407478 -0.27465115322583017 -0.5777325367678954
