# total energy = -381165.0807638014 ev
CRYSTAL
PRIMVEC
9.26304700638980 0.00000000000000 0.00000000000000

0.00000000000000 9.26304700638980 0.00000000000000

0.00000000000000 0.00000000000000 13.55740561699591

PRIMCOORD
 96 1
Ni 1.2333006041059105 3.296505378373459 2.773939844732453 0.4714354187708526 -0.6794458920489976 -0.16021700794394989
Ni 5.048332827626961 6.365593689770275 4.704636731618597 0.17171626683280106 0.11006609812117174 -0.33849138761024283
Ni 2.293410018392168 6.322955884414343 5.452761165007395 0.13635279973184258 -0.4266198051180588 0.4400461058262938
Ni 4.200921498629191 2.4459075612065737 12.469803645507712 -0.02026749199978445 -2.404349894885324 0.6823265560309023
Ni 4.710713290452724 4.5817531500735615 12.206315347195737 -0.8094406107732962 0.5063882806969537 0.3546443432210215
Ni 6.345381721209196 8.45759727717091 1.2606886551804017 1.281993945198676 0.9747149786354955 -0.22882329625843814
Ni 0.26029254709585625 8.769789750321241 5.517673819492027 1.0514752635156859 -0.2569552786079639 0.6078771786720757
Ni 6.415502987023753 2.1137995369992675 2.4656989874337047 1.3559098186515357 -0.9661766021471812 -0.12779976795550893
Ni 9.192842370006398 5.270247644683677 3.6187019422872946 -0.4122969607374835 0.529350803030398 -1.8134975329060188
Ni 8.679586198603651 5.108468528772021 12.05289983642331 1.1604355301671885 -3.182416362222713 2.293347915213444
Ni 6.894708197642574 7.412003057538735 12.304050682431663 0.9434951013892654 -0.0266062897336187 0.8298515703294805
Ni 5.489735543425543 4.494699034337075 6.499298362824499 -1.8549699411181924 0.7842481706680686 -1.5736735146617027
Ni 8.665923204273867 8.740509258743987 13.145464188494833 -1.3334849139891163 2.056419473349368 0.8525263862191769
Ni 7.3169271430974385 5.21505841063835 4.9007715625605845 -1.405091165472193 -0.8991870235005095 1.0658690703435127
Ni 0.7421303156729991 4.739928940700956 7.413040518803098 1.4208016342289143 -0.5461881863027109 1.1084133714636266
Ni 6.105450277731171 2.606723320229893 4.752792534074361 0.5017664656542261 -0.08594503670325199 0.10287266569652606
Ni 3.341866519548345 7.731272498599545 3.55415517815929 0.13646567116062303 -1.0787610958148326 0.3716282793735277
Ni 5.433721898196927 8.655622696006258 7.898598327056744 0.5420638797216922 0.7904026203052389 -1.3506434280462738
Ni 1.392856588736788 7.892458779502994 12.49598286894828 1.9990427352021123 -1.4491909840048849 0.15965367924131213
Ni 6.4530831687159145 4.555742514088452 2.8669436155591232 0.5338589753133967 -0.6292885544683162 0.2688764555255821
Ni 7.084461715504027 1.7087264915474079 0.048794026394288 0.24578512092375732 -0.47844116066472436 2.2609754124200094
Ni 1.4964915586090817 8.89348848000256 2.9829271533914414 -1.170755681146274 0.9083365512102615 -0.07095859059674876
Ni 2.839475902280404 3.769337612654048 5.847606880262973 1.3718853681441856 0.22707571743971217 0.4407827268820022
Ni 4.45162586577199 1.3228835316742829 6.070396128956795 0.26895230306884005 0.12047803748311509 -0.3383255514563399
P 8.228318337746613 3.9886031982678363 6.7223312296545075 -2.1454158952844344 -0.34441546640416165 -0.5052564810853557
Ni 5.433258745846764 3.2261154841958075 10.35564840750352 -1.5906145133914156 0.23097865203854412 1.0424352648006048
P 6.851329348526383 0.5980454721469396 6.06367208313714 -0.6067901162554841 -0.61772321822822 -0.09776028417062518
Ni 8.940331708697967 6.211132380991182 6.0437556057754644 1.545261539177913 0.5822972733204422 0.45511405590300974
P 0.08133233160258314 1.0056704870481927 10.314012863833339 0.4964324550358224 0.08320706894679863 -0.673660138605156
P 6.791008386441258 6.94072701515469 2.751515860547 0.4124687104286574 0.056482251357444654 1.0077590535746581
P 3.2039304866230385 1.058719957235771 3.9716694220412063 0.5070565104085719 -0.8351688687773359 -0.18204978754832518
Ni 4.131439383057859 3.0534708141493465 7.99667268981299 1.4897213400187634 -1.0962242855966025 -0.11726158742834643
Ni 0.12476490639139352 2.5270611160019945 8.642846175274684 0.7227622954484456 0.15120220603984927 -0.6884460386650789
Ni 1.5589059693169396 1.1258955741032963 12.161710996961014 0.18923782065633216 -1.4124303794460835 0.35779291615233216
Ni 6.861083337020799 5.307272043555643 10.976292935424272 -2.178194632377352 -0.19549177198584397 0.18953092641671876
Ni 2.7224095142534064 5.994914337841461 7.879116286599522 1.838209948051034 -1.1809956137067275 1.2033855513661533
Ni 7.690496565691265 7.7276228580802675 4.884149951017964 -2.730037188752363 -0.518987457518203 -1.4085233310821936
Ni 6.301437826225808 2.6595319511953863 7.182713928762737 2.39242511842328 -2.332051502431229 1.2196305524701059
Ni 7.121495377422997 7.210318735137103 9.135373500093571 -0.754812896126087 -1.869865370172786 0.6087927485078096
Ni 2.1841153268008924 6.855618139288885 1.6014140920148263 -1.0013423514150366 -0.011237006366400003 -1.1951662487801546
Ni 7.405111350568322 2.7598507502405187 9.722096749888445 1.934138064108927 0.6420692511727524 0.9385205309928095
Ni 5.349733851018514 3.4957998346482535 0.9202105417009642 -0.06593336946801548 -0.34465277922594834 -0.582404488322268
Ni 0.5718569856593683 0.23802232949065708 8.11231812642969 -0.006846590608188209 0.08706809456410167 0.5415278047125641
Ni 5.277797027991321 -0.12694357504655654 12.861951035171245 -0.995290745904318 0.106557570747281 -0.16444518709268455
Ni 4.940214543005098 6.020026458267254 2.147642079225619 -1.1743696237497776 0.2479106519071924 0.9591850013206964
Ni 8.733932495371684 1.7318377938205014 6.224530452176674 -1.986270266027792 0.7963228424444156 0.460379160956691
Ni 0.2985711625320617 6.5323285358286665 8.829368742341407 -1.1050673378095293 -0.155130594559978 0.3447610226690385
Ni 6.989006016135598 4.83696862110694 8.75736522537579 0.04749727425001497 -0.24408922127857316 -2.1595155679106095
Ni 1.0861015241773602 1.4409410657306276 4.535047014473805 0.6627064678071297 0.8871845997229947 -1.7024289616622614
Ni 8.930364670122476 2.4738263848743514 11.794725748177095 -1.2100560214077933 1.1309352067152265 -0.05154779017030477
Ni 7.652657018683014 0.8370256006977322 8.620910353666302 -0.8007605665007951 -1.673239484582499 -0.6431812532900084
Ni 2.092642737643858 6.219191231884004 10.703002480773465 1.3434253130312799 0.34742725664729196 -0.7659501436898293
Ni 4.459304931737679 1.003743773271518 1.5989334480273576 1.1166247036298254 -1.4521750063338732 -0.770240543535067
Ni 4.26636492570711 7.832072976088846 1.1025601060927241 -1.8499465197616722 0.7474274022952934 -0.8135186374974119
Ni 3.4055962829306634 4.27304358259645 9.877695560839538 -0.2192881030744933 1.5237306070846726 0.30560312152265434
Ni 4.179421966534663 2.7483645719564964 2.955867014180865 -1.5824008672323715 0.272879148927072 -0.25215091524078515
P 2.6885067622215337 5.855829687087752 12.61583002368565 1.4113888255554465 -0.6190555638863984 2.5347981562072732
Ni 0.6761681579628988 3.79195797343597 5.215900421610944 0.6615918945867122 -0.0005003366751862351 1.1805320438067475
P 6.553892909252219 3.325850711279736 12.456855758406578 -0.020055118878662237 1.1430849547038828 -0.8848245841312503
Ni 0.5303687244365388 2.5654193936424274 0.44598143993228584 -0.30657397007635584 2.015916628139315 -2.881974987406656
P 1.3378248264905155 6.6886517170554125 3.5884692094781068 0.9244565967005756 1.8128431871514712 -0.23297048565759235
P 1.2213142212837127 8.952021674016061 0.8345829352029768 0.09045809408225712 0.8795833903369691 0.10884662389177382
P 4.107364723896428 7.206446781489747 6.531741258648661 -0.003066811850781815 0.39242978949991125 0.5242330221878584
Ni 3.3360863782183205 4.7708582546447875 1.0217094529343096 -0.9139649531406325 -0.5889065511068439 -1.3848151888319762
Ni 8.155899836275252 8.524596896145372 10.791260792620372 1.5428130776374203 0.5034081150227072 -0.8720238328221562
Ni 8.717101538966789 1.6057028827773283 1.8816592423556702 -1.0045330904381926 -1.6996092328252794 2.5035430548477335
Ni 0.8393024576511295 4.461509536924452 9.961981878131455 -0.753616818935457 -0.7229492146482711 -0.20761143806751342
Ni 3.6725295084231453 8.031154382282566 9.218588082847214 -0.1457776925901683 -2.535569487155659 0.46052597094720044
Ni 2.4321056211717402 1.7613405985258337 0.9820645380651258 0.8528521449897118 -0.8368747957248491 0.12489827803799781
Ni 3.335706593291188 9.005858503198914 11.203541414945457 0.6000481695459601 -0.3086233964062169 1.0253315152407825
Ni 7.809119145614807 4.258658070600411 0.9246799618800293 1.5037269102692359 -3.2624242075059233 0.5554801531275981
Ni 8.490323622233369 8.268306911659618 2.0259098944230876 1.076464843581488 0.17653117172294114 0.9453313832670558
Ni 8.371117470348624 3.1917125276257594 3.871927710824376 -1.9231777084426815 -2.2063263576165615 -1.4626285975670295
Ni 8.054089686662598 0.6238124899958635 4.02899008320198 -0.8786169126586417 0.7939124332307101 -0.3334126875357548
Ni 6.786497282550679 0.9936099998499691 11.557295327389944 0.882134696003913 2.0620026238641005 -0.7661961982623643
Ni 5.995386753238625 8.706532402336087 10.312968918436072 -3.8989077370607816 -0.3913113596247519 -0.5422286874343307
Ni 5.271368473371069 8.795494705755242 3.6369501448836847 1.5508068944761744 1.008280730406083 -0.3265596691696634
Ni 8.525449096469671 6.490579982985046 0.4082826912384834 0.040608517549981675 0.7376703229085296 0.2433978516385034
Ni 1.6919789025655425 1.6823268075881626 6.736146137955145 1.0337097120021488 1.6129823395636542 -0.21566156206549958
Ni 2.076432405388181 3.227495678199291 11.63840905108325 -0.42883121094708077 2.161093196810375 1.2959946303531422
Ni 3.055934784652209 0.6022082854701974 8.136422427341532 0.5775510168847086 0.025933946256942432 0.008343743979004985
Ni 6.336720772261163 6.540072443123378 6.795487069667327 -0.01719990881805425 1.0480492685532725 0.4969736722512731
Ni 3.236693883873513 1.8356394985388538 10.286017156875435 0.6379333746275078 -0.2765511984620204 -1.0211169629388028
Ni 8.098376314385108 7.9798556279786 7.386345343644449 0.7463953614863532 1.4216575544713064 -1.5196577225668797
Ni 1.531700400268412 7.695804291624124 7.223412978380889 -0.5318347457945164 0.316589445330829 0.2314334801877756
Ni 2.6689895221856985 8.991556358625905 5.696740560025838 1.2026417312215933 -0.5669084495691978 -0.46667656392962853
Ni 0.717372969947429 4.8085218037599775 1.0032537580850465 1.8473080536975606 0.40030662114482674 0.04000919340308594
Ni 1.1854384402401488 8.281210336135137 10.053453540983789 1.0555748875063564 1.9211023139708912 -0.09382572500290938
P 4.654273545061959 4.201977485987562 4.350246447844986 1.0338871181202776 0.9579734975110986 1.983105238036249
Ni 6.375412519593713 5.611803976834293 0.2917470758047718 -2.5579296000184137 1.834946189698098 -1.2832938949570223
P 5.621067023837536 1.4410522222946667 9.147330241165358 -1.2318911150050138 -0.31371418066556295 -0.11000901963099119
Ni 4.829743444444409 6.789896820800869 11.997395658779872 -2.0387701356987207 1.2594926787723661 -0.8930927376773136
P 2.1426724545083786 3.2759136248852476 8.282232976524295 -0.8443893589343393 0.3761660193428812 0.3513756997720787
P 0.02397739716789705 6.7469070196588135 11.19372629034082 -0.021556643124853198 1.3692157917318224 -1.5619526266803485
P 5.141639500090637 5.9747672106094045 9.630651949872421 -0.36196298836962176 -0.040385345795582055 0.521020943008464
Ni 2.878834588997188 4.916695666663861 3.497308785005082 -0.671355144621063 0.6308260741587652 -0.7728119038066691
