# total energy = -340890.898426165 ev
CRYSTAL
PRIMVEC
9.08879183641221 0.00000000000000 0.00000000000000
0.00000000000000 9.08879183641221 0.00000000000000
0.00000000000000 0.00000000000000 13.30236556174643
PRIMCOORD
 96 1
Ni 6.739366233636623 1.9997977257284631 11.614747645461032 0.1416760117169689 0.08654230396761868 0.8954272993477612
Ni 4.479520002808638 0.5239924662764126 6.21737875478594 0.7540765321806948 0.6777669616846779 -0.17806997696497073
Ni 2.742715550656289 1.5549468211396154 4.757444343216064 -1.034320091892638 1.1455426722157562 0.5578005737306587
Ni 3.306466026883329 4.298007745876492 4.752749073478387 0.9590333062341806 0.06710656384051024 -0.7585381674964743
Ni 4.942484869045162 4.197249402260761 2.6090194263023823 1.1655103735869345 2.485229087029894 0.9093613929303501
Ni 7.082422672367977 6.109267578770323 2.637273752731953 -0.107747220180008 -0.3744791185587615 -0.01192117691761818
Ni 5.376892752092024 4.566363406493314 11.488507965731184 0.2732910396535099 0.49655021156060936 0.37654371439727413
Ni 5.895417401345234 7.812752520937531 12.657492889659673 -1.0761691667179403 -0.8534730664031623 -1.9868963296475652
Ni 2.026855058305049 6.691868208764188 0.2927027155399516 0.6728885505464539 -0.747888401092112 -0.0912348243472816
Ni 2.9356705962058083 1.4544247861053388 0.2472732996344066 -0.8323419408515019 0.3426120946468358 0.10335166221547362
Ni 0.4508458715245268 9.203219480592942 4.8748379020870605 -0.20469272175882167 -0.13687447656326748 0.3181537044941553
Ni 8.416848143052198 2.3076532746146303 1.3923983278692247 1.7959970621284103 -0.3292786107627232 0.20958835928822614
Ni 6.528669866894797 0.7140318274824426 4.543383305825984 0.027630103012442737 -0.3838338203007841 2.144548405077816
Ni 0.6303767718890895 7.610754127751564 2.281502094560008 0.9335940402254697 -2.2234540184357834 0.5998843902745863
Ni 7.640529009014882 4.160030800681614 3.953383490595102 0.13649703861919074 -1.2031580087363796 -0.45817778242999807
Ni 7.611635740536222 4.107815692971676 13.077462318379638 0.28694899675657676 0.11105982949300873 -1.1803829198233928
Ni 7.907166888020358 8.942780157454859 6.826547740368611 -0.10931482177744399 0.41274947489386976 0.16814629009335558
Ni 6.913734700375556 0.46898073739287144 0.4327882603847348 0.5759728737643113 1.0679614340961672 -0.04547073073828943
Ni 2.0379161176754574 6.324517430100953 9.301545663578008 -0.24971042412009256 0.135405862437541 -0.8305699365527437
Ni 9.130963587417309 4.765362498453122 1.5982131046456884 -0.05621639929056769 0.4429673932381468 0.18132396512589416
Ni 6.545784061467088 2.2424321061330783 7.153453396436681 -1.2436911929637355 -0.8182810918830616 0.601145516375197
Ni 3.4531682120088494 4.400392983187624 0.5007006200573945 0.313064462896706 -0.4745107152620667 -1.2999402452644515
Ni 5.989422772806311 5.688011177160588 4.99232416663232 -0.7974911517209039 0.9994644176660336 -0.4349653488692767
Ni 5.439414549470033 2.8603517802628566 9.653433681101657 -0.30072111084000464 0.3385790622280427 -0.7792653727414967
P 0.5718585872084214 5.4572194922035 12.623226327590395 -1.3450150261159028 -0.9283381911431688 -0.34513460395837336
P 4.050728992967128 6.133561918702206 12.50056490511127 0.4587699074880422 0.42622565500343373 0.8514321247137338
P 2.3848807367924105 8.646067467063451 1.3281596577590293 0.6149824222582893 -0.00311514859021399 0.04650405709881023
P 6.1671631812267735 8.020540474369144 5.829734522250685 -0.5522727019338941 -0.7456003763888837 0.5259422915694812
P 4.994072850135086 1.132772451578843 12.652677647872949 -0.6376197000418309 -1.0392129012085651 -0.3196943095083978
P 3.9635038600354875 6.068158974388766 8.142244847093373 0.4514751735988418 0.5395609107941804 0.2753592350364484
P 4.529744665159399 1.313003188896176 3.7187027117147626 1.444090429553526 -1.6921232088608793 0.8173097291087278
P -0.08684613032215381 5.8680237834796545 3.643198484423285 1.6595324194090515 -0.4826770531229429 -0.9545796413382011
Ni 1.0257337529713682 0.8586035998582311 2.6943140998993687 0.7569916489449608 1.233766477650856 -1.3636976901270708
Ni 1.6247669181679436 6.729577605089434 4.765466110677298 0.7647489242928766 -0.08889074959513724 -0.8655166278312577
Ni 6.237728559165844 5.5004548738181525 9.029978024011717 -0.8748139939727838 0.7897444178959496 2.171561957552183
Ni 8.834632626272866 2.246249398602734 10.227217274369776 -0.04085585767409738 0.07673328829699688 -0.5205856552432583
Ni 2.2686714474661662 5.422109490274258 6.769547383884211 0.28784476909796874 0.34978778645966857 1.0193896958350508
Ni 0.8886547803860187 0.03427474198171426 9.089146966170546 -0.374336165222994 0.17360654187697844 0.4490087143362202
Ni 1.2697132745319573 0.8793814863222328 11.478491208514974 1.7794041907667353 0.19758362151786618 -0.29070203604110584
Ni 3.9147606707146174 6.809349928913651 1.7471593124158706 0.5291237746212565 0.42194142580578303 0.22475992482234194
Ni 5.401714241936383 7.890134492572416 8.299984460731157 0.4950425166668313 0.22164709022497311 -0.8605127468587631
Ni 5.406740343688096 3.042827449104011 4.791192844164462 0.01986074347966902 -0.10507944353985774 0.8025490258597856
Ni 0.8752615370924827 7.5103956909659875 6.995913736213975 -0.7170253929646683 0.42955549070761506 0.4285445329445974
Ni 5.2949482070767395 4.633793151332309 7.080117754819631 -1.2491092786555131 -0.5096103871786771 0.028581925402750775
Ni 8.266774016245147 7.545360272229718 9.055612051824617 -0.3556056786930263 0.44255730228392176 1.5185218091902235
Ni 4.63307513679635 0.44673137556973325 10.536244368492463 0.1053920896842701 -0.2680382758950029 -0.4899576459447562
Ni 8.05124241237509 7.313450665906518 4.829330322573804 -0.5617107074183423 0.5440870807993081 0.4227844905323686
Ni 7.363602617924523 6.528769843602335 7.227786987370798 -0.5349704632100206 -0.9947238176572545 -2.1090144738372647
Ni 2.3039632252272964 5.0088603140592065 2.38281303670468 -0.1427982982468702 0.39071743479449483 1.711945385793129
Ni 2.4855572812837923 5.0787712990034795 11.36655183347979 -0.35531848646991065 0.1850590066882942 1.1834052515894844
Ni 1.0465107305562105 3.1927016224959837 3.793102650827519 -0.7174470538831192 0.11156839369831108 -0.15902864406280354
Ni 3.6670093006423445 2.4782589816334735 2.2692640366781225 -2.3789291408193742 0.08124763122758265 -0.05387335297968786
Ni 1.4494350395200026 3.48961426630247 8.234722392687429 -1.46323357814088 0.3056987665602542 -0.4180240930292478
Ni 3.4995392267235763 2.8406836352525335 7.011463749752867 1.0309866566440309 0.3738371140993884 -0.3403022155667365
Ni 3.8938655388390475 7.3209125638055355 6.125899158508951 1.1645912042067748 -2.010339905382486 -1.0649509294046173
Ni 0.8473971198223123 7.305797903384017 11.429551701295665 -0.329350087430607 -0.47063786257022167 -0.4504001953671082
P 0.14043364556284946 5.845129117453312 8.178480041422004 0.776662902121643 -1.5473148221625157 -0.08348063432315947
P 8.496747709958738 1.5419952931175678 8.038725328591257 0.6946269706648102 0.48005581345001186 0.6662144809603882
P 1.958125616268051 3.0566242347443393 10.420594039849275 -1.049909718800779 -0.17720917162657224 0.916411614908912
P 3.888412263882396 6.210198609426349 3.977354269546223 -0.6213114498001105 -0.007914626861386368 -0.8300917113647445
P 7.188934221062975 3.7942796493389963 10.4618580625671 0.708474932291496 1.7267672812973098 0.2634388294497786
P 6.423894277394332 7.84493593197337 10.25527255626343 -0.03532155811942949 -0.7623925082455579 0.7768577917412685
P 2.2993188527225477 8.709888961639463 5.83441706768013 0.3738944496998851 0.4267054228533296 -0.10956087634997906
P 6.9796193506435005 3.8035774831400873 1.8609346233531292 -1.0274670735265468 2.072768861241669 -0.5395861076051611
Ni 5.429153303759934 2.774271835072112 0.625454282361552 -0.5045941649110084 1.0985159098442567 -1.5735565294678642
Ni 1.6050896843660258 1.2891905549187976 7.1143706837015195 -1.31369770405986 0.11010389333764263 -1.0102548234133182
Ni 6.820447343450437 0.771012188625335 9.525610733876064 0.1678210455434529 0.2613660060811499 -2.2993740668028657
Ni 2.829568043132559 1.5769053416317318 9.162536231658002 0.24047579289570198 -0.09357504244468401 0.7698973012630353
Ni 6.370897533607274 1.8039887996182957 2.504741902581292 0.56318986306703 0.6477917554788263 1.212114703709035
Ni 4.2757220288869755 6.945918111411395 10.373144185572292 0.6079846507842174 -0.5245914339685417 0.21053092570715354
Ni 8.06972901447814 6.8872681392526065 0.2315887719799174 -0.04549001401199908 -0.33499031643551985 0.789765243831556
Ni 7.91949128942239 3.97677349576334 8.365351958757378 0.47501105193725296 -0.6195350746259781 -1.1533871079608393
Ni 3.4715548374043594 8.533911778788317 12.370068944277758 -0.6813130271647234 -1.1108757169611898 0.6682842190052233
Ni 0.3278799745269917 4.674292806677041 10.178504078061167 -0.17505073052267273 0.4431573977617658 0.6344765264271589
Ni 8.447131996644803 2.2969466781164045 5.786901774103665 1.3856348565197945 0.46693136025291204 -0.24207990415802824
Ni 3.8488760204466725 2.7336631142282473 11.510962734244357 -0.4985939814635155 -0.22593800429084313 0.4065276623538741
Ni 1.1356899536806517 3.1467850473609777 12.610376594034202 -0.428467656960075 0.4133089469417656 0.1603620181622464
Ni 3.0244408237085008 8.482614639029416 8.052001326473224 0.08539430640610454 -0.23931365426680076 0.6219709377609804
Ni 5.352998318990296 7.796238186610472 3.5681196125784256 0.46516835481521823 0.25447544960890367 0.6283377605192727
Ni 2.919065373962805 8.586399550246089 3.526203923503283 0.6114684955677597 -0.7106601128682729 -0.05039490751278418
Ni 3.4531863895920383 4.197776552173237 9.325343755488833 1.3212912001364019 0.5680646746608281 -0.7944238256494899
Ni 7.696434166112154 6.06111516090309 11.374213684793885 -0.9011354054761319 -0.21902610766235828 -0.8537245202923361
Ni 0.505425882807333 8.642559193508005 13.404394331943333 0.24056038218970824 0.9010361608941063 0.5631932055011397
Ni 4.773033438558811 0.3191092906383772 1.6580600706574606 -1.2205031848830465 -1.031460510956656 -0.4909544626403866
Ni 5.790423680846502 5.60079513302054 0.5486585377845069 -0.15557899495130623 -0.2290274418494443 -0.1955791894933277
Ni 8.174286472980338 8.978635440294843 11.243292368513755 -0.43979362349585543 -1.1008676979058847 0.1662866111767975
Ni 0.016248941612502652 5.034881524394028 5.751676344521176 -0.20949939911884563 -0.25041799171007845 0.8394973209493606
Ni 7.869284804654819 8.759313810329914 2.6789894883920184 -0.9487121268138305 0.2781874485138628 0.18279695012699487
P 8.33890266633846 1.6354735146661692 3.6957698727637243 -0.08300909400337961 0.08358502111150766 -0.32499900955076283
P 1.5624723405797942 2.988758227908811 1.5567891191958039 0.8587412567806372 0.2046302439520024 -0.11428373574694511
P 4.766907593024173 1.387394948096497 8.241507175612663 0.3593448340204844 -1.2717771525666743 -0.047525556384789114
P 8.625017825730774 1.3785515538751272 12.770590176743987 0.5475053624522377 0.8774231494608568 -1.2032233147566762
P 6.318264341483992 7.7326348230327255 1.48240190439128 -0.6396536997527242 -0.49968335787295237 0.3223862545182642
P 1.7216352589812634 3.525396838809699 5.882398616265387 -0.8689804180101421 -1.676990981205131 0.6509431566236145
P 7.089248354855385 4.0738781451581145 6.105785662710502 -0.051595355578788554 0.43724334627017597 -0.09846810887092719
P 2.4573184057999313 8.202788923420437 10.365748635851913 0.460237236062188 1.660598913000353 -0.3168136455264931
