# total energy = -381170.54384095635 ev
CRYSTAL
PRIMVEC
9.23943273152955 0.00000000000000 0.00000000000000
0.00000000000000 9.23943273152955 0.00000000000000
0.00000000000000 0.00000000000000 13.52284373876367
PRIMCOORD
 96 1
Ni 2.403564441694299 1.3987022450871054 11.914923572992775 -1.9137196483535748 -0.8823750941494932 -0.30837014274483016
Ni 1.4969451305440309 3.560840316331912 12.415431021456053 -0.1558787855799122 0.9777907893473419 2.4280516093776376
Ni 7.510069415986246 8.98984768100042 2.414746926813129 -0.5588066463976699 0.4888960374494612 0.08465074337186067
Ni 2.833761656944925 4.164239932671179 7.406799355322219 1.2633935564886691 -0.84139145264828 1.7099687216827326
Ni 0.3312068597068513 2.5350138474495587 10.791877947771209 -0.32874613529802094 0.8593475229060684 0.09486085113564308
Ni 3.2673497439121584 2.1789723172057314 5.730466947593913 0.7286940875518482 1.1288173890412752 0.21907804394621624
Ni 0.44375238662783395 5.393324676468128 11.371832504217037 1.271807234473661 -0.347011509266112 -1.4720506622118776
Ni 3.0925489210061516 7.103682218211637 11.223554396160335 1.1288574982505912 1.2416193980363712 -1.0258220817239558
Ni 8.147978312602163 5.334534167659474 7.7410838699849345 1.4744011647219253 -0.38648231366722474 0.8923080369924891
Ni 7.779676055470218 8.048645174113739 11.819979164927755 0.6906947254899395 -0.05407492746753268 -0.576982031755116
Ni 9.055660158486518 5.40318315091396 5.3294875896441845 -1.3982687432337209 1.7209822991844168 -2.018880338753329
Ni 0.4280795373284281 5.2281790604936065 0.9837750398801798 0.12223641493511851 0.28306380276955767 -0.6476727134024588
Ni 6.845477038396041 4.781369345661343 6.0218435378644575 -0.7291543150177184 0.48833322296745574 -1.7667811026860862
Ni 8.31213530930236 2.2325240678037135 8.572698392284382 -0.7186791265180074 -0.5541845742446262 -0.03087046432661135
Ni 3.2065912359873265 9.21531755157367 4.8378241259415 -0.6056359480463828 -0.6222203347676252 -0.29316746686246287
Ni 1.9501115749158753 6.641544284911111 5.055907070254727 0.3038414016365412 0.25418234384851707 -0.6878315450095316
Ni 8.840529212847558 3.3919804485043215 6.369678604188145 -0.3861519269109995 -0.982293819424018 1.7034921128194533
Ni 0.18515453093224887 6.702321271700885 3.091484538385571 -0.6638902037025857 -0.33714104422993546 0.03227531509393796
Ni 1.6005653656986834 2.2699899664708654 7.384013066963912 -1.1674052766168026 -1.6187012443253028 0.4020781112229526
Ni 8.728399460387742 8.42520748387415 4.681771035461022 0.8420085174069886 1.048294294684543 0.9189338671101336
Ni 2.280485961757151 6.653509349960178 2.1101588720532733 1.117462111929456 0.22747295287813085 -0.49527905815766954
Ni 5.389111495261662 0.35745516341178685 1.1121375512471052 2.2872826828559703 -0.7466815252682044 2.5536199168994664
Ni 0.5729556863495586 0.14486413775891915 1.8657333818239137 0.02726166392943047 -1.32194348900842 -0.005183086862836235
Ni 7.074042118846847 6.986868073489367 6.728520606413728 0.08824334581912543 1.0138368843376218 -1.2561201627557077
P 4.075448986631392 4.842515909749928 11.423462452861191 -0.9695537461495304 -0.1924748395363911 0.9306480702232681
Ni 7.234577258018678 3.239954826637656 10.649441932865491 0.3142553978810136 -0.12123599869506217 -1.3331367866210782
P 8.593374394266467 8.358046049247386 7.15481508538889 0.4234393505075482 -2.5495226069016415 1.8319889068419868
Ni 6.932429337374234 1.0041138025770977 12.597596595984152 -1.3841744699241838 0.09591166099766063 -1.2085925494883896
P 0.49105550904613743 7.10891173698984 12.666590210069781 -0.22764675945183377 0.5149258858543196 0.6467568864564088
P 8.191172659400914 1.4395867337682768 0.6188488713728911 0.7289486267648155 0.3659006328611311 2.515268827925094
P 4.066403582242947 7.752225701600895 0.9615144752294349 0.07808363167730423 -0.8201461701162585 -0.5797194852909371
Ni 8.891152063352449 1.4979522286832958 3.673710147332603 2.349656359997186 -0.49337541337705354 -1.1112269296530215
Ni 4.17291575976081 0.4318972708251648 12.963498448560307 -0.46189199805679165 -0.7924083378813579 -2.8711704405919845
Ni 1.4542959102610284 9.039232447554287 6.7356201863239225 -0.03622504377030535 -0.6124581131745388 -0.4406852820721895
Ni 7.646415720950776 5.732901538049843 9.967132943513445 0.11282797713702504 -0.9971997900015729 0.7083985705276058
Ni 6.126833980854458 7.295797737567027 13.234968681573543 -1.8834356526580531 0.5521819419923006 0.7390224660610497
Ni 4.041697339817309 7.146645579198632 3.8482494942996994 -0.821860581704204 -1.1771996369994047 -0.2682971859833444
Ni 8.394033638719288 3.7029243088605113 13.070044811978311 0.9534465561750224 -2.545243519910313 -0.586563504795964
Ni 5.029716051031107 2.0174116010296945 10.914192326643063 -0.25498401381420605 0.4692096147641274 0.6785400924052766
Ni 7.0027968550682 4.637844001667374 1.0551727542945868 1.4494074708910651 1.4954171048519602 -0.11212066665735528
Ni 8.156081294878634 7.09051602694143 1.0797607319846056 -0.06518646399966192 -0.12595165900317665 -0.5554349017119595
Ni 5.749902093795234 5.955350114205296 8.26357931984108 0.8228350298023313 -0.7925145244419189 0.01559425489383121
Ni 5.012715495285716 1.7406444013812232 3.043194644579437 0.8974178474152286 -1.1451032706854924 1.6317747896798092
Ni 6.051181507787468 3.708865263938928 12.495634838957923 -0.7990674950690884 0.9338478081074886 -0.7026436703216996
Ni 5.727431794027414 8.611834780342168 4.207227316182595 -0.3184874336844902 2.478773818322854 0.4828197493483943
Ni 7.787233911230941 5.767558649246018 12.418445848271118 -1.6754616890447982 0.1594742162406544 0.6985751566792807
Ni 1.2349517834156027 5.670923425038929 7.018774605639127 0.17292725642176668 0.9884091882931365 1.7420308923246
Ni 3.9294012775730245 5.12418000860767 5.672886804438871 0.7408854874117176 -0.16219058673055292 -1.3407773338854714
Ni 5.478022553923562 3.162657734590949 6.619256001962956 -1.826162787078513 -1.9565668254260884 1.518200678405379
Ni 4.937238571435662 5.151731996234169 0.6244479674499057 -1.7829980787655808 1.7302009895692074 -1.0464636692337075
Ni 8.447603868182208 0.5936427756506079 10.499771442335511 -1.5350658295918336 0.33029368229079886 -1.444922438536518
Ni 5.1413653530024686 4.9478546793440605 3.020989516523514 -1.5584055327590385 1.3766611922662741 -1.9562948027116245
Ni 3.51936450397264 0.28230531547118226 10.341351209256137 0.6507441532389309 -0.784044796408011 -1.0313365837842818
Ni 2.461283176336396 5.9496124266412265 12.998102894991401 -0.3036259431916255 -0.9927962616172386 0.935696174170137
Ni 6.039881681876265 1.0118564469872269 9.102807134496073 0.28554028933450826 0.4802615017029149 0.6255807665994259
Ni 7.427210185592405 5.442395302318004 3.1150275362631965 1.6088860580070938 -3.6769950518792482 -1.4621830253891788
P 1.448502786102137 8.30007784992859 3.704853502360314 1.0563390193658904 0.3262681060711735 -0.739402732218604
Ni 0.32382178133332357 0.7746561929496587 12.62399365455186 -0.7376227575000458 -0.07979830037556579 0.8769780915036379
P 5.059624093937536 0.9875844578876931 5.712900938581338 1.1321148288456244 -0.06744492101653546 -0.3799915637365585
Ni 5.5251713778196105 2.9019486685758955 1.0129430042457368 -0.8231181082603888 -0.8569502263184854 -0.11592615644637455
P 1.2305907712896111 1.3038871890766692 9.300092116318607 0.4103814888823255 -0.5587505963487539 0.3846632581806149
P 5.517234705327605 8.473178617260057 11.191803086476074 -0.02256631533629017 1.0051673815880817 0.09978168547602816
P 1.1733986842983228 1.517687656439902 5.239127787970937 0.8349094444683621 0.3927203241571366 0.38264005710299903
Ni 4.548655760031363 7.397634762254907 6.188025818162148 0.28626019821966825 0.1844026040512179 0.512821180806491
Ni 2.6207280624767293 3.2448055286845747 10.463786624693352 1.1166486148892252 0.4022871419099653 -1.168787758786626
Ni 6.995627055471231 8.014856569569774 9.248800330902865 2.3967134613859886 -0.27536591990466774 0.534917241374582
Ni 1.2360605153120414 8.754694885198276 10.766861260414569 0.239865927225845 -0.8526839948429638 -0.19799011292766547
Ni 2.123332454869457 8.435943704404664 13.498434794237742 -0.2253484503359603 -0.30357195002523846 -0.35358247761541034
Ni 7.1293493616141905 6.94841355554789 4.38814926310019 -0.9679673754990167 0.9055175937042276 1.8060377341938636
Ni 3.8097321482174245 2.0471810524490697 8.551291551193895 -0.14888204254710488 0.733536246135498 0.4372014372886471
Ni 5.610054043924452 3.513876281085269 4.397615061666034 0.8427297118437294 -1.4097106665220756 0.9519375757296638
Ni 1.538365506308481 3.9086864699745645 5.275558870201413 2.0188726254438456 -0.32430069793215754 -1.1784826174768865
Ni 3.100919846824263 9.213497383377016 2.30480599590553 -0.20339739998616582 0.06205228924605443 0.15163080893683561
Ni 0.6142189917620131 3.960076193374491 8.682936832917525 0.5735681209775606 0.910307301783387 1.1787667243762088
Ni 2.6666942390165773 2.301773614168771 3.3247266195528535 -1.7084078049535156 0.9518182765429801 1.4920556445788948
Ni 5.626490994289154 6.285548951829636 10.925903307299194 -0.21243122805365997 -0.04802306484649794 0.30020380488395393
Ni 2.281751764005585 5.622970770517961 9.64079988443469 0.21513448591743595 -1.0671538505932074 -0.5326073622944827
Ni 3.6956898332362496 2.8135734969972734 12.875315457177068 1.2850466159820708 2.055597234558389 1.0079135768746514
Ni 0.43295980555925173 3.8720428807972707 2.872711408466811 -0.08702001493498562 0.1628755286127195 0.7657989628239457
Ni 5.732171622884688 7.064996714458403 2.2541637425924526 0.7316410859953141 0.7319359915279137 -1.1801497207666642
Ni 2.33081315042299 7.7747237196661265 8.723328859848028 1.0543934656037453 0.4144464029803185 -0.3772289133897568
Ni 7.316956037924062 2.6820039786198993 2.3474847823724376 0.7524716495874202 -0.5636644887106035 0.4121547787326644
Ni 6.296497679306967 9.045404388444462 7.209690846659869 -0.1550560325683007 1.075983018849063 -1.4013787496176122
Ni 0.18671969079272127 6.907898644165532 9.021994438394408 -0.2522612155664043 0.8329188964008947 -0.22362041190126006
Ni 1.2903698993725894 2.19906808282868 1.1894013813369193 0.12030371668877991 0.8895731545598292 -0.8553689978742947
Ni 4.822447862424392 4.127697977251058 9.491805720361537 0.03919492503190669 -0.4664353944530999 -0.1193207839502203
Ni 3.739290715063696 0.15424493354603627 7.323214829479458 0.37605366213473296 -0.3850946892910787 0.17116939319039554
Ni 8.6032328687123 0.9593487522583914 6.467083473120013 0.5112492083336809 1.6823175356243674 0.17920948988605265
P 3.726272354713013 6.109325256323199 7.76516829860532 -1.573446486252561 0.7911999193955536 0.6167022331628734
Ni 7.1927595866580045 1.7812794253856956 5.018340461773647 -4.297404301580063 -2.1502230868650902 0.972466291810635
P 3.610012575938961 2.0752412088614354 1.5201434975905135 -0.6595306411823092 -0.10034887083340782 -2.439300699928896
Ni 2.737967221092635 4.417049283924108 1.2607159408590936 -0.25054423287529753 -1.4786763950585113 1.1116326497318725
P 6.700344033152236 3.794394690316691 8.239292547649594 0.6488502786503277 -0.4193775217333487 1.438066077736317
P 3.1022688039649298 4.618709137021338 3.6720738438421088 -1.1462535822398516 0.29369891388590064 -0.4505948278764175
P 8.029944562793808 3.4716797929933123 4.4150997636728695 0.399459442653183 3.217787799743471 -1.990912392785494
Ni 4.810556712835088 7.90254202846055 9.074314572644097 -1.9758598693277452 0.31298578713997066 -0.18373591700149647
