# total energy = -340888.8446879209 ev
CRYSTAL
PRIMVEC
9.08508585464670 0.00000000000000 0.00000000000000
0.00000000000000 9.08508585464670 0.00000000000000
0.00000000000000 0.00000000000000 13.29694148282655
PRIMCOORD
 96 1
Ni 6.411435876226681 2.2006984953736546 11.533700807722804 -0.13107278227982588 -0.44723208205177173 -0.06026023034263815
Ni 4.760612196866149 9.313121419166473 6.020402882736653 -0.5778569781609015 -2.969473484639957 -1.399516242487577
Ni 2.8457759251331867 1.5561752558458746 4.5622738724820815 -0.09042904061653458 -0.13038038419849157 1.7291537792516156
Ni 3.6394217624311334 4.183536634068339 4.910919489820259 -0.4676705524117817 -0.659382031419587 -0.0136219616588088
Ni 5.1076079626291415 4.9937990932330845 2.555406590443769 -0.8037283908798674 -0.6815873638720326 0.009497655077790094
Ni 7.27311083574365 6.105613719157145 2.5317771908738638 0.5699114980615798 -0.506662874514579 1.6775993042130917
Ni 5.18788378046131 4.983987200605342 11.722064616443909 0.4251668747216162 -0.7082844135472447 -0.6234387805557585
Ni 5.954992082235517 8.016597914525143 12.304962810709423 -1.3560707697094323 -0.1483595943847316 0.14211052815122624
Ni 1.6977118070010737 6.855342251860175 0.10376439857269336 0.7426502926216243 -0.6476721991818265 0.4486634151816596
Ni 3.0580307838942695 2.138229445643688 0.30707317337957374 -1.050719616296584 -0.10051444987699462 0.6631880354292385
Ni 0.9077908548673623 9.146955200498486 4.678542074595112 -1.3416944463831022 -0.6830860599047461 -0.9917539363956532
Ni 8.473332431260832 2.286307258550716 1.1849114089835961 0.5944578199423761 0.6306296418772429 0.15578545453515752
Ni 7.300983878875055 0.07682711927523106 4.851867340847046 -0.5179075941904628 1.6772475773006275 -0.6520111928768125
Ni 0.5851758252671584 7.194443078092141 2.529570423541198 -0.4577517506361729 0.5162877991988528 0.05183601083468491
Ni 7.663242588725649 3.80208113799328 4.060048514296728 -0.28133473589359287 -0.05767318634175228 -1.1104908228179455
Ni 7.353550185119614 4.350148021938883 12.860734755893535 0.5710872635372358 -1.78012512809316 0.5033384381270364
Ni 7.661625443459225 8.650873177308391 7.282508448460445 1.0138250572630796 0.137223375262254 -0.5804303953150326
Ni 6.7199381335973145 0.75758440636526 0.3659081888029686 0.6046165056429329 -0.06467969956657248 -0.18689837388987812
Ni 2.065503334083423 6.4133255740661 9.263513216847464 -1.0804945335661713 -0.05445570784571912 -0.004705890116101573
Ni -0.16711651863915677 4.757823075535856 1.5073283837140918 0.25146571624830244 -0.370397235179904 0.011059086027639017
Ni 6.270471685474768 1.6199434728404405 7.222140779068253 2.3473050861561897 0.6999573817387881 0.09058047859273431
Ni 3.371157349920015 4.812424440992094 0.5753403114164222 0.5909672902906145 -0.1621823592004368 -1.3015551551600553
Ni 5.883501542339486 5.523414167987069 4.833065755853421 0.687278757829855 -0.36469067171342995 0.5170534737202837
Ni 5.25349626986646 3.0088713848121214 8.94410794804854 0.26075434063907993 -0.646673325603667 1.0494556619824957
P 0.09104618700826925 5.579369211222506 12.71965427604381 -0.17270048512294126 1.1355462231246765 -0.4717830319182585
P 4.076950407856592 6.684424533336344 12.569864832978386 -0.5207185812766967 -0.15802180006484398 1.0437341861176863
P 2.0933127816144625 8.561448678109429 1.5065970343098944 0.9092210106977439 0.18632578921585974 0.5878331155370069
P 6.13819283671556 7.516518453597819 5.766045919516785 0.4595520370697054 -0.039846699683292665 1.5194666896019962
P 4.708236677422685 1.1942708643401712 12.711224224961141 1.2918047606415108 0.5190519922075513 -1.6728890432216157
P 3.966548445622946 6.089051607804945 8.175465175288382 0.1610983821076387 1.367092831851549 2.110406211978469
P 4.6166135874682475 0.7556247533654413 3.603643786174359 0.11228290326683242 0.6363506035214203 0.11947864968432327
P 0.1520661655584903 5.4717927106622195 3.882892975885667 -1.3496188434365015 -0.13442858612593622 -1.3538871317945522
Ni 1.642183762796659 1.470711854041076 2.5345036251123694 -0.8155366963687051 -0.6862415748145924 -0.5968396899109916
Ni 1.6909161628477847 6.376594572312427 4.97039682080734 1.042745596952172 0.011811647922947399 -0.3161225329967394
Ni 6.064494620978287 5.430891654541756 9.147617503250856 -0.40653794676651916 0.47475548428302106 0.38092718817695037
Ni 8.843758633215446 2.526044501755247 10.18056359112797 -0.597544686397816 -0.6624663267718656 0.3339554474131023
Ni 2.283245584647429 5.223515486837245 7.030651700843497 -0.7526122889303426 -1.0156114597395414 0.19827113450319403
Ni 0.41386653954679453 8.875129434366926 9.087169885103922 0.9289634834319936 1.2871492641473703 -0.20283227151131522
Ni 1.411531605358557 1.417545932135933 11.669515571862306 0.1965145568234035 0.27557855013610605 -0.9525669817835466
Ni 4.103070029435076 7.0328103172216005 1.5952874585789285 -1.16592509252685 0.14378148809574592 -0.45028038195979225
Ni 5.627638271899544 7.86817486835899 8.096361333520084 -1.3162297264530944 -0.8092408360576644 0.10601635353183032
Ni 5.81518169737594 2.043063172240343 5.023730816799162 -0.47095050871463406 1.5445735119719526 -1.786251552705872
Ni 0.4769715452804111 7.1649801449516115 7.00581307635808 0.7856023707031179 0.4121614636008838 0.5476079494683731
Ni 4.872549538594322 4.623554592993799 6.980827273483247 -0.7157889494544061 -0.6882025551957051 0.759683336844511
Ni 8.250811425583684 6.975810489123025 9.233768646048176 -0.7205022957696752 -0.12178518633031284 0.18831068085637248
Ni 4.668489427194558 0.3646253746927488 10.52802633029936 -0.6173457802841432 0.41423814362425426 0.10635239671501039
Ni 8.066384184525173 7.083141692367618 4.916424143286138 1.648364318607374 -1.2884579556564648 -0.7631437845892857
Ni 7.531608781055858 5.94089202912602 6.962384549377395 -1.4276019449801993 -0.7805900050901912 0.6509850656051434
Ni 2.050285815424654 5.3660968228555825 2.3075245678496343 0.7381336356981932 0.6866123278904498 2.2508915458214465
Ni 2.810307750301047 5.371983958432229 11.36312741394952 -1.4226875383977176 -0.6718395404566494 0.6120554784194814
Ni 1.2513433731248789 3.555966164580716 3.927756946417447 0.26148221994404 -0.9813592234248906 -0.6058146397160921
Ni 3.8047339830370777 2.777701377485333 2.8080746362196587 0.2873022663309374 0.31258366660554554 -1.165974714817863
Ni 1.3247236108603266 2.9913371692829136 8.276574911800124 -2.025375202449054 2.3590154326145822 0.017057726813235138
Ni 4.030189471416782 2.2557450300324486 6.760577539247706 -1.9551552897905426 2.805073548962911 -0.48295910313973606
Ni 4.004215211210561 6.718230137473227 6.083829500506401 0.05909809171373692 1.871976502978518 -0.32212708731960654
Ni 0.8579046489239002 7.488863452524809 11.117652030574915 0.5341867909664606 -0.4617660140018886 0.6440873100440456
P 0.2160060906740417 5.34694546205995 8.299099564940832 0.8528002087058539 -0.6049803167402549 -1.0227020480377353
P 8.60932708009851 1.5492615055776222 8.041352047712932 -0.5189326930208675 -0.16675917993784184 -0.09327139516133615
P 1.9650132004209506 3.281042384202805 10.56676059346453 -1.1175747262479203 0.5447517109665005 0.7709170007768014
P 3.794940260580867 6.106340526018459 3.9833249649992344 -0.5924330762028636 -0.966815778393077 -1.4530450676436524
P 7.086584939873095 3.96819284614667 10.55383524194463 -0.6339404514180308 1.071897793036096 -1.0714848738683933
P 6.480646059595339 7.901453537521419 10.196839522278529 -0.4230603699015746 -1.2668005252876893 0.17246265808052233
P 2.162077795780564 8.226981245618342 6.063272676942703 0.9525842081747272 0.03338423188740057 0.3682771035131077
P 6.816866913639347 3.8034439008582446 1.8832456115059353 0.49395571136055577 0.3002734817796248 -0.5302121225894287
Ni 5.235616821078128 3.381214539863452 0.45242182652236634 0.29534210591627846 -0.9830047294481135 0.026991698097495447
Ni 1.5767711452783693 1.142158812383934 6.946202194610232 -0.4085626905060319 -1.8028603649071466 -0.19547634536687625
Ni 6.794308645681304 0.7184004314546514 9.383026611596263 0.7696203934525649 1.1082387935589753 -0.3422158876496816
Ni 2.93168449614054 1.7405298162182539 9.271784278929221 0.8331271557569587 -0.8683669527958593 -0.22822860009723273
Ni 6.3769034652284855 1.754784315785781 2.579167723757288 0.2778537193235279 0.38448816605533137 0.605956307500279
Ni 4.312190533606741 7.0023298544752315 10.385735717025547 0.45744938890440573 0.39093546434257187 -0.8383614075727046
Ni 8.05222053581531 7.408142465490086 0.29041294310109605 0.7963015022881771 -0.4393675917020304 -0.2786602743852233
Ni 7.571537732999314 3.6358876640679925 8.237175620356851 0.9766211945192729 -0.09236790951046028 -0.19891365318319937
Ni 2.973348699465384 8.818038755410685 12.496212951178522 0.8249194231351858 -0.7474112043453772 -0.11716285706695305
Ni 0.20123919226928785 4.9120060660779234 10.595082439832794 0.7871640587632831 -0.0887339123022988 -0.4367802905908284
Ni 8.147568510933985 2.3406724117770277 5.874335599309736 0.9268672630245974 -1.346414477566591 0.9806498560626918
Ni 3.982828919316387 2.9373081642299597 11.36740921487124 -0.08018807961481673 -0.38970313459736755 -0.032825016949820894
Ni 1.1506624526613114 3.6305456336373325 12.76668594803946 -0.5328721859200951 0.32841934808622153 -0.8464285008515552
Ni 2.9343100859270383 8.339772585408559 8.177791865753164 0.7541618928056496 0.3669388443176584 -0.24652611285483994
Ni 5.413212077640284 7.5953769980504235 3.625185433035139 0.5284344618637158 1.1654044441366898 -0.01069424648905255
Ni 2.996869986514669 8.102933484563518 3.6247193681353216 -0.5163430779168204 1.1122381445263556 -0.17235132931363867
Ni 3.25777547955498 4.252646881493565 9.187494670205446 0.9125043094347058 0.2930394259250308 -0.29687216940755967
Ni 7.344810332612309 6.149903512268488 11.407153739573637 0.0599684101338322 0.7629977459297246 -0.43894644500421176
Ni 0.6081792624277569 0.04175868821681472 0.07706605703088815 -0.6436031713187755 0.39051663163759837 0.5850090158246506
Ni 4.581781368639758 0.3186185003715518 1.3494404951964736 -0.9198057281921256 -0.4947859205713349 1.445216572738169
Ni 5.947905715337702 5.973098658168011 0.4849636952291388 -0.2527841779494098 0.4737491545056938 -0.08043464840798406
Ni 8.118341790023381 8.92419798259141 11.337092283668666 -0.2111654739673589 0.1059261078108692 0.052792204100367154
Ni 0.22090113488499372 4.411717648177972 5.885878200775985 -0.13600055859874643 1.143189084381915 1.3599621343440385
Ni 8.323019687255263 0.09868220159495292 2.3124441417921555 -0.10414973263673677 -0.15732091734307743 0.25328194352143474
P 8.680472386735415 1.609686411010142 3.882081677726725 -0.09283250785170465 0.7014478502413856 -1.0503390930287138
P 1.7219235605686072 3.4298379188853807 1.521064124884356 0.4033911736074214 -0.6891870305961614 0.7978729605403548
P 4.594927487743782 0.8179393566373785 8.096813770791252 -0.004435924284166554 -0.7175707239451771 2.8519743272795077
P 8.360168602954191 1.698338677918957 12.37462543134925 0.7402859061545057 0.2186309291064686 0.4209363815800363
P 6.5446504888198325 7.913936445364493 1.7267277539218948 -0.9472324569445105 1.1716154580434082 -0.7260867318359883
P 1.9756881761965048 3.0421318838030187 6.152840720496774 0.6304036419093659 1.3756592333643212 -1.3113831969940706
P 6.573350274755981 3.846098378531629 6.217610113942801 1.5528468077243385 -0.24332663208093577 -0.9294990442204895
P 2.328144078505122 9.028949021478336 10.24598438522345 -0.1569609629004974 -1.7996179467104492 1.0983143353564118
