# total energy = -340895.77759341756 ev
CRYSTAL
PRIMVEC
9.04681220784543 0.00000000000000 0.00000000000000

0.00000000000000 9.04681220784543 0.00000000000000

0.00000000000000 0.00000000000000 13.24092413198083

PRIMCOORD
 96 1
Ni 6.466597865956508 1.979514832761669 11.473511619426514 0.26951023245483907 0.7215929577306928 -0.5020893962112837
Ni 4.59869355242531 0.3667288073228274 6.065813239667061 0.3551865888777367 -0.19002740643716304 -0.06802187656592802
Ni 2.904668964889866 1.681105740047309 4.800708863636819 -0.20540183201070433 0.1769086096670179 -0.20308655361396635
Ni 3.675303548630576 4.230859224680178 5.1365120489334295 -0.44756195458736464 0.31271762108024853 -1.0860763985293231
Ni 4.9872812668215465 4.464701220389766 2.862926069795328 0.5956634102147031 0.48819824005148826 -0.4271723351874192
Ni 7.111807448593932 6.138560464051925 2.444314700525932 0.5275199204692463 -0.41801535127849937 -0.17176846022697514
Ni 5.065110990169178 4.600475774382707 11.484581298548699 0.5976830117478932 -0.12119588948574612 0.031312694070352524
Ni 5.835944603773151 7.697633757483378 12.267980933974114 -1.5449987724348295 0.8411168588306547 1.2470138295790651
Ni 1.914133522679914 6.394621429951189 0.39854101692175953 1.1457110794728202 0.7995048397168231 -0.21538516847566133
Ni 2.643080396879082 1.7087889846647395 0.47433611225812994 0.6793129660155591 -1.0625297215576346 -0.7130412115059397
Ni 0.38324285788644097 8.569836899171765 4.6561842331099 0.6973171159024636 1.4473968682189398 0.37685430365915745
Ni 8.724320260311385 2.31138808294004 1.3054504433571554 -0.1506296213658309 0.6156665928095074 0.6088115175608869
Ni 6.904979233416254 0.569667798036115 4.981540159947619 -0.07915141082018626 0.529680675565991 -0.771915874354961
Ni 1.0463633188551031 7.393778483965197 2.4137934709946163 -0.927188650919758 -0.26403146872845495 0.43798819485600055
Ni 7.546099657044829 4.126549482706658 3.896049379337487 -0.3286291501041824 -0.29194156487516176 -0.09694550157881368
Ni 7.581119866167075 4.099282391439686 12.782271386601009 0.6655285106369571 -1.086796307414483 -0.7700875628969706
Ni 7.887064953249514 8.638665044612749 7.088727221905047 -0.0433966218180801 0.5761952741877624 -0.010948271481387595
Ni 6.799927652861483 0.8973225197945164 0.33154304154159475 0.07477307924683252 -1.1471411270511276 0.056145951063948464
Ni 1.8068202391335224 6.587499461076554 9.056831310733394 0.4849838468792486 -0.33992452051234356 0.5582055224785613
Ni 0.07622934231076149 4.94128727478396 1.2817622709041228 0.0005257905964829654 -1.096745191097079 0.6478614323744971
Ni 6.437078118509882 2.0556980363314015 7.014697159583337 -0.42194965333589907 -0.39634557961454964 0.7172218252461905
Ni 3.3833448328483167 4.337294967465821 0.6228929068785098 0.025187040788588883 -0.22329105358629933 -0.44055312736969937
Ni 5.784269213820615 5.529990469878747 4.977792970431103 0.06297454395000768 0.7307342579103286 0.002074108920209331
Ni 5.208575334333627 2.843874388475117 9.586614428852887 0.4098248450479071 0.07862202067927751 -0.5513057100349344
P 0.3740033488250744 5.603351068114937 12.430844357038286 -0.16945626715403075 -1.3379534912834312 -1.723357998505445
P 4.027613547041227 6.153261533497456 12.704520370517486 -0.24823975311183702 0.5360847793201219 -0.10923511757944414
P 2.54193703909383 8.550114849084837 1.3204419154668101 -0.2394982594737811 0.42549880413973823 -0.39343303395344503
P 6.276678142344182 7.712262452433177 5.779384840039912 -0.6046985238337779 -0.5266069217366737 0.5505837442672453
P 4.712981927997857 1.3359970039619768 12.548344350858935 -0.33365668522576086 -2.7794154820751746 0.1681833139788781
P 3.936358354735338 6.181948974243165 8.328024662119708 0.26056742143925443 0.5017242995623811 -0.47865507644774336
P 4.902503591883659 0.9104259222467669 3.702268476377868 -0.6243684914588795 0.4596415114597181 0.5854584446572433
P 0.24232428660936053 5.527222145417004 3.3641212621007424 0.3885417672994147 0.7497887034386184 1.2509108506406261
Ni 1.3328215729617423 0.9227838673929791 2.824911365912177 -0.25474875787494833 1.4707861936771573 -0.8801693447474261
Ni 1.947832897255054 6.546852134911156 4.668060887859496 -0.29697424220306273 -0.1444245209963835 0.31743739515342106
Ni 5.942163223071598 5.689766216018759 9.288600681821462 -0.052157398729845664 1.1041854494252081 0.3720039175453916
Ni 8.479522575310389 2.5104179462026117 10.225515669506084 1.1303687926887953 -0.5908281936095888 -0.4512592009332938
Ni 2.5436106993076284 5.137367877345458 6.955033434664398 -1.6376932120467733 0.2090700248909109 1.049492171647386
Ni 0.6233877674930762 0.14969397888456654 9.130504023982427 -0.19933917075639218 -0.5902995747996285 0.04126003509105152
Ni 1.4820939704086706 1.0219278797336393 11.489679177091812 -0.20747671226186204 0.2953410774750139 -1.0399022139661058
Ni 3.993488972303662 6.867977772473349 1.766590875680977 0.7289717666932671 0.3730357012440156 -1.414348422404403
Ni 5.463433074241349 7.823945346159379 7.930558406459565 0.11346303961786267 0.5093463348840132 0.6670968835653415
Ni 5.472615588387327 2.79155667487296 4.728069296314358 0.18955098102137677 -0.18664949110386567 0.1850862603818038
Ni 0.7382804701049857 7.268326342426012 6.823604064458959 0.6889998542860198 0.4883152252453267 -0.38041553864785455
Ni 5.004189758386898 4.358980175749475 7.508345501346313 0.8798361297777235 0.2345504285502025 -1.292713131388393
Ni 8.266388732192075 7.132949848159597 9.171272577428176 -0.009673518534022051 0.4367802905908284 0.24294893702654285
Ni 4.587294569347544 0.3004726705239141 10.579273157831372 0.5351049319053559 0.7202282161726822 -1.2367116763221087
Ni 7.9627415353491235 6.861862127584009 4.594467786555766 -0.05533425379593051 -0.3057285913569251 0.2258791260284497
Ni 7.2236079508756985 6.160209485087713 7.054724779129029 -0.17462726983200894 -0.34012352389702716 -0.6000335142579407
Ni 2.46448728184879 5.047324957843077 2.7388716607049646 -0.8416647609143247 -0.33198469683997667 -0.08854159378583461
Ni 2.563984119856143 5.129560478618386 11.45334627555323 -1.3153406389799216 0.004135362324612233 -0.09654466659596922
Ni 0.8166946175056521 3.3503782500424615 3.8110030140841937 0.5208193685206192 -0.49787432968867157 -0.45843797806992015
Ni 3.7260199765146655 2.4890131890899183 2.540495881947569 -0.29195364906001975 0.0864425451649608 0.4237095734497993
Ni 0.9437996115911135 3.379011409916372 8.094798754305035 -0.053564563490017425 0.1609759975971615 0.14692671859294695
Ni 3.605498347497212 2.5437011674272934 7.032439767211999 -0.021230884354318275 0.3280617076364866 -0.3696001931999054
Ni 3.9363312142994387 6.809689162973315 6.076538235253325 0.9900354110426497 0.8683643816926979 -0.24585634048132493
Ni 0.7470685432492248 7.415934126471108 11.241067356165747 0.8730792706698641 -0.5376374685192223 0.15196376679622217
P 0.12555437051440654 5.557266607957685 7.961264190954997 0.6222151925613026 -0.2879596974092783 0.316673520404203
P 8.487067616490434 1.563623839850593 8.017935230475423 -0.37223377416801057 0.7174809924448483 -0.5236390973576014
P 1.7258060379736893 3.1041964028105937 10.307886892460889 0.0440252565410145 0.32849828095327294 0.0013418587398751085
P 3.9874909359698854 6.309518069782507 3.7679302376305834 0.2899132215912233 -0.9657248593217431 1.5463735412951691
P 6.969247785626132 4.0909321839946235 10.43500002867712 -0.42359027426311563 -0.039887066002924854 0.7202169033187724
P 6.472957774768944 7.810664626192586 10.22376782543416 -0.9679864016624103 -0.3116418715175665 -1.036149431791893
P 2.4632297749854493 8.654515059178022 5.71014868337924 -1.1621512273067147 -0.2105486663189664 0.24954535929713798
P 6.877350269670623 3.953004488753662 1.7061726466440335 0.2064518705417735 0.0022581999065574014 -0.19038967487258823
Ni 5.302246025434566 2.903311943094894 0.45392921850533985 0.19817626079654255 1.4520796184065894 0.8376324998264799
Ni 1.3346218885430716 1.2801148464450267 6.770256823655017 0.4911683784234057 -0.8797281434449494 0.45396605834149556
Ni 6.799068205724667 0.6883221650636869 9.185864180448913 -0.03658165577877571 -0.00527513235601027 0.3586712049922275
Ni 2.730499740911183 1.6032760166996771 9.060658112195217 0.010286726637988736 -0.47628503355367 0.8331533810092038
Ni 6.505426782916643 1.8697950972321933 2.5044144817816547 0.5025092573575216 0.48863609891985527 0.8722925131025105
Ni 4.072521921642836 6.918314234254846 10.51196940020674 0.1869719074402909 -0.14674931247481823 -0.6557079250021094
Ni 8.3980107994924 7.120293358218491 0.26799732960783895 -0.13756198954859533 0.9565547627867009 0.323709601315378
Ni 7.474684123381432 4.105072351098233 8.268308465691362 0.6684145739355004 -1.1917705928350442 0.38587836153463867
Ni 3.230517038298561 8.427630061870657 12.297362265197652 -0.24845264045359144 -0.16624495930558467 1.7046550227793027
Ni 0.2522034052767573 4.8799770300871215 10.138588472044958 -0.17383254184485544 -0.09052982786045699 0.5940382159064543
Ni 8.486669556763909 2.407989941118119 5.836083019996239 0.46891136679741824 0.6024922602110785 -0.45906378457937713
Ni 3.585161114196564 2.7542657159471275 11.504257209894597 -0.8739832705413723 0.30552675975876414 -0.41440346555752505
Ni 1.1111203989111706 3.2625879867197347 12.467945332912821 -0.6831845331558234 0.9179861584848836 0.352446050018122
Ni 2.9619443314496543 8.361289789720455 7.860129879981711 0.20992285980950942 0.40316003143322177 0.31648685831469364
Ni 5.8872128871871965 7.941201076056933 3.4575494986409794 -1.0061788535717318 -0.0958574107209575 -0.052826656882728376
Ni 3.002817827914213 8.529470024177328 3.568971844182547 1.7150237676081368 -0.589944762563371 -0.022669416573057734
Ni 3.3895509458573225 4.317744806806257 9.267560511231018 -0.8347780610968205 -0.4024552920567134 0.5490665362917705
Ni 7.302052857437051 6.142314891018014 11.450234172236762 1.202741232913935 -1.1133205789572567 -0.7231806139327868
Ni 0.6750767276635627 0.18956146985845287 0.42621883345201 -0.4241826564314759 -0.7028038500486478 -0.24551721197435136
Ni 4.598874488664639 0.36722638198098384 1.5070685995233368 0.262899926227173 -0.6267398199045334 -0.4536600970653025
Ni 5.891093969520816 5.50939087903107 0.4243045280399027 -0.5722342326574855 0.8633466167631324 0.2095891306191745
Ni 8.012806592771627 -0.19538852144606295 11.388584672091177 -0.13794405547836242 0.6333295573069093 0.2017125560845752
Ni 0.22138544031294136 5.0055739206177705 5.737305403540221 -0.460417213283478 -0.41586976569040635 -0.03039583868303797
Ni 8.016922892216375 8.850143321141198 2.2708981713028598 0.6421610395556102 -0.028073361197448424 0.7687940408965276
P 8.45492429357353 1.516761353864224 3.7519481396105987 0.11273310343037359 -0.1619895264633404 -0.4302430036929429
P 1.684000719876583 3.176996098704863 1.6478858465063928 0.575332669077151 0.4546959945289847 0.5516846906409079
P 4.807882985526238 1.161076894590076 8.276663196542408 -0.21465703206038514 -0.9279031604882794 -0.4148786054217307
P 8.511512102423865 1.6965848353219573 12.418146251762135 -0.027498719640901028 -0.027541142843062243 -0.24639627214519497
P 6.524596977473614 7.81093603055158 1.1000588619197549 -1.1548449234532885 0.009828041834015332 0.9355431935320403
P 1.7346085860170748 3.3944271775072554 5.881035723976483 0.5280824778409356 -1.4709869968340537 -0.12945992926675126
P 6.966949895386646 4.017797756057595 6.1354067454004095 -1.2179575356430572 0.4697310344852362 -0.8719256166813951
P 2.4335290912994934 8.49787855679038 10.170168178576354 0.08187446617830416 0.2570462956598734 0.042215714136101486
