# total energy = -340890.1510312208 ev
CRYSTAL
PRIMVEC
9.12821368032862 0.00000000000000 0.00000000000000

0.00000000000000 9.12821368032862 0.00000000000000

0.00000000000000 0.00000000000000 13.36006341513672

PRIMCOORD
 96 1
Ni 6.37477932575433 1.812516370468571 11.542546819457323 0.1882482030495532 0.5090372882840266 -0.8240051388510324
Ni 4.735096553650259 0.29829085475838746 6.056677508783496 0.2870320433886863 0.12593288995009924 -0.07809623008279454
Ni 2.6557716246839607 1.5560044370344936 4.815541675424141 -0.5911845485077432 1.3285486530297637 1.6672094763383352
Ni 3.6426593216090475 4.0039996612762465 5.114419474324011 0.46269881022880316 0.5228004035063899 -1.058827590115699
Ni 5.493404651090533 4.871846323223439 3.1049189904812766 -1.751574313038661 -0.5245009311372644 -1.0418727074289154
Ni 7.3394489505119305 6.154159528623686 2.402246442775438 -0.08413806540150026 0.7849907052610481 -0.14153228705025303
Ni 5.005693320837185 4.7439235363067755 11.551551802281164 -0.0027960746878984105 -0.8007219999533759 -0.025129962298408335
Ni 5.8060642270481155 7.739456403450072 12.417484277813598 -0.06944421083475137 1.2808719157790909 0.16870061993492882
Ni 1.7432606130590715 6.732121507817027 0.47722118705906874 1.57622327766675 0.0580573091540484 -0.6323016302630271
Ni 2.6957988417975303 1.6374920008139322 0.46163841343658857 0.4889425744166805 -0.3954557208104286 -0.7405005932684731
Ni 0.2703776900579118 -0.040358571271203424 4.411092433695243 2.3740795260365566 -0.12829033443868226 1.3165721973941777
Ni 8.69276140214008 2.5035495328741786 1.203418054314139 0.5093229378452454 -0.21247056593202762 1.1525494425508924
Ni 7.150239336753645 0.6996255499698044 4.9056818729782545 -0.9331587524602639 1.0423370486598436 -0.04845475306727784
Ni 0.858013750139955 7.7591642168476085 2.498345538238729 0.5161188777211563 -1.1635753613477509 0.5615993786514586
Ni 7.596435551058871 3.9969526802929676 3.594204024778041 1.5298488041672686 -0.3573074918754814 0.3375120544161091
Ni 7.551433457473945 3.8477428990071267 12.886849724154779 0.15258031733429853 0.08997395535698698 -1.0324331592825702
Ni 8.554560246587183 8.855015400815953 6.699217035860519 -0.24313508489542 0.32436009041518327 0.6027843375302006
Ni 6.987127285989134 0.9473899162066337 0.3476872704227825 -0.5389029654952073 -1.1103203586783525 0.1290578087323261
Ni 2.103615105645708 6.300247460821081 9.470989087535937 -0.6401077565710072 1.3118611650717535 -0.4712760103748529
Ni 0.08466600779288128 5.058317472869051 1.3887783003513765 0.11783854297773899 -1.3596230058370646 0.310381259637588
Ni 6.605923953291348 2.000411521452773 7.0499047501294205 -0.030886919386843577 -0.12189214422182233 -0.6753233852401918
Ni 3.285079805989919 4.328416376490905 0.42540488194044157 -0.09987475941046671 0.17428839843535146 -0.26292203771436007
Ni 6.010755291256712 6.052690305035443 4.992963113998739 -0.7406108935940923 -0.5380876686827636 0.825268064723856
Ni 5.52081667685839 2.93513147703144 9.294809998847121 -0.5555570291121206 -0.03030379318986394 0.13783298382179487
P 0.26729965639526737 5.415970014197851 12.589962788664822 0.11248627752689015 0.8237799102141039 -0.5810148070635929
P 3.9125806009815136 6.315874962690735 12.98083837660857 -0.6408508053846188 -0.33231765469936314 0.4141466123517125
P 2.6093455297604446 8.743861142482558 1.5213500865099878 -0.07548784592567 -1.2118079711018936 -0.4059921015653782
P 6.581396443055507 8.040614430134427 6.018173790537943 -0.7453440374037035 0.01002164590206016 0.007178262915994089
P 4.627529683304465 0.8661588552324152 12.616121510690446 1.4144972892774414 1.0438892236383117 0.3137985128492531
P 4.013273926404499 6.014251397107224 8.15243139678309 0.9308301043270871 1.4417494401251751 -0.04285206216851975
P 4.664197717773156 1.3926276680724239 4.063797676461944 0.6230052925627657 -0.2608430436981443 -1.0363980574675893
P 0.35873514747467616 5.708383212149071 3.5446515166592234 -1.1311948881345162 -0.10565948441304385 -0.22498566767990283
Ni 1.8038719520862336 1.1715240756152079 2.7046778552721875 -1.5775952183136122 1.0693755408348744 -0.5074282919256938
Ni 1.6201118819121678 6.732194533526698 4.916596478109999 0.7849079157392547 0.7714443340351811 -1.1138695094821913
Ni 6.035593160758655 5.603061882375668 9.276466853399066 -0.6966113480846906 0.5198611183724079 -0.12112518414881074
Ni 8.667184147327713 1.7819916238259763 10.238364239653269 -0.034920208915952766 0.9502360196575248 -0.09132789828172012
Ni 2.344837281117362 5.107701109034254 7.014474501439658 -0.46291709688719634 0.16275571520540358 0.7971376250362271
Ni 0.7191042452032473 -0.17354012210557002 9.00005997818642 0.21544661784121602 0.16112280758767092 0.4159713242652771
Ni 1.4265937512832776 0.8236414614190546 11.563482377598708 0.056748360534637755 0.7512264643264095 -0.5906379319756537
Ni 4.178412440612388 6.9106876243907225 2.0465610315009086 0.05886232155384702 0.5178263473305663 -0.25710774502542816
Ni 5.497293270130529 7.939546847949377 7.976224923453149 -0.6258746436907607 -0.5867488813338928 0.2697704280947612
Ni 5.820888446111386 2.974355411338626 4.920671312709657 -0.16945575293339848 0.144199549469771 -0.3406521427069875
Ni 1.0354680502839053 7.191927888762237 7.2381349065567395 -0.12087090204615958 -0.10819073547532981 0.49104239436850267
Ni 5.213405823783431 4.468078046237227 7.03140094812009 0.5803301222917424 0.4475264733637389 0.1117188032332463
Ni 8.155301307173172 7.272055348699048 9.241089548348816 1.0267245389335673 -0.585659504924456 -0.3917178510345512
Ni 4.538109701811983 0.17938309170064323 10.410081457481171 0.649776390009023 0.20323079250131454 -0.6553281730651875
Ni 7.858077540597356 7.300498862616012 4.435995113514521 2.090191684703807 -0.39826747922761085 0.3133236300953636
Ni 7.185501626311164 6.303314540627275 7.1203663445698675 1.218288436619915 -0.873265161428425 0.273457132917729
Ni 2.3832214197633284 5.291050409591418 2.4887526984520356 -0.3583475031042216 -0.1902770605541239 1.402705695959152
Ni 2.3881689115935574 5.161247210650719 11.581277830224229 -0.4069770911864669 0.20268803262396703 0.7421332437758896
Ni 0.9502379188838135 3.4116881301324993 3.851839641319685 0.5200323538429495 0.3573717694545136 -1.1357817361742504
Ni 3.9137216276951277 3.0437937330223033 2.5670828131095624 -0.6334426858460058 -0.6960518760367947 0.3469125217944025
Ni 1.1242581850304723 3.3531580238309693 8.540700879712945 -0.5915856406009038 1.0092549213938942 -0.5126558588732203
Ni 3.61081098397866 2.8351136394229135 7.472897958007969 -0.2213331585289801 -0.24242726019511798 -1.0679717185088125
Ni 3.546091948782489 7.008615101059908 6.227686377227585 1.1786816208615702 0.6522289653145734 -0.3382769576065916
Ni 0.7142023944415626 7.552747920248029 11.603282302190927 0.9256045942620896 -1.1040234699260472 -0.3655118820631447
P 0.2484973617976547 5.523272166346087 8.458710351358146 -0.44063257445738313 -0.492390680866281 -0.4091864401329598
P 8.640830994350091 1.5376932403344201 8.020286811026056 -0.4691970163586371 0.35953226744094213 0.02827390724402873
P 2.01123758291154 3.2110773774517862 10.490628815248591 -0.8617365919635352 -0.25686991798300923 -0.07573698582199859
P 3.901517205966315 6.0768891995777645 4.2499429488781475 -0.4610311927183931 0.1892308786777967 -1.208239794134661
P 6.925438817744322 3.932014567967783 10.603868870414475 0.07094033576430364 -0.3518467258712263 -0.16630820844335228
P 6.324948407117391 7.847507069122439 10.075825440709679 -1.0039155114588518 -1.210491052062683 1.7414426239212977
P 1.986609662324901 8.752030893752032 5.873351028760603 0.554330098683555 0.25116695406096096 0.05812055829181604
P 6.719223341846337 3.8238087226623647 1.5183843298759632 -0.4215043382683644 0.41813593601676374 0.14438878266244162
Ni 5.053187416764644 2.8156522877955177 0.2766067830928719 0.9512012117842714 -0.09291915402823997 0.07136431067559967
Ni 1.4028512674264029 1.5497698670713083 7.022837770839761 0.8815685390877979 -1.6248618646100594 -0.17804478015399014
Ni 6.867292096418565 0.5495741473800014 9.024522678104926 0.5259980845080812 0.2973128564894041 0.7315693522171143
Ni 2.6369127351613524 1.5471774543779777 9.181329871660694 0.2768569026278974 -0.6663947152919943 1.282695599251391
Ni 6.345085246559247 1.8723883241853112 2.5517857525761714 0.5980789616347313 0.410676394414925 0.8706428933142296
Ni 4.039353232970854 6.908460340245749 10.95382267630118 0.4220116169220861 -0.4127813565730697 -2.0478810968610537
Ni 8.426783511089862 7.110978889591625 0.3216499536394879 -1.4861937864814792 0.13978702222437217 -0.35951889770450346
Ni 7.7124368908716985 3.6158862708008144 8.326552986101918 0.8085093572082787 1.299575405725865 0.4985286754432188
Ni 3.081566281349773 8.567358002207074 12.448573148063403 0.08149677112391127 -0.9881294522691885 1.6850673304553625
Ni 0.09161257842536172 4.418274512241414 10.608010340974207 -0.29580361893372925 0.09509636418521687 -0.9070741395580701
Ni 8.760264542517469 2.623220414597988 5.74226257732969 -0.7636034978345236 -0.15307731157537507 0.05603796473117446
Ni 3.8032611136036083 2.4859777214845273 11.265339399902405 0.7854229077024603 0.10549879046546348 0.954315331933221
Ni 1.1265767513125353 3.1397130026755287 12.44272105025462 -0.4705622721372799 0.24695805818593597 1.3247318503868346
Ni 3.128722633370001 8.644263202704641 7.984281484872632 -0.49996437944848093 0.1597719499867313 0.20005727986933933
Ni 5.795402473436109 8.260841714075589 3.6963149617900197 -0.7221130919002209 -0.1297985435530926 -0.5229569836889122
Ni 3.412619207930809 8.737745239297587 3.8791348259520673 -0.5843911797349937 -1.971656372769359 -0.5647404953836016
Ni 3.4764345499697975 4.408297374657575 9.383800954295284 1.0092405232161907 -1.1303237983834726 0.6402131718006199
Ni 7.433852936689477 5.904082985854391 11.353168333745424 -0.021234483898744078 1.2077805951100555 0.9219749679293024
Ni 0.3338479856187042 9.17367221318029 0.5984785523254863 1.0923126092470221 0.8783502892608163 -0.7733919446798552
Ni 4.783576496658281 0.37405411572096886 1.5590121834515795 -0.9102396817702453 -0.3191194108415343 -0.3524635335196188
Ni 5.883845736061737 5.73476374976782 0.2418100324345073 0.7128776893448819 -0.7942435913178838 1.6933172291689804
Ni 7.88768946586906 8.68186231497164 11.45975483393888 -0.25573194772382407 0.9078161599304172 -0.22121488778356094
Ni 0.10088227944675973 5.188595338922613 5.826536984754458 -0.5837391479732914 -0.9506142289325499 0.17440718340140288
Ni 7.968611080398547 -0.18403574222807464 2.566615448567666 -0.760343339026013 0.3106409410568779 -0.974787997965276
P 8.609156092780173 1.689102921124109 3.539454824594741 -0.29518424018217554 1.555053071347038 -0.45402930747926323
P 1.6457895470753316 3.2614012196290068 1.5673225092121708 1.1588316760151784 0.18416349145721833 0.32136115568785945
P 4.922097139690988 1.166129301313242 8.18433450369573 -1.4157167635068393 -0.9872683898204739 -0.263883630296681
P 8.678731337669484 1.526684614601475 12.426970317499897 -0.928620241159962 -0.31096284317267087 0.6540449354773897
P 6.404491661376832 7.956196709754429 1.4007627321298044 -0.21391346902614125 -0.6441269050327294 -0.445103208634227
P 1.7760674131288938 3.4218478319905166 5.932683505047146 -0.6174941329365494 -1.1952364398964577 0.05715947993012737
P 7.197952509810118 4.217033912814786 6.078655508930438 -0.05654061539920585 0.5094435225835097 0.27209804778667335
P 2.5154070824820525 8.433556645661874 10.289867447041681 -1.2054375487991755 -0.19763864312551768 -0.7527033059822521
