# total energy = -340866.918261478 ev
CRYSTAL
PRIMVEC
9.27159848396382 0.00000000000000 0.00000000000000
0.00000000000000 9.27159848396382 0.00000000000000
0.00000000000000 0.00000000000000 13.56992156881472
PRIMCOORD
 96 1
Ni 2.6981186099034766 7.389083874485204 12.317390934926156 -0.08686214920088267 1.0873334108648758 0.023241487026443845
Ni 5.317104126550297 1.1058142823231507 10.450223579488906 -0.8732037120628704 -0.7229278744920323 -0.14065734064446744
Ni 0.939333459532698 2.535346426515796 9.691570395860024 -0.1557952247271704 0.4168691534891982 0.9737163621676521
Ni 5.550201384613049 8.266789018742331 8.433109442878614 1.5391888506212719 -0.8205848003155739 1.837907329208951
Ni 7.670031852442227 5.56617634884049 11.050476138426124 -0.8340486391299636 -0.6021109656122599 -0.43367182686883377
Ni 7.880895817285357 3.090131066375025 5.079194908862448 1.5415077285624355 0.8253066312712755 -0.23814611632126081
Ni 6.541631956156191 1.458617148708888 12.563563001203383 -0.35460063446727963 0.47624569567530234 0.7317788971247591
Ni 4.963559532284005 5.14323383974982 3.9311651842175395 0.5214351477277471 -1.7223182443870206 0.8897099372480097
Ni 7.8073442263298745 2.4998176610372367 2.9178860907928135 1.3373233138986 1.5333262211929077 0.021395177846324446
Ni 0.24122566847377808 4.739177576817768 2.772551929876969 -0.8130075021889481 0.33344148389116124 0.13870253091094176
Ni 7.760429937884803 5.770939601866061 5.351217118936848 -0.38178130864712956 0.02786818716517781 -0.16400141468704657
Ni 6.750187292971097 6.2406480538256925 7.619158591434696 -2.7574294647223865 1.6471217044495245 0.22730120318695696
Ni 7.026323311303022 1.0937704758626474 1.2579194916286067 -0.10599758447875293 -2.186748949705266 -0.4320525460978559
Ni 4.653702710182372 0.3629645383493339 4.678773112545112 -0.9868130474506102 1.753330376497819 -0.3555336878045103
Ni 7.728201861474711 6.615647127037022 3.1816445251179855 -2.114277779118733 -0.5413115749366999 -0.9855655481967543
Ni 5.934648216702942 7.637238208523212 10.971688875793777 -1.4280673146523921 0.7274123926259473 1.0394409580589712
Ni 2.2019304726080513 1.4234592471706058 7.005268438253633 -0.698447629962481 -1.2103419280793284 -0.5488937581593322
Ni 6.096678672210067 3.2803008233506863 11.095106832158939 -0.2294712142550822 -0.4854584725228221 -0.8911736662777298
Ni 0.7046257248092924 6.8669723477644 5.930585402237204 -1.3040630091835734 0.0366580175426659 -0.301095720570604
Ni 3.3335012555834562 1.5785267321990264 9.077260239266598 -0.0734006243793381 -0.08597614705150354 1.1227398153886277
Ni 7.326157535418663 1.5369899708879757 6.744861686788716 -1.787600867644915 -0.11249039129194821 0.0048275032956303955
Ni 2.2735072130815586 8.316484786739482 4.787033859671143 1.910970624853528 -0.5848395801263218 0.9431256338649886
Ni 1.1714571997522218 2.940135145729896 3.873290012017575 -0.43798356687031026 -1.3886286490407955 0.764264014236658
Ni 4.6477132575468945 0.5642750480909234 7.132961528690339 -0.410120521911455 3.170541722272314 -0.588950774081218
P 5.978169100094475 2.1274609934003816 4.955369002162983 -0.5146816310539976 -0.46216659187441694 -0.286467686244784
P 3.4236211930708254 8.618210416950538 8.402210913694416 -1.0014814480960623 -0.4366378514756931 0.9522049704584374
P 1.0376865764942218 4.546374685866139 0.32948850478020886 0.9160814852630029 1.750207000377489 -0.34278615833085485
P 1.9063889986011195 1.0659834951373752 4.8435396167716345 -0.08122603396102786 1.6327908896491494 0.35743373304070053
P 0.49028027472680863 4.6609160138207635 5.308173722868421 -0.09396482168393495 -0.27830263393548843 0.1022103495221788
P 0.6277289411125083 7.444175712813387 8.256306549470395 -1.9989512039295703 0.2770695328593357 1.0019930976251583
P 3.478666673406474 1.4354659672370813 2.3089219378984827 0.24202616810195737 0.04704167476983512 -0.5128294083366072
P 8.989704825926246 2.0831705673327723 7.9586502238440335 0.7943117255516579 1.3624399064605697 -1.1117079830544985
Ni 9.01386661163531 8.660155128595893 1.5710575324418428 -1.127003218650672 -0.8610146261958462 1.6042045933710243
Ni 3.7873923604902626 2.853352983705022 4.196728798772011 -0.5118379909576153 -2.2229673086073523 -1.0937215737794066
Ni 6.980855392225033 5.82538242829876 13.262915967941783 -0.3492722802758307 1.3101012449578533 1.1432459057617794
Ni 0.04390194609016886 0.5028970659750404 6.050380017905857 1.9007407195954038 1.0827429632807157 0.6103294968673102
Ni 7.7338575365639395 3.8657929974648706 9.400807503723566 0.5999805495328183 -0.7144059530639503 -0.8805604095382576
Ni 8.824141891387981 6.393731416773629 1.1695157270248704 0.8147393972783903 -0.5069176708378625 -0.4627911128322933
Ni 2.498686526019391 5.206308524392472 11.868484241376676 -0.9900726920384884 -1.0964587702049118 -0.831028364246401
Ni 4.397695332208993 5.484465751198909 7.8100190824991245 0.4285625306667265 -0.8193108186991567 -0.3676929488748635
Ni 3.501947657257378 6.614692152390807 9.7052487851373 0.5673848749849841 1.2283018549918587 0.7378919520010324
Ni 4.676316138940776 3.555667299006536 6.052320563473358 1.6987751669597584 1.6339329736733925 0.5644481609541634
Ni 7.579216545066838 0.47801858570139244 10.769185111324347 1.197404394082054 -1.1068953921572033 -0.5565147650396997
Ni 4.97717023889218 7.449599597939943 4.243802558711401 0.047897595012227186 -1.3756548624889469 -0.7136387358806225
Ni 0.229063185552386 0.28614656323985865 8.900958939337604 0.8962981319884887 -0.5844014641476387 1.2972909805670627
Ni 3.864198282521678 3.6835597288111424 13.000853308983528 -0.3083426319410045 -0.9432729580761303 0.557261413397737
Ni 2.042217916727658 8.996649253207938 10.516906770270456 0.8431768266834769 0.042381807400320555 -0.668117868630688
Ni 7.043651928912476 8.836630734576817 3.739395149339582 -2.5957818949794977 1.3644296831970888 -2.657855781492106
Ni 1.227587457113182 3.6505991961190025 7.437456585375415 -0.9914086372410926 0.7411518536992268 -1.300443410153115
Ni 2.0361728345011394 2.9851209416855244 1.2517631502200046 1.1391136287609607 -1.5260641403138557 1.4578861977860376
Ni 1.2536128341221373 2.26969658609521 12.859536531700735 -0.8866004450847507 0.8922404169793472 -0.21452564868884347
Ni 9.250551978320242 0.5387679534385056 3.718362528126609 0.7711226890297042 1.3241800916484225 -0.5317432145219746
Ni 2.594332336216891 5.441389904535707 5.004247942331672 0.17472162931802812 0.7949745559466372 1.117111927678889
Ni 2.776333814907946 4.355240682645757 3.0008251752365647 0.08420388564242917 2.7737791097250035 -1.9227388211330498
Ni 0.21413313047667507 6.215197515924166 12.466035983668824 0.8863664746970735 -0.3342246419140889 0.8220621561920488
Ni 2.950612052042728 1.6215098628771583 11.592403852635792 1.6735063650906403 -0.15846942912522385 -0.34660630340789333
P 0.2980679846000705 4.622744842767729 10.613985969597127 0.7382827596815479 -0.47192598525402596 -0.32660517769561814
P 6.947709427562755 4.564695364515835 2.5084133600130127 0.2509828630746129 0.3936605765832188 0.026662339782534725
P 3.7875128912708522 3.5344724248196924 10.778262933422482 0.5329416057054499 -0.6737074469033236 -0.015543347051237746
P 1.416626079070998 7.979211847852854 0.35829443418139273 -1.1156780234458399 -1.0949886134172884 -0.09294486505985283
P 6.739738201453786 1.1846228696320638 8.77062066184687 -1.305589730240745 -0.5739085350361148 0.9480516104116963
P 8.277265925055163 8.17181076363733 5.139865468012252 0.9086936774393641 -1.7499102950726764 1.3926377702001886
P 3.3492629730452386 3.1197909099986973 7.547644897831036 -0.5879773544243551 0.8568406973238147 0.8225120992452738
P 6.21730216878524 3.7651776104676555 13.24110916825348 -1.3983121948771466 -1.2269731088781062 -0.07738429161743447
Ni 5.255726144434414 3.336199290748973 8.543392325639006 0.5372883127099198 -1.0681969471457409 1.2952901480869499
Ni 5.667162599777983 1.9673034007916563 2.7104155310032194 -2.3243453920362227 -0.8968385778729909 1.9906527113662038
Ni 2.595389298446681 0.47227853906575146 13.757457469342375 0.301289581748965 -0.23125016053237593 0.00022034354092220114
Ni 4.9507183683519065 3.8685003042288946 1.6759934843432875 -0.2533202529585379 -0.24285174932704626 -0.7577663223274562
Ni 8.652914010161979 5.4490946028949665 7.577484610465743 4.661469681004668 -0.3970706307060323 0.8201464272265746
Ni 1.9619073304606223 8.702804481727775 2.344271761525859 -0.524694020984677 1.1123317326814264 -0.21996096077180183
Ni 5.216757615909784 6.125986195090476 1.8812388604912187 0.4875148408312184 1.4718614290192071 0.29605970080859334
Ni 3.0479823795625167 5.666745377845171 0.736849165420131 -0.48691654512558724 -0.012355436241559365 0.27308560851092323
Ni 6.220677030641762 8.558223174610694 6.041220605740859 1.486683067413072 -0.617209254706279 -0.10026145332592411
Ni 4.1486231099188 7.6061134523354434 6.4666645921087 -1.9924514551378396 0.4312997270922314 0.2776670572340185
Ni 8.465989312663744 2.8129102710177887 11.857546536618049 -0.12663711510597545 0.18837007333939818 -2.132709760571675
Ni 8.08653060057058 8.469976100021725 7.4785464556384325 -1.0634355212013555 -1.0130982063993843 -0.6338031545092181
Ni 7.7575186559536276 7.394813722362487 9.50925831861899 1.1115138647658214 0.09164851484593248 0.3388078904093971
Ni 8.2984515276435 3.9254186474629438 0.23898008731539938 -0.23381355038417798 0.17287197770379906 1.7627876652559769
Ni 4.170772958751859 8.589357202396968 2.386474223609707 2.18899943630234 0.18350297505508398 -0.7414426454667683
Ni 2.486587089967846 4.424230647135831 9.28439145855084 0.2962677030543414 0.4326575266717065 0.4808595402982299
Ni 7.028641210929755 4.006257714844875 7.0098958930684425 -0.9878535728999825 -0.9761044027838544 0.14012255118691994
Ni 2.2497255629112805 6.49596006191105 7.521495281402088 1.271342636132417 -0.7188326213767362 0.6896377449803348
Ni 8.744489588614936 0.6763436407237501 13.45174134313394 0.9242853612300339 1.1577921790070704 -3.0995597346367973
Ni 5.120342263036208 5.216006616430723 11.799074273474238 -0.6378804099023854 1.9348322619624743 -0.6959202355549369
Ni 4.900484847641354 7.186833224655011 13.373008782932782 0.5720097753515052 0.2732966960804648 0.1081619391199234
Ni 0.5149195477589776 7.485703202525931 3.6013753524858556 -0.5158694807145116 -1.8992314820397294 -0.1107952629777124
Ni 4.646211258588772 1.620360184662299 0.38695758096556987 0.36128113181124877 -0.023022429037102287 0.2586082408303546
Ni 1.0600033141004046 6.880082388053201 10.419908233850796 -0.3650015180856294 -0.6698525919336076 -1.413027132489818
P 4.3102178002961 8.924692377195647 12.273939588523424 -0.002080279567796417 1.8094878975259934 -0.8385246726234461
P 0.15447873852323046 1.6955992065460437 1.798978457058175 0.27498745351932635 -0.2735116403047483 -0.6265050781859081
P 2.8402429434162215 6.823720340729567 3.1253158555489775 0.6182736914150513 -1.2903824263726875 -0.1368150840802418
P 5.852817088280769 5.8998982654989645 9.650494432994769 -0.3164673179306679 -0.3480918868144844 -0.6366768765125874
P 0.42488676329757374 0.9983842704233414 11.237252490348249 0.03554087321908718 -0.1338796556010017 0.07819521755450405
P 7.873914303609638 7.615848630767721 11.964572306822957 -0.035867403320570486 0.7079697105203033 -0.24360713943583207
P 6.221446573317838 8.065539701550888 1.4761228538498243 0.8229615280778665 0.3927421785340075 0.27591767864307964
P 5.412128739647833 6.037646404516439 5.909429468764089 0.648337086459335 -1.4102904502849454 -0.5384440235809179
