# total energy = -340869.31042634265 ev
CRYSTAL
PRIMVEC
9.15670923124668 0.00000000000000 0.00000000000000
0.00000000000000 9.15670923124668 0.00000000000000
0.00000000000000 0.00000000000000 13.40176953428350
PRIMCOORD
 96 1
Ni 6.628789145835259 5.54624633699234 2.9428143909145965 -0.6240321911653833 0.8147121435848808 -0.659434224813761
Ni 5.421119903418459 3.3070646270650212 10.534514853313272 0.6874271104822612 -0.1473974875817784 2.148246936975326
Ni 3.6206361395229463 0.8110051707590074 2.8215017267943217 -1.4899555675167566 -0.7483234317470016 -0.7394137879621976
Ni 5.093328021305193 2.727170222510768 8.508890497723812 0.6755763817912623 0.7042611513204645 -0.1578773040671797
Ni 7.731614065938048 1.5766296898683878 9.366684622033922 -1.4722470944934 1.69611124697435 0.2667475821080374
Ni 0.5706607788231226 5.533674175024031 11.695925315651632 -0.42491439239117784 3.7671129890132673 -0.6043295705301335
Ni 5.777297584586174 6.899800273130257 4.553813789412297 -0.6963611797470974 0.23299156870351484 1.6367560449444842
Ni 7.215258067718897 4.241076453178199 7.805566397842384 -2.5279559364744593 -1.049532280856702 -0.4820119087351183
Ni 2.716759043954346 2.281787878637108 9.596162746957578 -0.0459003620765403 1.2135712336499034 0.17003579380658457
Ni 4.563877928683505 0.6418496158388661 5.073882833281958 1.0767880312488618 -0.04259649451428793 -0.0915901508041713
Ni 0.7496442299126636 3.5298107392580857 11.199309351497504 0.6172894731249111 -3.339225372926378 -1.1391748210161994
Ni 9.181615621895483 7.412310453412999 8.024966648430771 1.8781332666085333 -0.5475750393479085 1.7227244786865041
Ni 0.6329090048076524 2.493536782873917 4.143652728139584 -1.168140355010614 -2.3884023704171318 1.4204599346187794
Ni 4.2531175260029075 2.9508777891879343 1.9217195116570598 -0.11490851381513759 1.7385892136329026 1.573347755891168
Ni 0.9565648012974045 7.611697799997065 3.1859222777390728 0.019759442015114356 -0.7193589261938514 1.7849634300220678
Ni 6.951966046424834 4.913050727181332 5.340243267886714 -0.19018578639189826 -0.24227607932923434 -0.23034050423391297
Ni 1.1745677380355644 8.121332773536874 11.02433562344214 0.5265961231033963 0.009568360414725459 0.33815148777232085
Ni 7.072120386809501 3.4068544458054637 3.353873725376743 -1.1004828037626402 -1.5964213498811797 0.5654187523975488
Ni 3.3884769300950524 4.661973756190054 8.805860896089571 0.8519743703704489 -1.6071068546194838 -0.15550211896678381
Ni 7.434149205266181 8.202964837591843 3.734430229577542 1.3534734412959013 -1.2183894809741533 0.13834797578500047
Ni 8.231826785533656 -0.07007629682699669 11.223499546317518 -0.9548277527932653 2.9294977155779676 -0.9522620489486181
Ni 7.239706481743212 8.52378846387271 8.773522145599056 -1.1407509072540676 -0.11951387379763287 0.25613483958919764
Ni 0.62725931512488 1.1761335353382452 8.590896155521175 0.24147235248101642 -2.873833589246444 1.279182701002126
Ni 7.992259798223488 0.06864601882302741 6.551709797680248 0.8511343909676568 1.0318801149925778 0.08235371980756784
P 7.675767295475766 3.5833408622491505 10.168110043447522 0.1907894814141682 0.0916379733229712 -0.26689336365728233
P 2.0906049436507153 0.5585144038406306 1.182337205938048 -0.24540948275189348 1.555452620778302 1.70910817345465
P 8.503048517144219 7.346217325162999 10.16096689446611 -0.3019709240867057 -2.2942074350002617 -0.4064489865971387
P 2.9811956539199596 4.0872620491405804 10.926114349017189 0.08618697751072898 0.4790268579648654 1.1430841833729348
P 1.1551463574566985 6.622608367008887 0.2149445958077774 0.26769066274759706 0.4531947273931099 -0.354341467268622
P 3.4247191857910217 2.335931501156124 7.402910175571291 -1.392142832841641 -0.03189762003954506 -0.940161151920026
P 9.064730226756764 0.3880604275314827 4.669323846803281 1.8055273702163486 -0.4047888252858964 -0.29933502912575544
P 3.7393528765361452 7.64696944449956 11.293899074985362 -1.5525159067474812 0.5246107172422514 -1.340196264571021
Ni 0.2150737054099283 0.421977794717799 2.3957275603707244 -0.21712734797774863 1.477907892323603 -0.2588108437594639
Ni 1.110983548153601 7.486864381123101 5.8397674029375155 -1.7104086374336285 -0.4943766009480582 -1.3139288462340597
Ni 6.375487094466487 3.6606234893522283 1.038347951057018 0.18369323668901913 0.9777100567080774 -0.41380028475588737
Ni 4.906320545792616 7.928822115691482 2.7472023556047724 1.5626442534307345 0.5339271095471707 -0.37596624462724926
Ni 0.6417452293520208 2.635658069042977 0.0648221769891121 -0.946199644804622 -0.013140908257332207 -0.30924508915061577
Ni 3.60289043675923 6.289615473972096 13.017661518062324 0.45196522586138294 0.4482114152459055 1.186825333014627
Ni 2.0426695700861877 4.557633052891527 13.405656017286326 0.43956608086608173 -0.6213083644763171 -0.7862631442155684
Ni 4.0547282607404345 1.0219253927976137 11.516851213139303 0.16846022178934858 -0.5375071135889453 -0.47162568040478775
Ni 2.194084916268236 0.1395088769851135 4.617887863245684 -2.0583822535026934 1.6523335876677674 -1.101270075550626
Ni 3.4216242180231493 8.19296571095718 6.170428997768093 0.79815089679209 -0.1649223838394192 0.8309059797359238
Ni 2.908372344281242 5.96414939603942 5.368038459186642 -0.6072428875221865 0.3728243565641579 0.18434655400230185
Ni 4.40889146584622 4.79790510682337 4.17595118910886 1.1485665466437445 -1.4625437511627069 -1.8489921262682028
Ni 0.5062350873498355 3.251666535361986 8.011323151465893 -0.8561439283671062 -0.2522110790547592 -1.0528646876640448
Ni 4.818187218083241 0.47457942737850267 7.914481793143363 -0.8112411543171447 -1.2211737285875097 0.439508745265585
Ni 7.0943162503282045 1.219234166354144 4.291179219851173 0.07428585519776883 0.4542010571704372 1.2793091992776613
Ni 4.444327931117417 3.8685082622338833 12.821486345126097 0.5469039814228129 1.184117961385793 -0.8517118607376816
Ni 6.132120072766773 7.022051499961203 0.9823152993944749 -2.5574619163533767 0.1794218630071749 0.019627030202308132
Ni 8.67871998645376 5.068705629802802 0.2423387232371941 -1.0709850514138393 -1.086855957007825 1.1855690920100228
Ni 4.934898635743885 7.503300674446565 9.393246404581387 0.35505237729271755 0.7410047865984013 0.21004524431998664
Ni 8.788902670331883 5.096148287791893 9.102629846849139 0.6690352382386348 2.2774721245234515 2.42282609931264
Ni 7.969642726073654 7.37141658935585 12.640548852256487 0.9901102301446433 -1.0266576902513738 0.6615808388431187
Ni 1.830325479740173 3.041602465649699 2.130251663891344 -0.3203350284161902 -0.007178777136626346 0.07172657911102485
Ni 9.095084718326278 4.446067705898174 3.3659614974192515 0.1281916040772889 2.0726120239488304 -0.098821635555604
Ni 8.971011306330224 5.294088874295119 6.580938929667894 1.1657145191779406 -0.0481297656276913 -1.1600112981455764
P 5.791884222616411 0.6455214562971996 10.027914413259479 -0.19683440205666747 0.16525457036785732 0.23485201895102134
P 6.467686001137208 5.537803850950985 12.935348194830048 0.19399436150471108 -1.3240975592369455 -1.2367466433251022
P 5.169264612130527 1.912900684860499 0.21182673626647433 -0.9082031109561907 1.2456925396644805 -0.24748127767925768
P 8.483068577293636 3.3090241628707155 1.7018769920059844 0.6647016438602875 -0.5420811061128729 -1.1559342998627253
P 5.940497615730504 8.584415036627387 6.3044337767494545 -0.1629503477147129 -0.5566088674154027 -0.14801840899522895
P 8.76518679305736 6.2470367753904235 4.442592734691347 -1.0638921491227997 0.8547689023964504 0.6193525263015269
P 5.429058770444333 5.468817202539304 8.536806557587456 0.3842819635817962 -0.33139539999540996 0.09386943375665124
P 3.2503113423748697 7.617484840320424 3.9234750729254784 -0.8656323274735157 -0.8156143436841761 0.4644985824417033
Ni 3.096515251755997 6.853549734090252 8.019217150615841 -0.7333138457120467 0.4339340793912849 -1.265392332086253
Ni 4.468107905357547 8.952752827841653 0.6089266672903929 1.4694052541692304 0.5655596488507872 -0.6296963314296962
Ni 2.683511032223153 9.138304386564018 9.376869629868844 0.766103638548558 -1.6804308601246158 0.6181883307900966
Ni 2.8269966680887 7.625927326361779 1.6492616242812221 -0.48460538049390733 -0.3133519122301378 0.35835290242086026
Ni 5.662536546021853 7.633902820225141 12.165416359631891 0.08899436505253706 0.05961514055947153 -0.8698250253986246
Ni 8.160138907857116 6.842552526133996 1.7225830589097981 3.785108654259739 -0.6270612077996942 0.7870879541097089
Ni 1.4339590011369836 1.490217823521025 6.503195720083386 0.19667807898446127 0.17624346527919324 -1.1128518668509546
Ni 6.997465735296303 5.721377560448911 10.7354872262897 1.2942632494843325 -0.031237103637410713 -0.012550068750868709
Ni 4.74363329037314 5.62818972916597 10.937586790189872 -1.6312294586993006 -0.6343042625153527 -0.011903950526437564
Ni 4.451103896052995 4.212379326005088 6.410495025739057 0.5261672630960939 -1.2125291655386343 0.9792730303198232
Ni 2.1376612731154916 6.337825548817795 9.922603098767476 -0.5269478500158603 -0.8891520078620105 1.6183181499542707
Ni 0.4797804383020273 0.1806719482978119 13.114395742885195 -1.752092647435976 0.38495842082353054 0.3021845827594086
Ni 2.975729098424635 2.25435437735739 0.13270818893423011 -0.7575961152981792 -1.284711087019523 -0.8524289414093642
Ni 5.776418540486422 1.1669218857096082 2.118445002826568 1.9243997537752404 -0.4610556181984253 1.102369479262392
Ni 4.973732240192243 6.468482634852608 6.648202285375689 0.7603495096736003 0.07500242164881922 0.8452285670061831
Ni 2.5426625286568565 8.5835817760745 12.926153942949218 0.5403970335422307 -1.6502088280152805 -2.4367290825469774
Ni 3.0158629556038754 2.452725329201119 4.3087088242737 1.5231271691727188 -0.08357576514012703 0.754256766512301
Ni 2.0180654920025423 3.8261401679677767 6.076590124448774 -0.2991277982109558 -0.11189543802042663 1.9103756715820066
Ni 7.38006967971277 6.9448970667893395 6.911761682583426 -2.207603424556772 -0.744617443650324 -1.0803546655541976
Ni 6.197334156917023 1.9578784412977404 6.70052280705866 0.05577339821587814 -0.18618952074831158 -1.4590269962587001
Ni 7.795143315563777 1.4772427663403305 0.672639966774507 0.03797956456756685 0.02046109606782928 0.2251602455845542
Ni 1.6281087099600349 5.644690119455039 2.118618980304644 0.0782317272193943 -1.0577379565959462 0.4116870950676265
Ni 7.48487737518929 3.3249934640161856 12.300680186151958 0.013803224431679454 0.03297156983001418 -0.3411506796099608
Ni 6.334858774981137 0.8085447629506428 12.427956615086478 0.6664692772836716 -1.2073946725255462 -1.7981899560146706
P 1.1059839848362694 1.2071930935294346 10.78981856135085 -0.3088799925017132 -0.10218412426993369 0.07495434201970318
P 8.136935806307447 2.4867882880664562 6.209790028676302 1.7987052050881926 1.0062732130577507 0.13095991085104544
P 2.0421110108144713 4.280560183991998 4.060026332783306 0.24951836271394448 1.8311293870551688 -1.4476822606698423
P 4.532717646689219 5.18985805150906 1.9167877079890838 0.45737482691272846 0.4432034205083528 -0.2544147715742973
P 5.302650397558315 2.425438335271359 4.235870863899987 -0.8306105599826921 1.6870087704524495 -0.5668341446878368
P 7.377633995019711 8.762531347339362 1.7116874904275765 -0.7278800762909851 1.1112552117877958 -0.9987859035417703
P 1.707067014878262 8.629227972295926 7.493036918911038 0.9176917671729163 1.1288184174825397 0.6457711255043717
P 1.41881380383503 5.1617469537357845 7.961656244159044 1.8499514048576786 1.3181737375533429 -0.11545410190596245
