# total energy = -381181.65111532575 ev
CRYSTAL
PRIMVEC
9.08455793184192 0.00000000000000 0.00000000000000
0.00000000000000 9.08455793184192 0.00000000000000
0.00000000000000 0.00000000000000 13.29616881444812
PRIMCOORD
 96 1
Ni 5.06548575238438 3.5422325488272137 11.471229012896233 -0.23271440378272826 -1.1271263744920974 0.48345506893954804
Ni 2.466239371933116 1.056661238220058 1.860213981997965 0.7157946058813608 1.8899971079256548 0.6328580169871294
Ni 3.3825260253828424 6.825228160623222 5.3662672799937114 -1.0842699414482038 0.258047226120562 -1.023049146964509
Ni 2.69060069215528 1.8614985384493323 12.790182324884375 1.2219162631804892 -0.719380009239774 -0.32080219786059594
Ni 3.6735407450652655 1.473578842340225 8.11239097157944 -0.17135785505211776 0.2387780934783049 -1.8151903472274094
Ni 8.238739907797681 1.943432163872813 7.236918510272976 2.5712574274755715 -0.500252343002545 -1.7780944708163762
Ni 5.02862061745052 1.3711050320755773 3.4485743933037734 -0.7197206804086443 0.05020695987169417 0.36858023657582323
Ni 5.995326565844288 1.0669994648229986 7.463099467391949 0.42412274972781794 -0.9662514212491747 2.0650779203553142
Ni 0.9326661108883045 0.9114990915694543 10.953995180952717 -1.6390656669142674 1.6426703535463902 0.6373469059964184
Ni 3.5992199789504533 8.174920890323465 2.467809183494617 0.5065479462032696 -0.5228489973561382 -0.6180435776821164
Ni 5.229134973847799 3.763059976124471 4.08393109451565 1.1717506980696917 -1.0605394306004832 0.14221851448400022
Ni 4.591517126237441 5.963766812576613 3.4743954315054757 0.11590944427582618 1.0902433854228193 -1.9306218234255526
Ni 4.8297959887756905 7.681320535100116 7.029378156991062 1.9113632323062564 0.4238756667140184 -0.038152599810321396
Ni 6.666357416482429 8.542400331725528 11.25146992957833 0.8689022564740391 -1.1817119230474618 -1.1873799199665165
Ni 1.0873761276265095 5.863082660168537 10.765202629288101 -0.18329625836091656 -0.6499946766674161 -0.48516459543148704
Ni 4.626020276182931 8.897061462286864 9.692295476626887 -0.6032738755721094 0.7423222198582441 -0.35993798751979306
Ni 0.20683811697575616 4.357807796195922 7.959152653180143 -1.530927381943428 -2.235497836974195 -0.790935095769941
Ni 8.861577180115434 0.6057146980636038 4.72766557479012 0.1779301089529968 0.94092065579387 -0.22392637317745304
Ni 7.288140880113063 1.9562413901558937 11.157931690215836 -1.1338040436225894 0.6382455065512879 -1.7134921614549585
Ni 4.777768727128027 1.268449530657978 1.114431757212518 -0.12233026020050544 -0.22828182193267135 -0.02196416297591701
Ni 6.945216998032396 7.953457543990878 8.307126640857097 -1.1253340584783653 -1.4269239450765683 0.3344971788491852
Ni 6.12330072942568 8.397992203359674 0.2972957828399564 -0.15541521567993236 1.1704150099774036 -0.5564402030480223
Ni 1.040944953489753 8.63774276423683 2.7007844812782116 -0.8907975138852335 -0.6942575031405334 0.7532931170474509
Ni 7.318065413004176 6.274794812756644 0.3332642719340007 -2.001371897555921 -0.9086324851841254 -0.19018115840620795
P 8.160540035567353 0.4420127861658288 12.522930082640713 0.21123617930429428 -1.215282045693423 -0.3611921716418683
Ni 7.7355099214679015 2.9826873896401165 3.6615518543377603 -0.39388323411698617 -0.03139548359214593 0.8515501383488366
P 4.4407861457488735 5.049842144115256 5.603789398879917 -1.0910129165989921 -1.3765526917128679 1.4837972612248447
Ni 6.905399381863075 1.9243909310434952 0.17879499597345638 -0.867634445505209 -0.13435402413425893 0.9816842108644769
P 6.256089708560286 3.0011926335682273 2.1142236645587555 -1.6409685403639351 -1.276951754789078 0.9144503774174833
P 8.445686131009444 5.576374020811064 4.491924029202839 0.45441882960819807 -0.48136039119404844 0.27403177447427646
P 9.481007743315347 5.034543749036739 13.104238208128342 -0.006702094610523942 0.25187606431284365 -0.4679153214327361
Ni 3.4095707534996738 5.717538962096735 7.677673085204615 0.4847138810473136 -0.30772556718229577 0.05548414911023347
Ni 5.045754093173847 0.8985236178814228 12.066365652035 -0.9548997436817814 0.5227271270662933 -0.3145916981745098
Ni 1.8045201928837409 7.419530837369942 0.7166153440021424 1.422252250632512 -1.4633680468362154 1.157860827461477
Ni 8.011780404088311 3.741938379593859 1.1968068921376704 1.2527167935011134 0.6701516112312653 -0.25782945368280114
Ni 2.1508416995246016 4.145419922953263 9.310562364275777 0.6843885807662536 -0.529430764338714 -1.5708650986786301
Ni 5.307371184308717 8.174430324210496 4.177881772795343 0.32070475305078316 0.3240271325557968 0.28163812606662464
Ni 7.288713207244861 0.7689042409100555 2.830860811499252 -2.043621807364067 -1.085570405427182 -0.07932161784946339
Ni 1.6683335891889415 1.0112475345398297 6.339453243357495 -1.4151387795161823 1.5175864418601477 1.1348769649717938
Ni 6.89855870995445 3.024076634282469 8.538852811964151 -0.801628056707413 0.6348855889401195 1.125559287115294
Ni 2.630315567605971 8.14118084322037 7.1135302313920805 -0.43339903282342135 -0.07606428725443029 0.5153591167369963
Ni 6.923196030294673 5.155259351057717 2.8893372006209286 -0.020867587477628576 1.4478887202536936 -0.12926709652965476
Ni 2.751076592415188 9.22200700478298 4.6029073446159705 0.911303090037753 -1.1762971797897934 -1.6541469867274223
Ni 3.353319172545888 2.354399382733818 5.101367938180773 0.45411209700105665 -0.16760815820169844 -0.8548275235485279
Ni 2.7223057983453174 5.776615840478916 12.620882508564163 -1.3264128376336835 0.6177108769330458 0.06759610188241906
Ni 1.9954230872898855 3.717900640058375 11.596373336770403 -0.41110345465001463 0.02050840436599694 0.5174586795785023
Ni 4.651738658883216 6.576002406119646 0.6760927661593685 -0.831676282243045 -0.5415077501079061 0.05208412228974902
Ni 7.002549641346243 8.42228431050929 5.922711879655691 0.43110560880355425 -0.6329608611135809 -0.3306279257017661
Ni 8.319755992898756 6.245260915844377 6.704978596409565 -1.2670560929419212 0.7644036251383158 -0.7052474264931338
Ni 6.627584524442577 1.5339366433507144 5.287606820690652 0.10676094500733871 0.6633147908150899 -0.877275825249715
Ni 2.027482491228178 8.115871265614228 11.01115521767126 0.10901143160441225 -0.8485303776859062 0.6533363394461393
Ni 2.6734399627590104 5.285695429761603 1.7498420573145153 1.117490136953914 0.809326196682619 -0.41582425716445165
Ni 9.233181010689496 3.4431745322380545 10.171409596225411 -1.62896148860073 -0.9687543901766864 0.17131337496742755
Ni 3.7797483085230668 3.2634728974113703 2.2760250869966576 0.35877019246393693 -0.7339417091040328 -0.7880739721720621
Ni 0.5761063077786268 4.0986071973953075 2.8841517351156924 0.9186389615775341 1.0156934779303863 1.793747603972601
Ni 3.1513603714826446 1.9061218856142217 10.307934145464701 -0.3687131626092618 0.35254400904856703 0.6874245393791
P 5.351485796245342 1.789939477859383 10.071023417308178 0.5690470931787555 0.8642513879655891 -1.4744263615329058
Ni 6.054276260419404 5.291745745154887 7.6533546328378215 0.48127528767940986 0.2837996524943177 0.35895608322249795
P 5.915645910717407 5.986641728733207 11.909498052855495 -0.3668835655996907 0.13292114834247432 0.020147678592468528
Ni 8.841909112808434 7.835503647494763 9.930429894698538 0.31838381822709044 -0.10726076746189268 -0.06197618459248036
P 4.5416519893099006 0.5738551543935576 6.057335030979343 -0.8962382252848307 -0.006943778307684816 -1.429132779802429
P 3.5958677771784977 3.958450642008518 13.190716837742904 -1.7934182456576402 -1.278106694329128 -0.011740428365379781
P 2.730336547305774 7.245679657668297 9.197624052056888 1.511878592842093 -0.10291997399469371 0.44432982080331224
Ni 9.021510817500996 7.209277835174463 12.334310137571405 0.6406787985831289 0.26313929593148877 -0.3944285650974949
Ni -0.01843892665728332 6.2122022105648504 1.7697336047396461 1.3866075048457087 -1.2374650095483657 0.31926159284635336
Ni 9.159959476050041 1.6450589524958539 2.221909285545817 1.7141693900276411 1.1021869309379404 -0.8332500544880682
Ni 1.33640202186184 5.383981258950717 6.024773251003139 0.11412664134379052 0.31687586622299624 -1.6666494900698072
Ni 2.8594008578048737 4.5367826664108 4.0566610693691585 -1.0243956336900746 -0.790183305205581 1.0239621456970818
Ni 7.538338682284931 4.286712048045999 12.20225246532743 0.40852772350303834 0.09941298928269976 0.113675669849301
Ni 5.456703142919557 4.261738599072815 0.5217415894482428 2.5495349481968157 0.32823499998955724 0.5494766272459957
Ni 1.081661940866185 0.24959004526524492 13.404000448369613 -0.7119029841364385 2.1006820427121693 -1.1049524094982197
Ni 1.6680065451136288 3.4629152760062354 0.9181226425503015 -1.3587434314455888 -0.9131038906919177 -0.8854005112393784
Ni 1.07351309265631 6.376287490795353 8.15096309489528 0.41564530838442615 1.6889826063493687 1.0113827663701744
Ni 1.6728849525703768 0.26286167553258744 8.882625191729101 -0.285415847941502 -0.30065220527528225 0.33234876504761474
Ni 4.139197000964673 7.483295347498273 11.716716471927832 2.046275442936831 -0.3691330237554997 -0.21283900501503988
Ni -0.20186523011947352 8.65920957395805 7.309688542397346 1.16617680352634 0.41532186360673634 0.12214976875858317
Ni 7.966203178370426 7.642783841559102 3.468571321597616 -0.4449728537039498 -0.9295517518352959 0.7273565996873473
Ni 5.057981907767483 6.734646036319251 9.300124207538714 -0.031282355053049354 -1.0543870378458422 0.7227844069356326
Ni 2.620077271137154 3.5938419208230883 6.896270309883025 -0.2994728402552004 -0.587651081433188 0.7511945826472095
Ni 1.9016068604633767 6.60097585509283 3.3071423660232635 -0.7025742505363448 0.5119503481657635 1.7355105747075787
Ni 7.422846700911308 3.9746211546212016 6.103432801850433 -0.19678940775134496 -0.039445093369499806 -0.571701242972151
Ni 3.7184911363054676 5.198619944709594 10.581849002287093 0.1884186671891465 1.21898674823852 0.0054088297203971365
Ni 0.9702489258763229 7.8238027372446854 5.490200632333461 -0.3581418148513187 -1.1212105232282947 -0.9421054201305904
Ni 0.43680460926647396 3.1296391941472925 5.347772029079013 0.73341257607344 -0.04969531034259828 0.42098266143693946
Ni 6.173747278042666 6.124772427764587 5.400597823343897 1.5257064998641208 0.6962619351650718 -0.8209200721678055
Ni 7.882870531069219 0.7129306474202859 9.188330549583418 0.13100773336984534 1.4683431314533035 0.8135255794759473
Ni 4.624012588942818 3.7625239872232643 8.853306598833083 -0.5861125333014745 -0.6390291787948478 0.49139720660476016
Ni 5.098971431873342 3.0896762250556096 6.483716927256754 0.18561359364018357 0.8460580048860138 0.9268793472094552
P 5.999214756517452 7.443713929827788 2.146865388642258 0.6141105611762971 -0.5223509746737972 2.004867055193373
Ni 8.354549848688968 8.263931386154407 1.057257185201739 -0.6520585011749803 1.5427680833320978 1.1992805280588443
P 1.2862734327625203 2.2099004087914875 8.193724107742415 -0.34988754526232646 1.720936533548146 0.2365579458985345
Ni 6.633662093508805 4.7000230827800795 10.182458235236393 0.31963748812853343 1.4063260663205586 -1.630237527099676
P 3.4089439190219912 8.844788917582715 -0.07967429593652849 -0.0550383198220665 0.3825333563218057 0.8914222919534261
P 7.993656711581398 6.116768932477074 8.949438479403957 -0.42241682278030473 -1.0946901083402631 0.11410350141533897
P 1.633167266535178 2.218339962846085 3.7810982737894965 -0.21264051585098864 -0.4062774940162809 -0.8070764814164939
Ni 9.044549255695246 2.4572184061890736 12.518462297189634 1.9023903393836852 0.7310731293069861 1.2336759748195785
