# total energy = -340865.55906782014 ev
CRYSTAL
PRIMVEC
9.33004376820504 0.00000000000000 0.00000000000000
0.00000000000000 9.33004376820504 0.00000000000000
0.00000000000000 0.00000000000000 13.65546215004557
PRIMCOORD
 96 1
Ni 7.06908471625724 0.9076536872211765 3.266660015633105 0.78334288524498 2.095569146965636 -0.08865343677335054
Ni 8.288652020186593 5.9620657268718515 4.551747549926794 -0.43131901036594106 -0.8842404294930063 -0.9101903165895485
Ni 7.29247394738765 8.15725701780554 8.047313651402225 0.6399524619400656 0.9228095480154558 -0.04010252444784061
Ni 8.418834116914764 2.4513942849962973 7.083470710304769 -0.1647974282257807 0.436041612652591 0.26316346430120485
Ni 8.174993430468067 8.32155908355363 12.81251020413189 1.4780192210904868 2.725640345236248 -1.5813608560036314
Ni 6.984601172512268 5.958100458391276 8.326936920617639 -0.5067778028258886 -0.9649704976542222 0.022758119632122095
Ni 2.824176172387834 4.400337738264491 1.04884710126882 0.22097191853481946 1.9015611586141703 -0.5412398411585001
Ni 0.24333313208118396 0.8647951994744172 2.8437496706123038 -0.9430927237445241 0.4693137444421595 1.8265728780327382
Ni 1.7658133597699808 2.2048198958088734 4.812430830870281 -1.4365519550846357 1.1590836441249843 -0.6159206178018425
Ni 5.371959136614315 3.7792180834671094 1.121651296580887 -1.329317412874988 0.18798492208583753 1.5201868555974722
Ni 5.767664940845321 1.7065209334310192 5.085484816468815 -0.4035626661882792 -0.6645453207880814 0.6846590608188209
Ni 5.198205736817228 7.830864106614997 12.359586042228349 3.007839228902349 -1.4816511614161192 -0.3862048916361219
Ni 4.207037897369037 0.5269944441163457 13.013777902162428 -0.27859548258555894 1.628027406822235 -0.47777344517373854
Ni 2.01957188243986 8.701133242601305 3.766913622120796 0.7107264473298339 -0.4375693621510271 0.6879755267865635
Ni 8.312415640939596 4.0064419624693235 0.9548049279747893 1.4836175411138708 -0.6166960625152862 -1.058647355784093
Ni 1.8147587678855108 3.946272512042894 3.1078878666578076 -0.7130841489287332 0.17792959473236455 0.10787551822775615
Ni 5.801542328734662 6.282328799493599 0.9101457418356746 -1.8604222224820153 1.1231051691478464 0.6647342968704358
Ni 7.756970162224033 6.455550386812114 13.619083133254925 1.5256841312666176 -2.3683773334454563 0.10337197393044777
Ni 0.9599308538647383 6.008072171290014 0.4989474003999722 0.7254565544511571 -0.006066775019370197 -1.799129951330437
Ni 6.622147643257196 4.301196696206614 13.020223096200974 -1.1050274857105291 0.526491736315048 -1.4090648054079604
Ni 0.9668164259557145 2.4944057854561894 1.379147434670339 0.08260285970389644 0.23940030044333607 -0.7682402252755866
Ni -0.03312072136281355 5.339117383551664 9.790993349015809 1.290799716415764 2.4353376015160895 0.3024221526915114
Ni 2.367563844295185 7.551018782364672 9.736644912718862 -1.338297247776095 -1.4507287608056498 1.4616762609560892
Ni 6.3387382423960945 1.6468179851787743 0.5680867546316389 -0.5350121150812334 -0.67541980160874 -0.9370614299487797
P 8.708046804822732 1.38212465154599 5.126096629744698 0.3225096674700058 -0.3372006938232773 -0.5841793208345035
P 6.781103594089122 2.397289362834277 12.075252034058012 0.5814110140607471 0.44434241920880246 -0.008346057971850143
P 4.094172361346626 3.2349033466276094 5.583390984016005 0.15865557699410096 -0.7232176378183094 0.4080453845499811
P 2.4717151197038127 1.3898032773330815 2.9153316302280055 -0.2146809433197851 -0.022569400660083713 1.2010661592043572
P 6.950369242970544 2.744814822515417 2.3279690057590265 -0.12995898039035683 0.25014262656150466 -0.2073988078360751
P 0.5641224191554116 4.496754407625125 5.10843952245178 0.0022594854581380443 -0.09707714206067153 0.16973163230260446
P 7.81395806782252 6.928751532218794 2.2230274756673287 -0.28948950379024335 -0.46275563160866756 0.6149644245361603
P 2.6544813415061608 1.9059132927213336 9.004712331465486 -0.8728298736632194 0.43703123025936985 -0.8175251875536437
Ni 2.5626830436699617 7.013906839094593 7.417564639386764 -0.3759140512330752 -2.3539375038710424 -0.03447746495157933
Ni 0.6661837648236887 8.128436513484367 1.8840166136694205 -0.586993393244531 -2.516279014357163 -0.27644809722525293
Ni 9.410375158102305 6.828817436464803 7.986533083127613 -0.5240399323404459 0.6615471573917059 1.316369080244436
Ni 8.654445705008833 3.575617874565643 3.4562660923133586 0.6928354259820262 -1.3847084880507832 0.8078048749420862
Ni 8.739768952667339 8.68803386155018 6.267433385071859 -0.09750651628860627 1.950495422421028 1.1049884049424776
Ni 3.806200569221992 0.7773120467494331 10.387519009190136 1.4333709862534927 0.7890389071884928 0.6699194406158011
Ni 4.330231791527912 7.734745998645841 2.6611625856448438 -0.1957095444236049 0.0747522533112261 0.11134367928201469
Ni 1.621272326120383 5.3092425843168325 11.662911695299904 -0.26171567611108476 -0.4425395616721088 0.22889400159537354
Ni 0.8613029641984654 4.616822737216958 7.328108182464976 -0.8174933058744437 -0.2890058792856055 -0.1907267464970328
Ni 0.9725264125677435 3.1911920929064395 10.60013390610556 0.6217397955867808 -1.327693761228636 -1.03041690018349
Ni 0.5511741848087222 6.797403180055159 5.833708586649093 2.0345100748707865 -1.1262946226194215 -1.3470937630218025
Ni 2.460407107001559 5.426222669515559 4.7496974844945274 -0.8497639929826913 1.306371345601776 -0.3562217150104704
Ni 6.815438154109166 4.378253525338555 10.281620216637009 -0.1833353391289681 0.5005199948416348 0.14051155909522253
Ni 6.140568118802145 3.8160251050103358 6.9560512394521234 0.8549020855402051 0.012686851439049119 0.6192437686378045
Ni 9.116161566887069 1.7310682778366537 12.347486841838677 -0.7291005789616476 -0.5819728001014881 0.5938258427853321
Ni 3.7127228635587257 6.216244101498497 11.359227176944357 0.8912626264471101 -0.5537978803291688 -0.643766179259201
Ni 3.929077241902421 2.8848774352928355 3.3896271897353256 0.9874308835402672 1.4371883031170538 1.9464413069563125
Ni 8.016168100244913 8.483453998082924 4.107672001263203 1.545591668823822 -2.307673073586865 -0.5920288987859094
Ni 3.848083134420355 7.603099085090728 5.4429579685122835 -0.23442495871593175 1.275227315898804 -2.425876713213506
Ni 4.887720549766407 8.070823494972473 9.432196263802 1.2709114621322692 -0.7902974621859422 0.15335061984141976
Ni 6.641992645747042 9.703151922621048 11.405328787806052 -0.47701599818242363 -0.7247602997150808 0.9548604058034137
Ni 3.5676220273001054 2.3003128908646207 1.2290531591392384 0.3368386824981683 -1.1071242203385578 -1.1124939692909035
Ni 3.026320894505843 3.6616408754854266 7.598786738992558 -0.815516641764047 -1.219232802811055 -0.5797850484215499
Ni 7.235840583441545 -0.5275467826905811 1.4465364727444623 0.7941808564007483 -0.29898278799265926 -0.5283583572101417
P 3.3766360371886113 8.41305881999835 11.567363652987604 -1.1086062042007228 -0.5185511413117327 -1.0440586593366405
P 2.4999571613289953 6.454169540376524 2.4504724767001074 -0.7495904713848832 -0.18175642467762249 -0.3481901029552455
P 6.061617290843012 0.520797429234467 8.595416385896112 0.4131449105600756 0.8738642284650048 2.0183987711312206
P 5.21819068995933 8.711153709302808 0.7424717983725722 0.1586895155558299 -0.5301049075876032 1.6003685074543859
P 4.376499477163618 5.2616127123325045 13.223402520141326 0.1694801784134307 -0.0660578108610217 0.04907258915693484
P 0.1572448208570141 8.772657355947407 8.844560269058949 -0.7594282834109114 0.45626231057484 0.2792449432440997
P 1.593188895234423 8.614559769115983 6.393391771114956 1.5084425705773505 0.7814011881375769 -1.3462560976118558
P 2.572358298762566 5.342812080771212 9.27552710662793 -0.15395945707001224 -0.2623538239157159 0.3113443948818057
Ni 8.223099134670063 1.1643800967232225 9.81349741389851 0.9524659374293081 0.13094576978365838 -0.7171575476671584
Ni 4.206571395194852 3.045643414560601 12.783123366171255 0.9646866478652161 0.6586652078582204 -0.28516619382454117
Ni 1.2932839774941265 0.404971470414676 10.399357901366612 -0.016417779236391077 0.9369292752462897 -0.26124362157067266
Ni 6.029997773476726 6.4979461044020805 3.9894295611811317 0.8486764163454673 1.6121367037339076 1.082761218113161
Ni 5.699574283501223 8.958399861621059 6.729220155280572 -1.2556481082152957 0.4274207037527994 -2.77536059527951
Ni 7.78857101950335 7.901203304438669 10.181826071535271 0.49740484625142084 -0.9646182565211256 1.9615485949113962
Ni 3.5964425316212782 3.22728070110142 10.592132460813932 -0.5200099852454464 0.6956762378649309 -1.452856348671614
Ni 3.111438881207707 -0.2553567591186379 8.326445227326047 -0.05071655251826104 2.6718279274014822 -2.21324930998864
Ni 4.885052157330067 1.8341559282881388 7.299130933413276 -1.148174196301332 0.3553449688324719 1.0661385219548154
Ni 1.6512684159205027 8.651114879485148 12.713316913830504 -1.8652322422761491 -0.6055984099402281 -0.08026701248186821
Ni 0.11860257976054242 5.65620824138895 2.5118128475837427 1.0606481882642058 -0.1973347387318537 0.9822012597102118
Ni 2.230300244562879 1.7559981540251202 12.249331985377028 0.07557474921252146 0.40429157393450366 0.3152329313029345
Ni 8.645236952090414 4.223822645596227 11.865885858283615 0.4361868799812036 0.2752833874931904 1.3451407530604897
Ni 2.501030116329622 0.3076068686360971 1.1077812539380072 -0.08315898931768259 -1.4256108826920997 0.11088936535341547
Ni 4.7783631100938715 0.8707972164474863 2.84589371460486 -0.24993899519113086 -1.9039530558851145 -0.49458048942874816
Ni 4.732300685414806 4.536304461952562 8.66324300300962 0.807600472240764 0.9870873841579194 1.7629059360013963
Ni 4.291269529939949 5.39801794806431 5.970044780059119 1.949552341781468 -0.9727830517201054 1.3483577173358907
Ni 4.35810996145723 5.205716421821613 3.2669193908419514 -1.330794768751463 0.14412061660271952 -1.163417238503332
Ni 3.295520639141257 0.7086811798876284 5.559684276528253 1.0917631645014552 -0.5895961209747007 0.26017070022146804
Ni 6.070602122717822 3.9568154611794837 4.6514595906458736 0.31599397783867517 1.052529415811813 -1.3517508021778397
Ni 6.03156522078199 2.183687347318276 10.026891369444824 -1.3166809550579002 0.8069211867855522 -1.0331890636119885
Ni 1.329708467254521 1.3921637783344596 6.9314852349595215 -0.1965533804811389 -0.1435485461493334 1.725789233654757
Ni 6.8652979064860995 4.8405758400432335 2.458106318278477 -0.09691927632656856 1.8925849232574887 1.3644592508834437
Ni 3.363853877615932 7.355638341772352 0.2563718678496653 -0.17559349040002015 -1.048848110305484 0.6487980852561536
P 8.53667256611399 3.686552091586926 9.047426203538247 -0.9757907281981777 -3.355127388868615 -1.5276553960603754
P 0.3743801238402955 0.43270409166564844 0.6175966303779332 -1.4835445217840901 0.6625519445071364 -1.5511771333313995
P 5.923672597936395 6.370451060197216 10.625574135672585 0.3436888726507823 0.016365585842216975 -0.3903063153990052
P 7.004987317524169 5.649397309645844 6.138826199683737 -0.9912805963036606 -0.6398131081487239 0.22033505628176892
P 5.92222644119642 8.746402613584253 4.469992110896458 -1.931306508197403 0.07435707475533646 0.025001921360976294
P 4.72956698267408 7.1434358327789065 7.24571083644296 0.6875314972706094 -0.7980025441396837 2.0247709932061517
P 1.3917252662907251 3.5524233864651458 13.226420789208305 -0.7158272588915091 0.9645354669993325 -1.420971069927243
P 9.295755573904957 6.718853543965825 11.529292410552333 -0.8824352579634674 0.3723019084017846 1.6158977134382364
