# total energy = -340859.1541646689 ev
CRYSTAL
PRIMVEC
9.37217906275325 0.00000000000000 0.00000000000000

0.00000000000000 9.37217906275325 0.00000000000000

0.00000000000000 0.00000000000000 13.71713141271693

PRIMCOORD
 96 1
Ni 7.518502752108101 5.141652496934762 4.22061095637435 0.4980802750518905 -0.0703240423365434 -0.682518103216418
Ni 6.1509424770205525 6.308694997633459 7.007835199699127 -1.134575374570975 2.7904866522876715 1.6535060107093136
Ni 3.8025086692389882 2.7782138302237036 8.613426333717188 2.0046886206339796 0.6757990393250296 -0.45536756667471256
Ni 3.0672893260521565 1.0132637840746124 5.802881296841965 1.4334494048999118 -1.442157474196871 -1.0197784466330373
Ni 8.466414330489165 0.3071160036069571 3.4787607963901306 0.6454803337368302 -0.04327655130044805 -0.854631862597954
Ni 5.465883037013395 4.061874356943456 3.9171463537910856 1.6308965008399137 0.7407039675285307 -0.8570085903602467
Ni 3.3900671783518552 6.861466127965523 11.181025740879493 1.7279841844235468 0.5540760736912199 -0.020373164339713302
Ni 1.7327566105320917 1.438938792018864 3.543793410772314 -1.7685762469132957 0.4528784817042716 1.3524447429210709
Ni 0.4239233476482349 6.062159823279697 4.235287789031183 0.2932068047408305 0.8095092592277027 -0.35146594549303983
Ni 6.497338220951937 7.000015053358857 9.772139778744027 -2.2334072729937535 -1.8735183935443411 1.4705848762996285
Ni 7.447902126051956 8.45818555713495 13.447356447049529 0.13006773805407923 0.044024228099749985 0.34149726431610217
Ni 2.760987764819324 8.142802354238981 8.684507752567262 -0.594299439987641 -0.5017189002457424 0.5091511881540715
Ni 8.67386751750002 8.709603636861772 6.353597108271318 0.13918949784968931 1.3664114895138082 -0.6108223773433287
Ni 7.470948314751286 4.5486934621119595 8.844436493194804 -0.28518881953236047 1.3786309143981355 -1.252319815173011
Ni 9.496548037157837 3.443151201447834 4.521070838300028 1.1901700811171438 0.6855368354380837 -0.234549400108938
Ni 5.346968827083703 6.478303324958304 4.424309648390104 -0.7475850109190803 0.2239196883092337 -0.10652028975144236
Ni 0.034439009757853474 0.30378325667670825 1.0882674599278073 -1.025530518625466 -0.7138732204889319 -0.46149990482469544
Ni 5.268992295982266 4.655208278935016 9.930984158235939 1.7350020105022765 -0.25045270160275573 0.2623643654386772
Ni 1.9761989657436096 5.696194969139202 8.375858460440089 -2.2339148087577914 -0.1782216720514866 0.7319691587586942
Ni 3.5865361713181327 0.080492024003796 13.265893250230668 0.4330007689437381 0.01294344753454545 0.2887551967273801
Ni 4.831170943770291 9.270313002992262 7.703060642505049 -0.10580835128608229 0.48166635247024153 0.8874396531565941
Ni 5.382592480294829 7.949894789375895 1.3898744965898817 -2.71747015072063 0.8016265140455162 -2.058132342275417
Ni 7.793323163344572 2.467760393596888 6.436805189812759 2.0804657156652944 -1.214933918325385 2.041953161412393
Ni 7.289203015337937 9.133816584847871 9.73289471548271 -1.1559224727881836 1.5197091446301052 0.6383280389627652
P 7.827690944540361 0.7192332170931152 7.838284318711509 -0.5078332406735964 -0.16487327576903862 -0.21597806486465385
P 1.302226813752438 3.609638593092777 2.2904865608888865 -1.7722786354655478 -0.29937051034938117 -0.1949091600094966
P 6.6904144850409635 4.495721905166608 2.142602007775583 -0.8691475397156257 0.0328044481245306 0.7413179469634459
P 7.073802220349436 0.38506441817073755 1.4902158589614343 2.4714554302845695 -0.09884606103563622 -0.013478236992092918
P 0.575128463858803 7.4533661065365875 9.533447243960659 1.0825509018745678 -1.115716075772627 0.09599187941629274
P 8.836568548740518 6.729880731731847 13.216333166521006 -0.6557539477486964 -0.868770358881865 0.7642755842008837
P 0.06380111003281651 7.820193201165223 2.803918906167443 -0.12088684288575954 -0.4418003695132391 0.07737117899131192
P 4.325176359919871 4.560511780107021 7.3991302426146035 0.44889841401060104 1.1137666653557399 1.4879899591499532
Ni 3.357536344282974 2.1229954088495964 10.859784925971697 -0.6231207350947074 0.7695311761728683 0.9969912735351926
Ni 6.867801721117514 4.4580457447065385 6.366916849377251 -0.11384279155478459 -1.3977696921101153 -1.0046973839301987
Ni 1.3125268387140343 6.507113403877272 1.4197230129663068 -1.9580326113383373 -1.017436428763422 1.7768369442601915
Ni 6.987381355771749 3.7223109316626664 0.1979666672054611 -1.1362910717105013 0.8433634887729862 -0.9180393803203223
Ni 2.2803542979353093 1.069946723990657 8.6250028494884 0.16203066411392095 0.7619901306008167 1.953088379959185
Ni 8.060552109413715 7.427002166393758 8.400275798959148 2.0869875759442125 -0.478244471272886 -2.1024753871671664
Ni 1.487599146523511 8.575768917615555 4.692576094698783 -1.2033040473959404 0.12561381604778366 -0.14597489620263893
Ni 2.0631540445367746 8.795865174392736 2.0404649358656846 -0.05862295184953129 -0.7176113473751254 0.4982083159893226
Ni 0.9495142210274999 7.156539818494085 6.594016935684733 0.09188865588119659 -0.2041209084157517 1.0248450625226673
Ni 3.829219380012918 2.6504054222152544 3.5170180319617734 -1.7052039533042376 -0.976455615475686 0.8947562414226655
Ni 1.478020779361772 3.256672951528928 9.233303204474657 1.1421416169540073 1.3528941717536636 -0.9423401618492159
Ni 5.422218054032434 2.2422095285142936 6.396257393640011 0.1129562751847732 -0.9439352742504775 0.7483499141095628
Ni 6.145281680772323 6.456381797765244 13.399374638320332 -0.2503118051495173 -0.33177000972600923 -0.25737385420262127
Ni 8.88169559167963 8.02354137367819 11.436261109202182 -0.5023794166478768 0.4608257615758064 -0.7928215141593766
Ni 3.7949640649677554 8.645441697929027 4.2201170425295125 0.3916972822092609 -0.49972063886879103 -0.6163119397029901
Ni 7.442288190699821 2.3521264463938194 4.228100264788192 1.1302816322916276 2.204528128065558 -1.1501775998846064
Ni 2.558614298945125 4.488233533970689 3.7405791833961906 -0.3334394270086322 1.6294253156110259 -0.12707780218781986
Ni 4.359187998305342 3.2600375638685213 1.4211222793236917 0.12156381434812612 0.5052240851855234 -1.9128806973920476
Ni 2.1203430821306415 5.252694076320559 6.034454724290639 -0.15338173018967133 -1.7047707224215607 -0.16977714082855921
Ni 5.955438818513823 9.053075260876852 3.232085039348084 -0.29249743737863176 0.703902225319149 -0.296274902143193
Ni 1.8692811452141391 1.7354651703263604 1.2031516327933622 -0.7570674964882188 1.501871345117736 -1.4612327456607674
Ni 8.696866845303257 2.504911712020698 9.007080354142067 -1.3042874664895538 0.42425824686441777 -1.273822208021161
Ni 4.032595669063541 3.758853058437246 5.619016947707218 -1.8658811887140576 0.18538913633420329 -0.9336791437401082
Ni 4.06018736468405 6.2442987542202415 8.63626539725578 2.2121522202697195 0.23058733013739643 0.8455910925519244
P 8.262822481316507 6.318076549031601 6.037952421575142 0.19953740281012733 0.4908996981430513 0.2684900187204408
P -0.02610526799638738 1.3472695070785807 5.183525519249066 0.5526023173591709 0.1593610877015578 0.0765121734251263
P 0.2775533386967092 4.2655130670122094 7.371613524427847 0.3746153870263097 -0.8208321404396896 0.6232271787655848
P 1.6775357305741991 9.304137197793354 7.0899739155916865 -1.0832067902910119 -1.7642945888188066 -2.1420608627692723
P 4.015660141214948 0.536683784702782 9.828503127348707 0.8650641136748715 -2.19811322567815 -1.228348134848762
P 1.6047795032977017 0.7064233225366915 12.953540072876176 -1.3960390825722537 0.20240752526907077 -0.5884211268299931
P 3.2581818723831746 7.13431838156602 1.3467784048875093 1.6686068709064938 0.17291028714090223 -0.831365950091478
P 5.553765961549233 1.7423537220522685 4.088692847778403 -1.5738516921107797 -0.31522753198629583 0.6786563062681668
Ni 4.487914879877245 5.478554223317379 1.9428255727629478 0.554880057649754 0.8418496232316212 0.3444128953010004
Ni 4.601262015350898 4.797731008317174 12.771486428766524 -0.006176561124357105 0.35298109658598564 -0.45989090846636277
Ni 7.058169425412273 6.713638745145454 2.031699136642226 -0.028093158691790326 0.5181492778876238 1.0684761689490567
Ni 7.833632906165159 1.6368698449432932 13.328978325771159 0.1630894443957385 -0.22278531759447434 0.3109062789031226
Ni 2.860295375823029 2.9163128910145306 13.015500486910396 1.004769889039347 -0.8316688260438773 0.8465128330352453
Ni 0.0991004858429671 3.51165245935894 0.07133821656067417 0.9385282443022932 0.14740597222221064 0.11099812301713786
Ni 8.665704349400338 5.247417539420305 1.8084388321607365 2.098601763144373 -1.5689992491144849 -0.42777654443032137
Ni 2.0271836206945495 2.5042087985792785 6.884765365503765 -1.821993743302488 2.8845170371022193 -0.14057583667425466
Ni 6.698596397499084 0.42476403212417235 5.240533673784007 0.7581154781367588 -0.9306264729567135 2.426764258024782
Ni 1.2403141978322347 6.393738151865965 11.763277060944677 -2.8114966788804354 -2.045534708116064 -5.852202833714134
Ni 6.084831124810272 0.5972449323796168 12.078359416887718 -1.1657242893699535 0.4638617201886528 -0.6022621464781435
Ni 7.439570258726333 7.6359174133627645 4.317522101151777 1.3914830877704554 -0.9654086136329051 0.5931326733730495
Ni 2.243521633604943 5.399125004437009 13.283121190070892 2.667810064491341 -1.3426035884609329 2.705300091016999
Ni 8.260282620748178 2.5612572534848614 1.9768990675312632 0.2524964715056619 -0.18766199152878002 0.15357224893392263
Ni 1.4868962330820918 7.741204474708142 13.261036586959422 0.8229252755232924 4.146069426617092 2.365931443008125
Ni 7.603405323652322 3.271996464551867 10.967984860618316 -0.7523088987573108 -1.217408862228439 0.8723606473362846
Ni 1.8788876289135348 8.785977525316772 11.045061662514737 0.5690956870285037 1.0710680980459488 -0.33508287614932614
Ni 3.1564187504241112 4.597831797756771 10.500519305536887 -1.8879505098092713 -0.16949509081176617 0.7115399443700648
Ni 5.229610398904352 1.1724127593911395 1.01641752238178 -0.48854996696395214 0.034485949592011574 -1.134711385928207
Ni -0.04011855036452065 4.853439241594451 10.146040994247105 1.2478383823628896 0.46728925781296293 0.4955870763163917
Ni 0.1493035010470486 0.4014254314332109 9.26250691492082 0.29754451288423595 -1.8866973541284604 0.34792476510900083
Ni 7.553254792651866 5.5010943143388875 11.719244688538335 -0.020885585199757577 0.6881920136727439 0.15480380734817856
Ni 3.6553467111434634 7.069556623163264 6.303268505865703 -0.07553258312067636 0.5740661436599017 0.2711822208406233
Ni 0.7221151622029339 2.080989301590385 11.016365924182239 0.26259242228908325 -0.7826060070789553 1.7399516411980678
P 3.4376497322463258 1.0288872068325565 2.291350675812871 2.5011115625881053 -1.6483728032478062 0.037115159684742535
P 6.251890219387569 2.81591810722143 9.093429052939769 -0.14400106030571974 0.38945862268672926 0.10462307272872949
P 5.487148511661131 8.227545598736482 5.9889546686186135 -0.30152046681284844 -1.0451264384795227 -1.1980769946690464
P 4.945033549100983 8.045528506125782 12.367598925852503 0.8217633940047073 -1.0472442561534738 -0.16963418749279172
P 8.357069115541993 0.8262653782090565 11.386879096897678 -1.089431431044485 -0.15005523691959963 0.10435927754438155
P 2.652832816632955 6.6627571841659226 4.3119662733108 0.4050634191035218 -0.08536345316816911 0.9586607533861103
P 5.176816913364161 2.783124852134419 12.807864542404772 0.21355042925976772 -1.2311928033864086 0.5120596200501182
P 1.3545423181524647 3.9580680999146676 12.038607318730659 -1.1953660234957864 1.0181375685955045 -2.3619477757700293
