# total energy = -381162.53371622966 ev
CRYSTAL
PRIMVEC
9.25387451426195 0.00000000000000 0.00000000000000

0.00000000000000 9.25387451426195 0.00000000000000

0.00000000000000 0.00000000000000 13.54398074760175

PRIMCOORD
 96 1
Ni 1.2108694450255568 5.0500705226333364 6.894075237338194 -2.0550148796923575 -0.40630217660662926 -2.080081335742682
Ni 9.220634329224493 6.257395733822861 4.974459892335512 -0.49027903383991694 -1.3647600699533142 0.42329202629640644
Ni 3.406138270666197 1.7712655615854167 12.273338455444335 -1.1208441410278114 -2.6083358203851077 0.44678908097708214
Ni 1.3017887594877355 5.537934772856854 11.933574134033455 -1.320937673451725 0.5488557058325451 -0.7134507882395327
Ni 1.900273822442133 0.5547197900976614 9.973245443900206 -0.9758202958845322 -0.6847860733149883 0.8511577880064244
Ni 4.397607611204854 4.253515535327949 4.915991138690079 0.3271404813737979 0.6196217208025135 -0.8309496884896657
Ni 2.8890502855753444 5.038641987940126 10.351135727202607 0.7341592244314776 -0.6290329868140844 -0.3893498650230069
Ni 5.909468569940011 3.4992785149472994 2.8702399353964876 -0.48757011954918617 0.3733961699072279 -0.5907785713185761
Ni 0.1866043741607975 8.396539812164457 6.042822450142421 -2.53578391715931 0.5431601981096645 0.36338069465275485
Ni 3.77508098296061 1.4293534159621513 3.2858508608984542 1.0872765894850114 -0.12253671978435669 -2.149152479508731
Ni 9.122950432688844 1.7519619799092736 0.07927331372419895 -0.6968730863865095 2.3068672898561178 -0.0997066092637186
Ni 8.08138987085922 4.519943828730553 6.789760014518208 0.8161308783092783 0.41949322137560663 0.878971724894899
Ni 6.950621961302835 7.063667289086038 12.994297618650691 -2.840868961394966 -0.6285596467220916 1.1242233419126897
Ni 2.480935923599669 3.5445484677563557 3.551028030503065 -0.07208447667107586 -0.8028174490298239 1.274989745966701
Ni 0.6296641414498088 2.492345950544389 7.729481690275948 -3.0845971997896937 1.147519593436469 1.694509449704869
Ni 2.7023163571751097 5.967740216064015 3.748418720484434 1.87734316660707 1.7972327343077241 2.8424805288564596
Ni 8.389192236013518 8.822375343320292 3.7643464888358134 -1.8612979402187493 0.10382114565272442 1.322533042963303
Ni 2.465278368376259 7.431332966734569 10.67982131036676 -0.4308364143025677 1.1045816564223623 1.0539322096966106
Ni 5.852020518623858 4.746691509368392 12.860876185166289 -0.5767236358874067 0.5491544680198865 -0.13447486598283936
Ni 4.167463758718911 2.6479868614796946 1.0223078764618332 -0.31614258760139746 1.5757046861591186 -0.2572337290803312
Ni 7.1166919885128355 7.8753708685313315 1.4929932345359784 -1.1538871875257097 0.2642818941763642 2.706295879271365
Ni 9.065548650743919 7.424744208271764 10.334693443443177 0.0749581986744451 1.2852867570173347 -1.7866940395599293
Ni 7.3761706223570584 2.5846163306464125 7.694619569830823 -0.22930794920434056 0.14869049536158907 -0.41289191400900505
Ni 1.6591826367237468 0.7638610495959846 6.736302233776722 2.269984300786839 -2.3966674386394016 -0.5606141319200539
P 5.907821380324309 0.6098173573554541 2.4899926903237537 0.4772265715313329 2.052336561529246 -3.472048819348723
Ni 7.35533089755616 0.9561380486692824 9.278290592711171 -1.5858471739097593 -0.17069348199524154 2.4259019100244865
P 7.196349338018223 1.329772475206171 12.127524233570343 1.5694021409798584 0.7663705190566996 -0.2743858153795855
Ni 1.282040991847808 0.3113993460735308 12.83905647508279 3.23807560345823 -0.6818935822585418 -1.6185865731243092
P 3.56981154444661 8.53108188981999 12.408831831372307 0.24510300725506817 1.2117038414238614 0.3760518623625201
P 4.7263237321540155 6.780933669262836 5.016203193669603 -1.1380923865852979 -0.598160465604944 0.6716217680188885
P 0.38072937192092454 4.061812276457873 4.550249341497189 0.14241314699330956 -0.20056712962622233 0.10405074516502726
Ni 3.8424862029649365 2.6964864164004356 10.127253971418606 -0.8793784734150145 1.3677302083252314 2.7538018952721286
Ni 3.7031506184502265 8.610461623098013 8.099286863650043 -1.3337692779987544 0.710950390415182 -1.407116680542654
Ni 6.616501577794292 3.573004131061312 10.227668686244106 0.2373650151808622 -0.002319392161796006 -1.2590028836201415
Ni 8.304639587032252 0.9528436694378793 2.0283057995659473 -1.3463676834890554 0.37959201430529466 0.3115354278466893
Ni 8.98490113669426 4.617479663278275 9.75437466102015 -0.6003507883880436 -0.21739268582399332 -0.6861037636851474
Ni 1.2765441905459722 6.157139260246958 9.114679319888204 0.7651551585923596 0.7772650544820162 -0.7276324790565533
Ni 2.72723704051828 1.875741801817274 8.439524983422295 1.035877666187745 0.6698906442603948 -1.3539673502131842
Ni 7.250725103084865 1.9245930039593446 4.138024408581655 -0.2950448863908338 -0.2815802762454957 -0.7980624508433417
Ni 3.7002356480628897 8.93516156262462 5.203963376723665 -1.8470041493038964 -1.7410626148740593 0.5778297244673919
Ni 4.577428895543688 6.602269119204691 12.013104705461679 -0.18522484284219715 0.1303176492813562 0.002484971205382817
Ni 2.824291673605235 5.743639143460393 0.07779824616946397 -1.3058409270196027 -0.01418683302334331 0.7972759503863044
Ni 1.8972385516896042 7.079972615506635 5.87543282046501 3.25148827731971 -0.6160975096993389 1.2786494542064752
Ni 3.262305303268167 5.395702725703298 7.6795042916381995 0.44972888033169645 1.633382243376245 -0.342496652114894
Ni 9.023822931770894 0.2520403697256788 8.110649695836111 1.4061687148070878 -1.0298944520211166 -0.334022810315928
Ni 5.466106200963171 2.697319265082532 12.03593956554991 0.013630189188924911 -0.8485036382130291 -0.31617652616312647
Ni 1.3188343958479731 1.0178891515096 3.76147501165743 0.9163738196924412 3.489223531355797 -0.3422454553360364
Ni 8.335519765389535 4.351763918192575 2.6269093121106866 -1.3504788774439516 0.9040242969881528 2.4210214420037337
Ni 5.577855986352004 5.028925419982336 7.037723127251314 1.9843455382012534 1.5155164467049962 -1.6760885239955197
Ni 1.9252592829050217 2.889475963790638 5.982660237510058 0.05424770559997109 2.094435804692141 -1.5797253772827373
Ni 8.238853795020892 8.866979017183672 13.400291918036718 0.9423262778921448 0.7424613165392697 -0.9632699700233474
Ni 4.143986679758041 3.337789155488828 7.0221340506973196 -0.4698583040917198 -1.9024080799954977 0.2128616307228592
Ni 1.184838296772925 9.189282203280692 1.5429299161270478 -0.1792827663261493 0.059526951721039424 0.9970884612346892
Ni 7.385359719482854 0.49948804166330885 6.071901824571525 -1.4494354959155231 -0.8898120100435127 0.9148033898815277
Ni 0.6319618784249699 2.8679144367985896 2.321614746876922 0.2180701715069922 -1.4201087219269477 -0.34488469273109634
Ni 7.047315693294214 4.194337009527884 4.96980149204032 -0.6283914965753435 -0.20657862592762485 -1.679724320975894
P 8.802461005943945 2.463964318233396 9.771061247059661 0.19581238855005634 -0.10818687882058788 0.09560107173577728
Ni 5.6763912393182405 7.837420730250477 6.696482812898273 0.26505168246285316 -0.4420659644698 0.07231227641116578
P 3.5335548651526847 1.867339284002347 5.206604432433334 -0.006838105967755965 1.279114823878668 1.4444177309859576
Ni 6.836984385567918 6.668193719329735 8.774047910460517 -0.7600803151726135 0.3522768714301095 0.20602352475510327
P 1.7938450147444718 4.049412084968884 8.609935077653443 1.3837003585012428 -0.7634947401708012 1.6267778506858501
P 6.154872061056807 5.737559348081091 10.572133050384284 -1.1268461242475174 -0.42788453076309535 0.6422075765228294
P 5.914715516637218 5.486853387021616 1.4236752387251037 0.11694302774666313 -0.6390353494424349 -0.2591746548567859
Ni 0.47680401972527947 4.11231992208989 0.09294221137224824 2.969834981744434 0.20230031026724515 -0.8055397330569932
Ni 5.251592142077902 6.805530467007414 2.941657635273669 0.2605831051685383 -0.8268881168257824 -1.2597695865828369
Ni 1.2941265516124498 3.1471778537797226 11.147671281372078 0.5386404558624401 -0.8974268462762931 -0.4789445826637041
Ni 3.9763990171717754 7.346326877915275 0.9923660409530467 3.1943388246919118 1.1426123859428388 -1.8282798334215158
Ni 8.68978583313056 6.526220780655054 7.615929250184091 1.1077695672320405 1.3033207317009103 -0.4700588501383002
Ni 4.8590335427089375 0.9234561409963993 6.537490148711241 1.9158611201766098 1.2692507866003946 1.6218996966579422
Ni 6.348685203254861 8.36131956678603 11.122980094110197 0.9369873821777346 -0.32166017498551697 -1.9889185022839166
Ni 5.200945688332203 1.89761796053367 8.694707043454327 1.193287543700203 -0.8962027440612048 -0.9729614862794986
Ni 4.191579355002721 0.041028902242337115 10.251478904677814 0.4929640368712478 0.7783251203154143 1.4207694954393983
Ni 1.231903501185611 8.277423942876196 4.0508556893511845 1.64107781224829 -3.6878584769563134 -1.1917693072834636
Ni 3.619162455797938 8.263006406801685 3.1025334628696632 -1.6474307510495112 0.8010323321049431 -0.8498220999141364
Ni 8.027032613541067 6.003367631909246 11.57693352216103 0.5554870951061336 -2.7797859780407164 -0.2654918553240654
Ni 9.183313454392335 6.505667925955766 0.41282458396664207 0.7376929486163488 0.4186753534600015 0.25119780729889646
Ni 9.155801686260421 1.5898526108763529 5.4749778902023465 0.2452449321495712 1.5282032981440454 0.019017421642767245
Ni 3.1781228092567226 3.9842092870349894 12.452945049900677 0.6884365255833821 -0.610171374022891 -0.11659644304052177
Ni 5.892765326926858 9.029449287312167 4.240728531895497 0.2696621846516711 -1.7442788078185123 2.414402136915003
Ni 4.807711556143314 4.562567173505393 9.0691437808883 1.2997885501779356 -0.5219799644876236 1.2425010293103764
Ni 8.28785305915089 3.3768497586791444 11.843750478281944 -0.5639005159808095 -0.44152294748213633 0.8036029210455966
Ni 8.878583375487546 6.784857311942935 2.798606620249385 -0.011433695758238374 0.03153432316285537 -0.8869804541319887
Ni 8.937882201652801 0.44784864721106493 11.040889901065663 -0.39168802623788024 0.8494189509384468 0.08040662338352604
Ni 3.8048321886599386 4.728415107733502 2.0671905791455982 1.9591093893422844 0.5464658654441299 -0.631399687274048
Ni 4.465910457010995 6.970092112715396 9.579589335045725 1.0684741120665275 -1.01865590299282 -0.30044368880890193
Ni 6.554611666840292 2.3929223256505816 0.6442167840883046 0.5305183409759379 -0.3084452189571398 0.5894092017748752
Ni 5.70283881191192 0.2930813020045351 12.986239344957697 -2.0713778944314134 -1.0647624675428953 1.6358484455285502
Ni 1.491900351987583 5.238571941014464 2.2053527724059774 -2.465619797439399 -0.6760422656840873 -2.5098052337073615
P 2.097122235392715 7.296726111959318 1.7171331734114315 -1.7373849089121562 -0.6022310361298918 1.4843233089316437
Ni 6.835438988568916 6.515208670302892 4.45094509158115 1.483482043977271 0.1276593857229027 1.2601048584350687
P 1.5012837804725345 7.94811557397532 7.9342264341202275 -0.19218867575454 0.7694059634489137 -0.0014670714638297315
Ni 7.773818852561057 4.573977200450113 0.5341363976133638 -2.833061549535405 0.6593928300528644 -0.30472431846212683
P 1.9023096747761459 2.6542239727211716 0.6238980524074287 1.6885941126616983 -1.1970020164373127 -0.854954021824063
P 5.962474761618317 8.800452915232668 8.667172140636799 -1.482396524222576 -0.9823190162349985 -0.0034612190757230717
P 0.6644688878746129 7.630365294007094 12.259266088879183 -0.4573264901732963 0.0222608682807294 -0.28497438952870924
Ni 3.6779060495084632 0.5356568091519018 0.9842596471139761 -0.2825228426644231 -1.9506864553859113 -0.291900170114265
