# total energy = -340888.8027240213 ev
CRYSTAL
PRIMVEC
9.01462968740548 0.00000000000000 0.00000000000000

0.00000000000000 9.01462968740548 0.00000000000000

0.00000000000000 0.00000000000000 13.19382176024977

PRIMCOORD
 96 1
Ni 6.507886420108 1.8937122390255325 11.0956080723112 -1.3636832919493675 -0.04015291806980182 1.0688574635478754
Ni 4.657615680765261 0.36832153607377033 5.9176796943595456 -0.3667164438942071 0.809425955485277 -0.004858870754198084
Ni 2.584485270296143 1.439230676874111 4.8785345021548245 1.1153491793515111 0.145801089628936 -0.9378525583915074
Ni 3.561544906033687 4.341707003677938 5.226679494424895 0.5848053844542768 1.4781187227828285 -1.0667406743151888
Ni 5.087947050418196 4.8930507600795385 2.5237672331279644 -0.035264736739565074 -0.5357852458018321 0.3404040312519234
Ni 7.502767978417213 6.253214121386566 2.3998773766348 -0.9234885763603514 -1.0115416605455418 -0.06638356963155664
Ni 5.077859679979299 4.67994491809962 11.410861385832026 -1.506684193125347 -1.2973526870429335 -2.5713818688685777
Ni 5.741624881191879 7.775388404523674 12.413024060408887 -1.801743220583568 0.591988018245645 -0.5684153731320275
Ni 1.6618830115214047 6.329432814023631 0.519031718330838 1.9209362207066722 0.10750476515189873 -2.9460736176587776
Ni 2.8447015661756843 1.5722685794096294 0.3302635731435325 0.1991604790866828 0.4452060527606784 0.7769866040096489
Ni 0.23667909818878075 8.958044695846496 5.077721756147561 1.949723320141694 1.7743681710047248 -2.3430691936979713
Ni 8.55091698259188 2.416849219642227 1.371972525985271 0.6967830977758646 -0.12051686114085049 0.7486826148586331
Ni 6.764487849547864 0.7625754569031936 4.7454614425641575 0.5523454641533584 -0.8509803818882957 -0.3622591794538019
Ni 0.8412857931410729 7.397278783711249 2.2129076500378067 -0.3465703079636354 0.3147184535603612 2.554716749508071
Ni 7.741457338990154 3.8408812311365526 3.765529745859829 -0.8065324359875659 0.2491131568557258 -0.6675105740639924
Ni 7.876397328355527 3.6561714721615717 12.597869940289701 -1.649210211547437 1.1880368368242251 -0.9861962398022175
Ni 7.925202532605918 8.588553060860331 6.773378077185792 -2.0961041935334994 0.47899960427135574 1.631372412035068
Ni 6.961187065791596 0.6891161423638467 0.5307227913622998 -1.1943764058890076 -0.3335175885447353 -0.44532072396167177
Ni 1.6900176702701073 6.662478301838695 9.2263471144103 0.2825457254825586 -0.7505281527078042 -0.49004943432761405
Ni 9.196725041789911 4.819653646483917 1.2906145930557884 -0.8695879696871539 -1.0908324251570698 0.6208982735220919
Ni 6.657015436346316 1.9224689072114862 6.767717791306807 -1.5858068075901268 -0.5580921368291485 1.1914276076733288
Ni 3.3489709271957646 4.252029469159486 0.40206960462792535 0.2070085143761919 0.33901049333850647 -0.22637534893857786
Ni 6.282286301605908 5.728337317271474 4.4808063431063205 -0.5443130807671851 -1.2732447382511363 1.495446929648631
Ni 5.074208755021521 2.8383823108783948 9.318492854492801 1.395801512640151 -0.43376695768580137 0.17632214103592858
P 0.050672134025098285 5.640129167365656 12.344720212495103 1.5205475813710008 -0.42575051513922807 0.12142497477741669
P 3.945973782143401 6.194754248914495 12.565676895328673 -0.9433259228012528 -0.2142356282522504 0.11351060502634643
P 2.413063075241569 8.486065737786317 1.2686360248099662 1.4277515831841863 -0.2683277821109637 0.5515864745001469
P 6.199468900156266 7.73826616013817 5.614011081241781 0.908021591073004 -0.22936939856989527 1.2840055763120661
P 4.785911888170429 1.1846665537069818 12.456115792466097 0.17005610552155875 0.04524601632199304 0.5643329755325377
P 4.013944088764745 6.130957715763399 8.02643501925 -0.5465170303970395 -0.3977524872644053 1.5571698605797246
P 4.63360972233918 0.9616896923967746 3.5987861435289252 0.02491398963286032 1.5070564888631013 2.3202488533693457
P 0.3013617694222204 5.720683896804428 3.5300198451204894 -0.0628704142719756 -1.2626217113196512 0.050412648124597045
Ni 1.619622428306436 0.921700795822201 2.6272065010798586 -0.579963482980943 1.6969977633443614 0.6730788121803892
Ni 1.8934688440283474 6.579156081135633 4.79608579905277 0.4494769122218904 0.2075664437621909 0.13389559644060164
Ni 5.8196014265863925 5.470536942104734 9.219578930562648 0.3740538580958848 1.9586884997547815 0.7394014466670233
Ni 8.649879585521473 2.1720479402510815 10.140572979430058 0.9651597308468927 0.4989079131595085 -0.8157560114683627
Ni 2.194773821284558 5.323147749364815 7.016856910425564 1.1207274129442892 1.6215731665564588 -0.3759798714740041
Ni 0.6483483817982802 8.883710060780235 8.934301964602557 -0.2545163301491681 0.6326466723072718 1.0754158334916835
Ni 1.574224754016636 1.1604803026903945 11.384024833734978 -0.9581948694932853 -0.6683184146772684 -0.5231025081278411
Ni 3.8580360711233452 6.666291490127929 1.5028946949711832 0.5485268617382166 1.0127860744756043 0.12103802375164317
Ni 5.672446614214134 7.860062819655543 7.872977177913598 -0.8079881945974859 -0.696764328722787 -0.39224055630724064
Ni 5.222670688674959 2.8909195717522933 4.794819243604455 0.1865152795188465 -1.2912900257886213 -0.5977051232350803
Ni 0.8599334557772682 7.436546509923791 7.014772728079296 -0.10685684715525469 -0.8565169954358088 0.24992125457931796
Ni 5.192138138472507 4.3543815727906185 7.383737908701179 0.25277929285340334 -0.19219278951959803 -1.5095422313994327
Ni 7.880030224054253 7.161555236252157 8.884073350350109 0.4966980499923833 -0.32005786349540366 0.7543657812863396
Ni 4.583848967359098 0.47925917286487346 10.173491702067878 0.16407571956840775 -1.2761603692360344 1.303432574688426
Ni 8.25031514643865 7.012209868905232 4.8927307407313885 -0.6890376495024908 -0.1577834588017928 -0.1725541893530641
Ni 7.070092805087679 5.845788925357614 6.944436081207541 0.5023387932179284 0.36144105442788077 -0.26044066605340305
Ni 2.2500335002751206 5.1504815354357385 2.757192050058084 0.7452764173905616 -0.24042077128805048 0.008246813389824508
Ni 2.1655844508813864 5.4582950752092705 11.293686526872314 -0.7847783321399259 -1.2238507611990406 1.0883639090119193
Ni 0.9299852403560227 3.0818854836178864 3.999099698325307 2.4007752901601878 0.8339072284560928 -2.2940472552733135
Ni 3.6565500866016376 2.9722044861826205 2.806537230617047 -0.5362961239999796 -0.9055245356827631 0.9560742236058568
Ni 1.2457316541118877 3.644173000263295 8.098776519728201 -1.9408296171964898 -1.9404151553668905 1.301534586334765
Ni 3.5633388173092366 2.866147369816557 7.201345810977173 0.7582394053091329 -1.9812730699235168 0.5144525457623269
Ni 3.9630474904644655 7.157399492040959 6.199024478920665 -0.20802975655185466 -1.103935538197931 -1.5557817219829464
Ni 0.884475784660108 7.619931118358542 11.512308420658814 -0.2530682848487319 -0.4482080728117958 -0.1334867910379572
P 0.10152996941841934 5.565587195820312 7.957259456661113 -0.33603161321584063 -0.10862730879211614 -0.4958498430594751
P 8.567567003325253 1.4605683049606792 7.847143954082725 -0.7649687536131664 0.7800104784376373 0.7066538199223572
P 1.6283035165393744 3.4727958783563473 10.399172050772748 0.3303767289229084 -1.1018226056199862 -0.3757584994918174
P 4.149812584971232 6.125269484532886 4.125312624847162 -1.2986644638758214 0.48796426966381123 -1.5857034492430433
P 6.855824075898987 3.942962895881925 10.348666687393868 0.343624337961434 -0.6910724205443324 0.4580533410369917
P 6.063311935804967 7.615315628041549 10.161406689726158 0.6305944177639334 -0.13957207800008867 -0.3872893829495524
P 2.234699615452454 8.50191345649193 5.833015195320154 1.591207152670092 0.5603485369634931 -0.6254362706017615
P 6.92997841837474 4.070267494039303 1.6277617373048994 0.960771886191842 -0.7657603962765264 -0.02398222184721031
Ni 5.219831080374465 2.736435865575903 1.0349578967901836 -0.5229073613978995 0.42414383277374046 -2.4167760364638182
Ni 1.47862460790001 1.1799428878356844 6.958882926484911 0.3909352072322557 0.47846044393843407 1.0364330244705826
Ni 6.8703646733234205 0.4605303785629496 9.073324679679974 0.45233752159913704 1.255088893277716 -0.036476240549162986
Ni 2.7510936531841663 1.7276086753909308 9.231624278534456 -0.9360864676300201 0.18386318660798012 0.04236920899483026
Ni 6.449417533006403 1.871527235763579 2.6713006599402895 1.0119448095212316 0.21836970502528197 0.7685999226078505
Ni 3.8613895133067855 6.834107833372354 10.455364743919187 1.7988291322605663 0.3948635957523845 -0.7717333260305097
Ni 8.235008305504559 7.351232056095622 0.26148555571671395 -0.6063514860561687 -0.0911162964915463 0.32999234900029617
Ni 7.561137704594032 3.5688737998378186 8.253962465544618 0.38526232521719456 0.6024099849099174 -0.1884963145046173
Ni 2.943204422999482 8.479638306934723 12.382467170706715 2.2898103343738305 -1.0575914037157528 0.27055127212484376
Ni -0.1485268389860213 4.852539014992494 10.03808385343014 0.39442265156022394 0.08576891613670388 0.6877191878013834
Ni 8.730479388107872 2.3888678095954563 5.690574132726715 -0.7716731622165356 -0.22732871399078267 1.3004714351775732
Ni 3.561085159927892 2.7435754521600018 11.397113174342874 0.07557449210220533 0.2605602223504029 0.0891206062177562
Ni 1.1407382640298183 3.1235511012841797 12.5375341234134 0.3806047718405251 0.772727828733295 0.7193278158455998
Ni 3.2342868103739146 8.611810805035805 8.125718542990695 -0.40330915541657636 -0.889692453746513 -0.47260475648860545
Ni 5.757968404521388 7.788351441781166 3.5109944695071804 -1.0107327914910011 0.7531159680396384 -1.1850510147230235
Ni 3.255948965123396 8.266550494213856 3.4033994573440873 -0.2701344963023993 -0.7149713386491171 0.9436380547250329
Ni 3.3545960560196 4.26494743326935 9.27537498000997 -0.5516366110117918 1.9967811928614452 0.08940856977182021
Ni 7.199903470253113 6.089256039579004 11.536427061953958 -0.5148125002049069 -0.9291380613366449 -1.4111623113669374
Ni 0.586196117072614 9.28155270562371 0.5583111635617645 -1.038364951385973 0.5040537190265061 -1.4622627295871784
Ni 4.707142055377684 0.34615456207086764 1.6471035264145488 -0.4869520263492129 -0.8801464619292906 -2.0291033020329183
Ni 5.801626255312791 5.118704966358783 0.1317415988097688 0.7992148192802301 1.3264079525376768 2.862481397458419
Ni 7.769601012368381 8.48218043246088 11.282247863467564 -0.02310521855889569 1.4947475895887614 -0.4140728216909837
Ni 9.10089952993515 4.891085570843007 5.634263347933493 0.15469145014003038 -0.555583768584998 0.7761383970767407
Ni 7.945737858664728 8.585551189228381 2.6226676351138316 -0.5762209852193754 0.8133229765468379 -0.10896489463719299
P 8.550421177967987 1.4141970506821384 3.481664470883413 -0.03831149398568886 0.8649988076545748 0.62532545605551
P 1.8660643702712003 3.206855292728192 1.6295159842105376 -0.9937359998226885 -0.3442084925996781 -0.0676565228067093
P 4.854855774780515 1.0997397289484026 8.0757928202903 0.317941074262717 0.16153341276252825 -0.8720176621745692
P 8.259789522069822 1.497050510649881 12.25244195735858 2.418254677891874 -0.4301427306696528 0.3399216922988662
P 6.142739836553067 7.676281567521675 1.2448229794557295 1.3795541975433532 -0.5204457872312843 1.6307005827790235
P 1.9750692704920627 3.318708815879073 6.039049961900367 -3.4665859964619394 -0.98503718649711 -1.494759159552987
P 6.720090799135382 3.9221931894554554 5.878190208260678 1.5986787784567886 0.5370296597318944 -0.20500459657228567
P 2.492121376179128 8.468072537253665 10.238049069950916 -1.2520832736821725 1.5736586022633672 -0.8206483065636575
