# total energy = -340859.76166779344 ev
CRYSTAL
PRIMVEC
9.38438915028370 0.00000000000000 0.00000000000000
0.00000000000000 9.38438915028370 0.00000000000000
0.00000000000000 0.00000000000000 13.73500211003459
PRIMCOORD
 96 1
Ni 1.59931571370581 7.795349116817758 2.3718977316333123 -0.3699375219346661 -1.161686114744838 1.0830599803005025
Ni 3.7560172075912712 3.895741374290401 6.874533168314253 0.3681122958004692 -0.5300647983782871 -0.3191518067413665
Ni 1.2915640633108028 7.147629208849416 6.6190619486184765 0.32835892716193127 0.9272948374803192 -1.06182472507081
Ni 3.001718794605667 6.363159985471059 9.946846967044499 -1.0449276922051551 3.2138753520629426 2.3901062404821163
Ni 8.115187860147715 5.637071045592957 8.03715948155592 2.8518095195668693 0.08374160129402998 1.071798291343754
Ni 8.640882558928821 9.120199607644299 1.8266731810611168 -0.9927594948420322 -0.7532774333181672 1.208071901098229
Ni 3.9008277130875615 8.756329311479877 6.352726421864632 -1.2218172757087797 -1.5420108934510992 1.8971018372912358
Ni 3.685606137489614 2.323265012909093 9.212161926911417 1.9159932748791002 1.7796402180369417 -0.8776995430506949
Ni 8.366567486272345 3.5347145479701494 1.837331031562843 -0.03625923944235046 0.6806633093958665 0.6880935404216666
Ni 5.887258854324153 6.599139829370335 10.353032411309064 -1.774694443995892 0.4619655316072044 -0.7716693055617936
Ni 8.107098516894666 8.261528021038725 6.873709218966669 1.1575188707410258 0.7643997684835739 0.8309720570871689
Ni 0.7951880724080937 9.186143708617822 10.486288857161325 1.7898415840499755 -0.5367913184688433 -1.7101890652236547
Ni 6.248285680644405 2.055763006611914 3.5246216376816872 0.5166115010868587 -0.7409435943431627 1.1939262057254665
Ni 1.3904661381877004 8.691089039675703 12.621189477135928 0.6863685873107598 -0.38057828947796396 1.1557661497159772
Ni 1.4298148809487625 1.8907197585940752 12.75017508758858 -1.5467244968766845 -0.13694415345893834 -3.948370362567284
Ni 7.307999031182778 5.532116039859658 0.8955024978181515 -0.12371582769412243 0.06922669550730659 -0.2616233735075946
Ni 3.8439020098706287 2.460614929210286 11.668666493772704 -0.04871032072150966 -0.2954526633522137 0.1726734885397478
Ni 6.589107917609883 2.201267956888629 8.490318484582826 -0.00986506571953785 -0.8339128848830477 -1.0576196858505271
Ni 8.410824264440999 6.735044549777132 10.520379526807906 0.13401335296538855 0.5711325149528744 0.417740500350558
Ni 4.607706808836904 4.517138071325096 3.90491555290314 0.1602370625486079 -0.3811752996320145 -0.710480649867615
Ni 7.1515331146420715 9.112166570724796 4.20720924269957 1.017856547019976 0.5405628696961335 -1.648247076303219
Ni 4.0489039859296305 8.193228438445114 11.968405752903845 -0.6944775895711395 -0.30967986269518927 -2.2511584263295874
Ni 9.396307098585384 5.854413493087875 12.640844141299718 -0.7436990456011127 1.251804308989173 1.2254852114786698
Ni 5.2513163544562484 4.482866282972271 11.725708563412304 -2.6652453890879584 4.232982997881201 1.389737308723942
P 4.155510644113668 5.564032346592396 0.326896742240188 0.3802967536818031 0.00226565610572513 1.3650187229313395
P 8.87287403753512 1.2653440806553278 3.5522286330202255 -0.09864011567241722 0.23806692634389323 0.10568879498908249
P 6.6553617034179195 1.4733209080034448 13.026001046861925 1.933317625090161 0.6143039081340259 -2.710515316669351
P 4.822431011821845 8.8976112867405 3.88137387484676 0.839372365335722 0.10150818124883162 0.4524079698257563
P 6.405380351243064 8.540788666658491 1.2673495245685256 0.8362495034360243 0.2552670922722636 0.8396263903280572
P 7.44015938040864 7.167880720148813 5.176584711693683 -0.32226952643474177 0.188393727488482 0.23903083291905933
P 2.889669190845333 0.5990412057383918 11.386289292591062 -0.3535832489463588 -0.27890118675143577 -0.6640742946889338
P 7.072976394953817 5.978240504948645 12.344909313438633 0.6654927723030152 0.32796811948141585 -0.1474504523069009
Ni 2.6993162458977102 4.271163853221068 9.894022241787638 -0.03374830009503865 -1.9156654592260363 0.8913760120965228
Ni 4.961329352295606 0.6404057152404689 10.324724402117853 0.25227098575841717 -0.09555787720266767 0.5932910533277846
Ni 7.146634463623403 5.1002558459361405 4.702521043898224 -1.6956289080212927 -1.3656728115755705 -3.2113978370567273
Ni 5.974937200047168 9.283356593488282 6.067135067476295 0.20474671492520868 0.09660765862342072 1.2403125062994897
Ni 4.913084208833975 0.31845173064689447 13.39996425331481 -0.21790613512530216 0.22269944274888742 0.6077226553720824
Ni 3.849298033502303 0.2795937914265918 2.1270712242947676 0.669047579533809 -0.5791443295137575 0.09684214323172999
Ni 1.7257140481319355 1.2596008346334413 2.8541605400322383 -1.250568379699543 0.6248143207470465 -0.4646284231513482
Ni 5.468668186340092 3.2731247066955005 13.530707559813045 -0.5654146386324908 -0.5489341244789644 1.7064812773547642
Ni 0.2061937934524334 8.961040371482216 5.191844666524057 0.6346729587086811 0.28448356593521973 -1.1231285661866142
Ni 8.373868540855723 8.189455914097405 13.19925469674994 -0.8409921603273323 -1.162779862029649 0.8204166501688258
Ni 1.2504510554319066 2.1844886694913526 9.918456375230752 -0.6887753969800395 0.052833598861263854 0.4808042615802623
Ni 8.290685317427615 0.4547318266106774 9.499429333161697 -1.9805906991445115 -2.0742187063143183 -0.03902163267883603
Ni 2.9257709350384657 3.98399216773782 13.115924138415718 -0.19359764028692464 -1.3507113051697317 0.3090712825769129
Ni 6.75069771050345 8.46978638005458 11.261506949937761 -0.006874101412013969 1.4240031718853476 0.6893130146510644
Ni 7.588789332197263 6.946840823417582 2.9499760893918183 0.20965829329421312 0.1678650114075109 -0.5446624936868039
Ni 1.763326678941937 5.077864693961923 7.874235228557268 0.297406701754791 0.031883221861841865 -1.7649083111434059
Ni 6.189060802140933 2.8371823035897594 10.79102811871152 1.7076074205394078 -5.955666853137757 1.40670119027179
Ni 1.1065414512723823 3.775105054664011 3.149628025324877 -1.4437854967185972 0.20033341634886143 -0.26107701408582135
Ni 2.8485374141885873 1.6893495410489128 0.47594805309152854 2.4191118836858467 -0.018777280607503145 2.8452678617936096
Ni 8.710702412528224 3.293929896941452 4.822592423311349 -0.34955638717515286 -1.864455254900808 -2.540538144014844
Ni 7.859669718507316 3.4926443324209386 13.030327250156189 0.23873541316582755 0.30490995211037164 -0.4713312890928205
Ni 0.7889277465564591 7.004733118693754 8.836151985234068 -0.412179975543645 -1.8219605760717072 1.6164299317926227
Ni 9.158872674402785 1.6969133585221814 0.7340797470474434 0.2562986188605715 -0.5185346862515006 -0.5095072859419095
Ni 8.719786501007286 0.6189295411864049 11.947761974147397 -1.792247622388307 1.9052720318068543 0.5978197944360737
P 7.188282381671004 1.609920073190666 6.0597730143649065 0.9875779506410929 1.4383977500441227 0.4758127219029419
P 1.197344798507306 7.120677243857818 10.970709136574028 0.09343903108745198 -1.339614681035938 1.548546894797404
P 3.382978363447466 6.472413041331847 6.729862490212939 0.44339805301766216 -0.15275360968736917 -0.1306819745993104
P 1.3208902787003374 0.00010885891152595248 1.023210892938158 0.6947673528974164 0.6616232620452799 -1.2186476197315463
P 0.6513028676597736 8.831798567211921 8.119570369775529 0.33046748886450183 3.222775996986682 -1.5615067973921817
P 9.373061967219021 6.089980423874466 1.8594584822082778 -0.9359977645709557 0.02125942359940855 -0.11615627017930963
P 6.380624333259835 3.9359065588879076 2.594116307613479 -0.264863477711447 0.9493479606256165 -0.18217911403733786
P 1.1892179176985582 6.8040573459290155 4.4482313187680615 0.11850651557904107 1.6544071823673445 -1.2185100657124175
Ni 2.83569018575074 5.573595038906616 2.7761734527517103 0.10980795936377861 0.30421344026397934 -0.13313557834612555
Ni 2.0396312420504388 0.7678260096204886 6.541362962077936 -1.2101424104740126 1.0514163852532925 0.49434214816569705
Ni 9.059839218080944 1.3181969590789626 7.505807873131036 0.051306620693776145 0.2080330989859643 -1.4081435791452717
Ni 6.243377645236813 4.444033681602065 7.741802732052592 -0.21476116173841722 -0.22234411629199774 -0.49139746371507625
Ni 6.336161098534838 1.4632983806319175 1.2890105710844053 0.2749023500046878 -0.6445678492248899 1.6093239168754605
Ni 5.084405613042405 6.781337740342435 2.1792503035936126 -0.26261299111437353 0.28288665376174504 0.07100409912270352
Ni 1.9312697031374928 4.938525287208703 5.0352924136052435 1.5366223754456763 -0.700559019878529 1.3533880806709464
Ni 0.6270751907730019 4.221952117700197 11.339466822490408 0.6272429847931972 -1.5178952313498182 0.46239516294545524
Ni 6.4770583138495486 7.007942579705985 7.750853975170417 -2.3355363756560354 0.17153320428771748 0.12252874936455671
Ni 8.457624212008234 3.625639892261094 6.9645247659071945 -0.3713421155916766 -0.4424737414311799 1.5325379209636574
Ni 2.8742224866753574 6.106525101548626 12.474664443783103 -0.8764119345875229 1.6755452498975403 -2.3974606239646583
Ni 3.2059137132171496 7.8249005575414845 0.42913778269647657 -0.4127970403023536 0.2099529417164965 0.8848731779809987
Ni 3.7984252611417695 7.112334522103803 4.563550443629743 -0.6411475106894313 -1.093316625031504 -0.4662173649050229
Ni 1.6721385717611026 5.500622030628529 0.7175754222456595 -0.23474403261824733 0.1886868332488686 0.626260823385586
Ni 7.1616776390696195 4.740599140398888 10.479449514513039 3.271272659035489 0.11498564690997616 -1.1409784498838413
Ni 5.572863056570493 7.28334624147772 13.54330234818882 0.8373810459373061 -1.0806763105596742 -1.0750396810991871
Ni 2.665466755046494 0.5302780343319035 8.801361240173707 -2.334714651085689 -1.1259441812585382 -0.05886386421574378
Ni 4.412520903593086 5.701279034615418 8.498065297640125 0.20467292426447978 0.43329824557949886 -1.8995158460493675
Ni 5.436367119661443 5.80412255284067 5.813559494343298 -1.6981156789988885 1.0009335460123923 1.7441353402621123
Ni 4.027845417182714 8.29015040725891 8.947337286774442 0.9319282224872725 -2.668843905072494 -0.4845655283949074
Ni 3.092700445230159 2.307489855126754 4.888424850056669 -0.21567981689794466 1.5565594806892353 -0.006890813582562326
Ni 5.857782488711824 3.3777418744275107 5.52358563032715 0.24046319449021167 -1.1573316944308842 1.4207000756540433
Ni 8.996888737174382 5.605680264639998 5.4783012615712465 2.632301844282402 1.0508509996681257 1.6244574300827894
Ni 2.796106833266562 9.438161473189327 4.494215762937744 -0.312352524431346 -0.9939794832920622 -1.3897244532081354
P 5.124570797639911 4.038750077113159 9.582347916822128 -1.243118351179401 0.45023204522036014 -1.1813614816865783
P 0.6717232979598143 3.610784404593371 13.768240520079353 -0.4430344990306564 1.0951043130595461 -0.1597182139306604
P 4.370488225599574 1.457770975555298 7.218567681608638 -0.7748088796320397 0.431970785017327 -0.5733701460341416
P 0.4986460745835821 4.195694597489023 9.28130422763046 -0.8842147184613933 0.26804418943227387 -1.0269497675704957
P 6.096230426898284 8.63777632619476 9.049951825909929 1.3769699817559446 0.35351280071973956 0.9885004624553622
P 8.271972845911861 2.448555989442109 9.902441915530837 0.13996134301870733 1.1732033713558183 0.38444291463969277
P 3.0695116201973462 3.2560451188526356 2.7796625685538956 0.863259713476281 -0.5657619946695804 -0.06662756732156268
P 1.1039795130959524 3.1072931700079915 6.051092454609604 0.9483308322150119 -0.7299837528975492 0.4865115963776847
