# total energy = -340890.59062731755 ev
CRYSTAL
PRIMVEC
9.10132946795511 0.00000000000000 0.00000000000000

0.00000000000000 9.10132946795511 0.00000000000000

0.00000000000000 0.00000000000000 13.32071565283671

PRIMCOORD
 96 1
Ni 6.475195402503738 1.9543830678946315 11.533781627312521 1.1507283301817537 0.0397759943463573 -1.0693701415182357
Ni 4.814739767259698 0.3014160064726959 6.208519170312736 -0.517277931026264 -0.9698118849069234 -0.7861016789370397
Ni 2.9105960375979585 1.5869532990902662 5.092043621779422 -0.21245153976863407 -0.37709161648094414 -0.2968145766967469
Ni 3.7642825317227473 4.2806100493477865 4.953641526011316 -0.7542153717514042 0.041409673295038356 0.44256115893866366
Ni 4.889780228080385 4.600967742546985 2.320601449757185 1.0133769139820676 -0.1392064671305538 0.6733698610582467
Ni 7.270551476567911 6.022486177314917 2.5292312233645386 0.5646366228158857 -0.14624331937267715 0.49288304712166725
Ni 4.950149345924366 4.585049517443845 11.47294561127083 0.4797886758315544 0.9533380556216161 -0.19683337361540296
Ni 5.504383900458825 8.033552324650572 12.512880799899984 -0.18748252852812228 -0.05648405112965756 0.22685254568531252
Ni 1.8313877025179455 6.49236050973331 0.4180522730045772 -0.17154991645826587 -0.025777366074420126 -1.129224651782023
Ni 2.6706212855713876 1.4308472973926993 0.38611843857382555 -0.2571671375084538 0.837708347369738 -0.2077767600007841
Ni 0.6297910607315603 -0.14136548861749576 4.899798971472916 1.531465513835085 0.8837622043050071 -0.8844535739450768
Ni 8.65267935773585 2.3039742310945637 1.3173218652463257 0.18605505205297634 0.06137608911463623 0.7566409504737613
Ni 7.043109255111392 0.597520477113378 4.843998720982723 -0.9864744331642687 0.3396699812993763 -0.6167647109696927
Ni 0.7966093271211768 7.244248634630762 2.361550150948749 -0.47193935499046463 -0.08655747347627028 1.4616610914474377
Ni 7.789072414575943 3.791732141163038 3.784735039127993 0.47118782153642075 -0.6592969279049484 -0.27721351463636773
Ni 7.87441558026613 3.9476470149434144 12.94984017457938 -0.8048427069899688 -0.7606292456975481 -1.5381408689727318
Ni 8.256252753494891 -0.055292396310229606 6.895188989067207 -1.1548212693042048 -0.5436291673262831 0.5590172197465791
Ni 6.586786802154735 0.8659650976048603 0.4515560867551068 0.6791257897054175 -0.4438641940208033 -0.19884886138353497
Ni 1.6437819998015306 6.933219804056331 9.170033505316082 0.5784287915039716 -0.7271763653557413 -0.06868753517438493
Ni 0.18375766065031565 5.014814291240435 1.2137159720021313 0.10661902011283574 -0.8675336582612866 1.5281400490062778
Ni 6.555432722406127 1.7669775944247972 7.0951988936092745 -0.15301431954792358 0.6595645797440381 -0.3997669465912728
Ni 3.3631596415165403 4.428561259911898 0.22764609123485433 0.32273592454819905 -1.0765301496017847 0.5679235210972736
Ni 6.108075078898635 5.639575047218134 4.62152946590491 -0.6300776260285148 -0.9743812494451605 0.1463839587155995
Ni 5.186847619370531 2.876957524172457 9.636299160631335 0.3194063459543338 -1.122874284083963 -1.0734949623198866
P 0.14071019290141457 5.625231352099467 12.365500242688626 1.9357637726378083 0.10235176019604955 0.48490491401219715
P 4.10316143023063 6.2629524011285485 12.791323230726398 0.058118501409287 0.11297607267911511 -0.992992951009077
P 2.2907226955026996 8.61509996868447 1.4340145600204253 0.8472975337200698 -1.108666368014697 -0.33974685728389875
P 6.565034624912594 7.926056523225085 5.979509699935258 -1.1565945591545437 -0.44038472011263513 0.08175388144003985
P 4.673587249749929 1.220151522013812 12.683305923126865 0.08118721030329244 -1.879947951219769 0.8242373094664965
P 3.7263026841782074 6.186956300721909 8.323741841320683 0.3605313981294178 0.22954886157055304 -0.4294511039192669
P 4.776532386480407 0.9237940344160875 3.8058346510528684 -0.4221049479668408 -0.6758147230543136 0.38196539963347764
P 0.14198528914895592 5.568684792599293 3.762036323629291 -0.47330435365879137 -0.1767180909227666 -0.8595568107033971
Ni 1.546634409892492 1.128200791186473 2.609434868348183 -0.8386439718101298 1.0198252407105726 0.8290956660000625
Ni 1.8574630112203432 6.448828851260861 4.711071074842712 0.5237013180541046 0.24407662287308285 0.3196917384052365
Ni 6.244604121078274 5.81716018627614 9.236890960882207 -0.44521530873205906 0.25918776748290845 1.5334596614469784
Ni 8.600701665589465 2.422255107847221 10.107226516860154 0.4830364933448907 0.8255436869827459 0.9262982778950047
Ni 2.0534692409637434 5.327171915905809 6.885317687210795 1.2210495443048197 0.7693671397911782 1.1313252430647935
Ni 0.4201665118218781 0.13889902835280124 9.167889232111795 1.134896762466136 0.34200968517614644 0.5979002699650219
Ni 1.4587701759612708 0.9685088657092397 11.710200886075667 -0.814044685204211 0.15986013882516342 -1.418219475324035
Ni 3.8992916518942553 6.902584729329534 1.5988187022160312 1.0205060688276812 0.841047696155616 0.4242659601739016
Ni 5.695821262848437 7.949729080968519 8.084075624360432 -0.03139394093024915 -0.0044891461196051715 0.17120744551718256
Ni 5.5005340381268475 2.6298018232571625 4.905553742046223 0.42492570524508755 0.6464905201688995 0.10487838327264519
Ni 0.8542899122633468 7.649394312427357 6.9388407850876055 0.7939456004614907 -1.747183897280449 0.27370241615931573
Ni 5.174378798106209 4.6546382819599135 7.582524115000086 -0.5986788000022593 -0.013514489546667048 -0.9112277567151275
Ni 8.112834004967008 7.358734257027782 9.33407859664056 0.8275961986364005 -0.022761462066231766 -0.6835123488088873
Ni 4.745096394767289 0.4467141795196179 10.430746011889445 -0.4905515707750132 -0.7469766879111199 0.7280214869648558
Ni 8.17382201320951 7.38446371521336 4.59923029876643 -0.17409890813236467 -1.2985405367034475 -0.2346504444631765
Ni 7.018399145817497 6.020365567567043 6.834126349923706 0.8625292630681597 1.1123299329092136 0.7076573214862072
Ni 2.5690868548963612 4.992033663777223 2.531855136627681 -0.901529555590757 1.5137868656083995 0.1945952283135036
Ni 2.510801941482694 5.396041675400066 11.507659901830234 -1.5469918916054584 -0.2869438545502542 -0.8211897808894245
Ni 1.3105277228566783 3.597728203885441 3.9168763304087064 -0.5172043974758511 -0.8388586589240973 0.7428850343402497
Ni 3.578797438754206 2.684255076997633 2.9917125459194214 0.006794911434646362 -0.351078223136318 -0.605082389535758
Ni 0.7326470044340173 3.6113801979704663 8.050187734509645 1.1137283559186366 -1.2883512548752716 0.17151392101400784
Ni 4.2824758218727395 2.6570056968039224 7.043740887371059 -2.0058687569850098 0.328358412941299 -0.5692687222712582
Ni 4.276323323205088 6.5924569303647145 6.035948863748629 -0.19428952414762668 1.0313134438558305 0.7309934251089862
Ni 0.7749008362601089 7.538685741727193 11.36439496576904 0.477092874166946 -0.458683775532139 0.19549280042710848
P -0.051551749930932735 5.812072543147121 8.04792332375741 0.23426349343740302 -0.2454061403177838 -0.9736130038205684
P 8.444113293434226 1.7397464168898669 8.035521852330572 1.091011116826779 0.43208777021116557 0.4315699500344825
P 1.6652611371619699 3.3650163127121036 10.40692874300871 0.38422359954003504 -0.09932274356173862 0.2938974030499519
P 3.9890944689855505 6.171393027464981 3.818689368683328 0.7045642843831802 0.16765418094828546 -0.2809066472172388
P 6.805364328785375 3.969872461313835 10.385122867923169 1.4383674110268196 0.9497295123347514 0.5502477010840653
P 6.4316910480194585 7.833432294022884 10.537791297510125 -0.8424597460117943 0.4914969654074181 -1.0509415024994029
P 2.651645013793203 8.51060760595769 5.90997554339553 -0.28094341399244516 -0.274852727713675 -0.1892671312323708
P 6.956419092671482 3.868119598733448 1.7002293548113534 -0.37590222415853325 0.18434475423008898 -0.5126561159835364
Ni 5.450868083645527 3.1054554998382162 -0.08790701017935452 -0.0744285514232202 1.1146495821813256 2.2369762212919344
Ni 1.615231129505048 0.9417236533144204 7.150453974469006 -0.5529710135524993 1.077398154029035 -0.4861056191885176
Ni 6.978890274935434 0.665059622250814 9.41291067128513 -0.247258105924858 -0.48468251358874587 -0.17195126566174257
Ni 2.6108073488201975 1.9248492540240272 9.095051293003491 0.42371600120770253 -1.1276079421142065 0.5859937483354231
Ni 6.244039838656094 1.906428163338633 2.5567518231740713 1.1847306552691272 0.8176781681917401 0.3193330695142371
Ni 3.982277573272428 7.086477089654822 10.407541262476657 1.2363686911603933 -0.576702295731168 -0.1962888139658426
Ni 8.093029512214331 7.051036513010097 0.4894003244917353 -0.07916580899788946 0.13194927134750825 -0.6897495879678508
Ni 7.49366146523478 3.9469189085922127 8.02735613960185 -0.17272311083076058 -0.38135424841203996 0.9138214855842326
Ni 2.9764350544053397 8.215824648344437 12.53868306872068 0.5979239241141058 0.6352033772908544 -0.2823580349517847
Ni 0.17047518053852526 4.927459731755055 10.057047247401234 -0.436947412296312 0.6620356669923502 1.162949554838294
Ni 8.947808165865922 1.9576686478044274 5.776781228304391 0.21380548269336727 2.1282229284449157 -0.30632688706255634
Ni 3.5859328809959794 2.5134049216882386 11.484720911235636 -1.2233931048363318 1.1515803937694038 -0.5065458893207405
Ni 1.2263495273284135 3.2995049437627633 12.769876858151763 -0.7738241471212673 0.3136293342612405 -1.2515063181327801
Ni 3.223790984567214 8.599372871498522 8.19847387399531 0.774221639670002 -0.5079733657958865 -0.3072296013824838
Ni 5.836910071052476 7.786187293159308 3.6873335221289727 -1.2067135872981216 1.001564751838488 -0.7539567187733789
Ni 3.0324446354715024 8.394128792424254 3.6726676399499 0.7255640265632989 0.09317472168247179 -0.19372079612835025
Ni 3.436962321540186 4.222161312005098 9.346719433030355 -1.2920572429719488 1.7026274508263126 -0.3100040788038274
Ni 7.380841386116133 6.158833192906757 11.544424721901207 -0.9577382415718408 -0.8692249299207804 -0.18315356213546521
Ni 0.35030106689235374 -0.09097142778497316 0.5342716986503958 1.0919878789177515 0.6969646176590513 -0.9430711264779693
Ni 4.409448468192863 0.47832673702290196 1.647772932739053 0.3509139296443118 -1.168002286770853 0.2987647584445822
Ni 6.113727004449834 5.520220213597454 0.4662674755811298 -0.7866945753260323 1.1626662192699202 -1.2515417993564057
Ni 7.99967717666093 8.770577978654128 11.99118804859953 -1.08579434851253 0.17126503822799538 -1.0431662294293582
Ni -0.05769969793388903 4.809379084248977 5.913998330985917 0.39425013053810165 -0.027076801612134015 -0.5180850003085916
Ni 8.02642598373819 8.818259843328425 2.291163199845176 -1.1265370776475307 0.2174276528269868 1.3455600999860955
P 8.577238438422002 1.4489316388906626 3.6084887056232575 0.720231815717108 0.5568595499736281 -0.8525711234141833
P 1.8488167482998275 3.278044009061104 1.5089175907673238 -0.08207629777646509 -1.2817787438640764 0.8343728552386016
P 4.79983178971885 1.1209652343214098 8.37016499214034 0.6250904572265686 -0.7961091837717128 -0.34796924519369105
P 8.498357216598727 1.7420763572137112 12.373412938460305 0.44719582949719755 -0.10546922277910868 0.8703698421585011
P 6.1829881211078614 7.904076812748195 1.3227671906203726 0.4457125600834518 -0.36552216647578983 1.1000706559258862
P 2.050675132841008 3.27073564156092 6.232016982531882 -0.07713180928699619 -0.5743913882098043 -0.4393292822649272
P 7.040943138716568 4.012412074882773 5.858490233169144 -1.6242430000791384 -0.8722043242640785 0.2887174015109092
P 2.6216561334530972 8.738250056660787 10.26157323158663 -2.4495673719622264 0.858792678843863 1.0064830150757118
