# total energy = -340894.70770888 ev
CRYSTAL
PRIMVEC
9.05193522265438 0.00000000000000 0.00000000000000
0.00000000000000 9.05193522265438 0.00000000000000
0.00000000000000 0.00000000000000 13.24842218199435
PRIMCOORD
 96 1
Ni 6.4229452612744895 1.8835537762544703 11.360150277450124 -0.7363207508591706 0.9254582984922126 0.027568139426255748
Ni 4.587294324675054 0.36930084131634916 6.187649264677176 0.3812380345491499 0.40089077578307086 -0.9869552294554294
Ni 2.819080303311826 1.258816383119256 4.68556937183431 -0.09650789982076283 0.9757087100073325 1.2237602583677634
Ni 3.2289157092493483 4.282008767190981 4.752857835337649 1.062812028684744 0.4197346479624513 0.09286593219280136
Ni 4.893294985018677 4.524329065294777 2.4817608533003153 1.412600843585677 1.0008803241769537 0.8263916368053381
Ni 7.430832956170535 6.058432893536658 2.565702161496278 -0.7893217285362342 -0.39269152780173017 -0.24691100699808444
Ni 4.998442261177576 4.735112422098849 11.386409035491562 0.8436151997724761 -0.5835992799613174 0.05302463182614738
Ni 5.392998000951511 7.940981905013783 12.372873515986328 0.5912598818303688 -0.5089467854527493 1.1395897970664308
Ni 1.885599513548884 6.259494472224798 0.4699891343282193 0.9207554936999046 0.5324227570875024 -0.5384306538444792
Ni 2.571908168084996 1.432794572493741 0.4113452686840186 0.7540215105730433 0.18699221915526507 -0.11965605580245199
Ni 0.7597117000853641 -0.12288182707578076 4.760210722082128 -0.8826915969486475 -0.3007324236939143 0.0513708982728083
Ni 8.836906216747863 2.3821524561257177 1.3912833040935095 -1.0781689707567883 -0.7368110602320278 0.3957609107556733
Ni 6.785375683978183 1.0366909518465983 5.0157332672828385 -0.7163587059149469 -0.7525886347812588 -1.0754762544159735
Ni 0.8492498196491859 7.1646517575885325 2.699391998879715 0.7615435299817014 0.5005709026842283 -0.17619075766438685
Ni 7.754846967026919 3.8154448850406655 3.883947213018256 -0.00037075307585742595 0.003674363527793672 -0.7111198261135108
Ni 7.590391413199883 3.9583658856667707 12.484067484679157 0.13608823321654628 -0.15049206734670212 -0.26595953898910324
Ni 7.73684266844909 8.993966339736245 6.864484164114467 1.2289194339711995 -1.0460692620087662 0.5168035624930067
Ni 6.76697310026339 0.7919121482155335 0.33180501125152456 0.747904341931712 -0.5343968500947378 0.3593013823770586
Ni 1.8127223854191248 6.629917753472595 9.197729921001297 0.08185132624985259 -0.32562378761895533 -0.4721954368653287
Ni 0.04448301863809018 4.747359690060538 1.1751882718719069 0.053921946829436164 -0.05444156677833205 0.5407454180205848
Ni 6.404940962696662 2.201385315552957 7.1341693667082735 -0.1917580159750246 0.06142339741280389 0.08379533735010085
Ni 3.531838711716421 4.21060710445498 0.4989616624619817 -0.6061997909696528 0.10496554366981278 -0.9157667822360616
Ni 5.993123183009242 5.650453134259997 4.697307015859383 -0.2486542149414363 0.0069823448551041035 0.03080490119599856
Ni 5.1614132976759235 2.849286610176689 9.377948514317238 0.2526034293971714 -0.29596765531541935 -0.10277187845260365
P 0.34131406889657645 5.613485032001652 12.29923874090284 -0.5384095707985566 -0.9400464807190327 0.48935832179786043
P 4.027676551433703 6.166911281750176 12.782104252670457 -1.0579184480378683 -0.20351001430463017 -0.8096583832110572
P 2.022175107788334 8.381231812319582 1.3168745885734188 0.8131067467709738 0.19476954910783875 -0.19097717194494207
P 6.251836535273143 7.975741335148956 5.737096445032874 0.2801520284394014 -1.5638210473476553 -0.874734803995416
P 4.709567861723469 1.0884227599774612 12.681654025547273 -0.8475528442639854 0.19840457475726475 -0.03584812004686084
P 4.105749490213876 6.162557301048348 8.2003886354934 -0.569737948598193 -0.08012971557305555 -0.27273131049529803
P 4.7655088195972635 1.1754118546647034 3.709478408770509 0.5693039463845679 -0.504555341253273 1.6852136262252397
P 0.2566938655807858 5.348109455628512 3.5365339503651483 0.4393922742923787 -0.35293533094971474 0.8808432308859991
Ni 1.5984902414063291 1.055663807462047 2.623638165828872 -0.9981487841784036 -0.4102958711470546 -0.02166000147193689
Ni 1.882404180518229 6.3936713037075235 4.777182194884325 0.28541121995581165 0.3222952374663546 0.4060044428605523
Ni 6.140153762094037 5.859543779231966 9.103481174499365 -0.6455713507887397 -1.1267129411037626 0.9487468367065081
Ni 8.496209489813582 2.389294432786304 9.937667669229818 0.040042874854498776 0.7700040020442287 1.160979832706433
Ni 2.403044321946546 5.089278428210508 7.005686202297168 -0.1645598582936779 0.30933816308505435 0.22010957053452415
Ni 0.4877834280156471 9.345851258245283 9.319469393888783 -0.0819297448962718 -1.0731974856841258 -0.3973853337329737
Ni 1.264482894386084 1.1590550082443238 11.432076047218631 0.8600016115502994 -0.025605102162613965 -0.4654614605756048
Ni 4.082648952269875 7.085583105965945 1.5711968472022737 0.35627030886021865 -0.3624494410877371 -1.0137286408945316
Ni 5.635915726760755 7.91602572040892 7.93081024573178 0.4127798139111729 0.06798048180503131 0.44980472787495435
Ni 5.420515883141857 3.119423504323554 4.743240154473425 -0.6128828594167832 -0.11978923894620659 0.1892866716163966
Ni 0.8444151812025202 7.81111379455823 7.184539763825509 -0.10252171011501053 -0.973090555658195 -0.7640678390654518
Ni 5.033690495799024 4.46652340882519 6.945140525123958 0.36030719793375365 0.7954029017333075 0.0809414128410735
Ni 8.07315825887675 7.299072991314397 9.070836276364082 1.0633894984547685 0.541273779720229 -0.2375218524737006
Ni 4.467926458739501 0.3062115704275174 10.69523858670399 -0.08166620682223999 -0.14831305741751233 -1.7800896468695344
Ni 8.231358925666441 6.998612115148565 4.675818627526599 -0.3801175477914615 0.6520695569185738 0.674547940526748
Ni 7.231047700307671 6.024479085610347 6.896492711224098 -0.20598058733230978 1.30400413092118 -0.4747657686956662
Ni 2.3760605039171314 5.084082617560094 2.5068265663178435 -0.13743446283179556 0.6494277484203524 0.68345372765681
Ni 2.348126232719959 5.105418028192543 11.384024755830726 -0.5023588478225864 -0.07314120007036436 0.46332538806920853
Ni 1.1722074696991172 3.3022997457352457 3.7950499704475513 -0.5954320109301875 -0.6323882764395626 0.42488765291830044
Ni 3.5218272716826964 2.7208577573751698 2.814520843687064 0.08328445915195334 -0.38218574317439985 -0.1155716013204332
Ni 1.128477572047289 3.1850590845084854 8.261040220305304 0.05430221298699035 0.8248808565877666 -0.8126370062234068
Ni 3.6919040771019054 2.5789867812010647 7.220336545703778 0.01838518737540705 -0.06234359523422812 -0.3779876459326522
Ni 4.163609458293049 6.8252041976747355 6.011749349516832 0.5260831880227198 -0.2815553365448312 -0.28095575528761935
Ni 0.622487082111359 7.449597617282571 11.257289520054805 0.5602127827165772 0.12079711138543067 0.22803165359507824
P 0.2145426253809301 5.806680479234723 7.862792196272999 0.4780693791476025 -0.37173652281661784 0.5270337248614471
P 8.516015123442687 1.6639266790227782 7.853438831908761 -0.419266192966465 0.45336853396681276 0.664992435627829
P 1.5663468204662252 3.2219276154825893 10.402621212155902 1.2606941552796354 -0.11935549384289768 0.3326737524872012
P 4.0210686389340475 6.218996115343349 3.690308220973564 0.20074016486897686 -0.759779238992427 0.17005327730808134
P 6.769914979115977 3.9439552052565636 10.300515386133831 0.9125796427573316 0.5157054443328215 0.21720936616859365
P 6.382980968553971 7.701657797372159 10.363087791538101 -1.9700751443251685 0.5393508516659032 -1.2962136883424837
P 2.5980048964911684 8.313695325799133 5.7012462567385125 -0.8521638606734355 0.8103039872148561 0.9773249054545169
P 6.979476324704358 3.996936180407909 1.6130882968696085 -0.07721588436037023 -0.6987983284336804 -0.123453060951039
Ni 5.2155257646936475 2.6179282052743758 0.8616419185697722 0.4217982153596994 1.579460553657125 -0.7040685756936843
Ni 1.4559222662425344 1.0234479710424949 7.205922244519598 0.7329991426851055 0.7128445221141014 -1.6468787352007832
Ni 6.923643990049737 0.7595786366418779 9.203970324942754 -1.4758736355023938 -0.8382156260234597 -0.5148901475203777
Ni 2.835753967454792 1.6863121141072266 9.309533084914985 -0.4177399861299258 -0.8735415550182635 0.6916570894032089
Ni 6.576266935136354 1.9953813803924716 2.7695028556945496 0.673394286538279 -0.15083710939094666 -0.9691693662269182
Ni 3.9208365634427014 6.635774355372974 10.416293254675736 0.6502196481940284 1.5133878303977677 -0.037812957082715516
Ni 8.587063760716378 7.013059003298496 0.6299178154962454 -0.988536200789304 0.18128745546100392 -0.7715960291216969
Ni 7.81347634957523 4.118539874271428 8.216671256047345 -0.4152514153801171 -0.8467694291307416 -0.3585133392581245
Ni 2.853477656049758 8.334686762904202 12.422820282548791 0.3667647806336393 -0.556215488631726 0.33709913524840657
Ni 0.015566612500900183 4.845039119901332 10.176761857724191 -0.22923570120550843 0.6649996347166806 0.251022972283929
Ni 8.74826061796824 2.4232210849078215 5.745006025775612 0.5708010997553846 -0.728847582410577 0.5481098288054561
Ni 3.5667429728104905 2.7603875572189978 11.601934701006002 -0.235623092789091 -0.35457338077377 -0.10710495861031878
Ni 1.0851278556625645 3.187294912436451 12.652256056471753 -0.14135179560833075 1.1416047706139307 0.050594939338732214
Ni 3.242104378443866 8.419385718053892 7.898907606260841 -1.0197609631315405 -0.9194210911591971 1.141409623883989
Ni 5.772201659082413 7.784691196494539 3.424425736244285 0.03751110957158056 0.6243723481136214 0.2510718232439934
Ni 3.2148308984966585 8.243461362669235 3.422703153026909 -0.442707968929173 0.5197369340897179 0.4661165776611005
Ni 3.362305022393074 4.3167319895864305 9.200313343230615 -0.4001055608776141 0.3001456979525089 0.3149315980124318
Ni 7.3741135318926725 6.410200136891592 11.69043365843974 0.1378684650454206 -1.2207908913267942 0.18787333620863775
Ni 0.2562313117058099 0.1327873594708119 0.22279346407056813 0.36378975716571543 0.09972743519932502 0.02672198937587656
Ni 4.697827502117917 0.5348353857871648 1.7227850755248444 -0.35639655002543785 -1.6573325835442554 -0.6626465611034716
Ni 5.98198930304407 5.556720348049135 0.4296003058594361 -0.05202447269640718 0.9628711919230322 -0.044756992500716464
Ni 7.846126678871471 8.905800493507966 11.278050132819132 0.6123280153545777 0.40674183524720914 0.7558485364794532
Ni 0.17397366340701928 4.831551736854091 5.857206569632773 0.0989483909414554 -0.07152320485096714 -0.21600814677164087
Ni 8.199957763390682 8.649223397887791 2.463689570403998 -0.9631326731145347 1.278740728368701 0.2562132582356168
P 8.55149870837234 1.415016572289189 3.6966409546513157 0.4308914359102192 0.7690596358530885 -0.45518193302646764
P 1.8143969933813662 3.185575044799555 1.6313044107248225 -0.3820682437599291 -0.4668940792570734 -1.2824731988279396
P 4.705340608110675 0.946841445721149 8.351738797927284 1.3748688762525418 0.3455295254039468 0.11957609449413602
P 8.388907853141099 1.753586094514676 12.288017057168839 -0.10159277054283794 0.5349547794807368 1.015914849912573
P 6.488028673428627 7.829389651183988 1.2188801513970247 -0.0006620590640311179 -0.7329214953696346 0.3370166028369293
P 1.9931817602042303 3.025210965561346 6.005336958811688 -1.091900718520584 0.007911027316960568 -0.028091358919577425
P 7.0762777168568425 3.996130558199047 5.962133883772847 -0.9703068222654707 0.45941422594026043 0.34268151443219047
P 2.3036812322085787 8.5380113253251 10.2812121348934 0.5957400290889094 0.07410793485900785 -0.5543894911665807
