# total energy = -340876.9514008916 ev
CRYSTAL
PRIMVEC
9.24436169894455 0.00000000000000 0.00000000000000
0.00000000000000 9.24436169894455 0.00000000000000
0.00000000000000 0.00000000000000 13.53005778080584
PRIMCOORD
 96 1
Ni 9.285591609448854 8.845865053800393 4.96605911766206 -0.21679027635330406 -0.0725588452043331 0.3447106290470773
Ni 2.2968356331764768 5.366555375326512 9.486775729908878 -1.1094880925850439 -0.21365147361400622 0.7190542504692391
Ni 0.21885656682900054 8.60263665163783 7.320072052735678 -1.82010681069242 -0.19747486385414378 0.6483044334491868
Ni 3.149840625489435 6.269803473783423 4.901642556073782 0.07218192148088859 0.7995238658802166 -0.742259999161741
Ni 1.3510542262801313 0.33970071257600626 10.837684819709441 0.5423418159734272 0.3202969760894032 -0.4481875039865056
Ni 7.681371292118442 6.853437008887802 7.992732489295202 -0.10125955557313529 0.27336097365949696 -0.15033934381892172
Ni 4.8007449696877345 2.246453861606184 5.034900030786767 -0.7247767547753131 0.3266920809824696 -0.8022510350033926
Ni 5.004758789281274 9.020879310565308 0.4972015259941462 -1.6626318842699817 0.7792625445280192 -0.9599329352303145
Ni 6.988765220634135 7.505062824707686 4.504616631812539 0.5527923218827899 0.6930035761287743 -0.8988859473203229
Ni 8.61428454745041 8.30341515031907 10.086644213129174 -0.21653985090539482 -0.023154326629276252 -0.352405940808806
Ni 1.8163321978222238 6.619831987313251 6.990913610306233 -1.6431218392615121 -1.680143925011816 -0.8518789824431651
Ni 4.179098619042614 5.322311859962215 12.605143001363778 0.7536828962867019 0.5537870816958914 0.7632972794480144
Ni 5.014567057104408 6.296519679258312 3.0700516147370767 0.32411455006328055 0.5406307468195916 0.18686340688688463
Ni 5.6071861118356345 8.766825760786448 2.6858245093270385 1.4093813082071147 -0.7003440756542455 0.3800928652011131
Ni 0.5677045753625856 1.9256929973959052 1.656756025189858 0.659144204377168 1.1312812772007355 -1.3396799870562348
Ni 1.551398034256532 0.9669509953176242 3.7008360169780197 0.642952425108654 -0.9292722729216641 -0.08051820926072585
Ni 2.3697274256226706 6.210584092374377 1.6968312578383675 -1.0630218307027048 -1.4474881423811652 0.9387581009249122
Ni 0.3145763861955031 5.886171705270473 11.23189676025215 -0.7030043960952279 1.1645598367482073 -2.7545621704769205
Ni 8.601471862056572 4.23218898860742 8.158138156450912 -0.632133480116279 -0.07708192988566724 -0.32515738950549805
Ni 2.836225652916558 3.1479270426059394 0.06926245602078192 0.43586112121066867 1.029175057356589 0.9378674707898429
Ni 3.700092770292836 7.878747659971161 7.1635298796316365 -1.0967531615168788 0.8285264237601537 -1.6042711849429017
Ni 7.120183067357672 3.055908665686546 4.306130016112921 -0.3632094591822132 -0.4343146026591553 -0.8297001323532808
Ni 6.460006216913473 0.7430858332892136 11.975251604468466 0.22594340360748183 -0.21469302750464317 0.5430344711650776
Ni 4.688823481907637 8.529190197486274 4.819122760858696 -0.054657539443880056 0.4691116557336824 1.1097254054068306
P -0.012498377094135009 1.9487207025301436 4.738293759408786 -0.8953365394061678 0.05348383085075305 0.2637728157504296
P 8.115125990072517 7.73048658612816 2.5747969513287474 0.7291183195734604 0.6169968815851568 0.7095491391922812
P 6.806919380531523 8.431292406490055 6.555665023492386 0.19508682323794144 -0.6021389906367178 0.7987342800993857
P 0.626268531523129 7.561111390034416 12.891777379715544 0.5746775519916555 -1.0817731431682789 -0.20412502218080975
P 4.1504318532372055 6.97185728298238 1.0753309681089922 3.111968135603479 -0.8735724082561989 -0.1678624403043496
P 6.582207434966262 4.6232070021634275 5.715028987208979 0.2949906361141307 0.7869303454859222 0.6729980795411249
P 3.4555239356756497 2.349278897418361 6.8497401886215705 0.014151094689401435 0.14869743734012456 0.6919915899244922
P 2.675022472615133 4.199371504373559 11.531018422463946 0.22231094906121712 -0.2581084183758006 -1.935967918228814
Ni 6.338220995139705 2.6328404499224267 6.911681110131586 0.07018057478014365 1.5209317041832968 -0.5395992202312836
Ni 0.9671821043615245 3.031827103312122 9.769215941331938 0.8218577534907267 -0.23252877013448342 -0.94716740803453
Ni 5.148443904055046 8.064540842543591 8.815265291951802 1.56349066059143 -0.4669961520525764 1.7083628106481934
Ni 1.8326762294068621 7.942034560552854 8.821583813212039 0.002838755000375756 0.3043911034924241 1.4534469310677613
Ni 4.722667090296415 2.1515789769041813 1.5186138297249934 0.5692607518514583 -1.455137431396307 -0.4998851894711132
Ni 1.7266711331506148 5.571891138651162 12.882847326259231 0.5318362884564132 -0.6725692195338223 2.4728219716147932
Ni 4.439299669389225 5.42925063675582 10.092299913651505 1.6258414549145095 0.8378829252743892 0.49405624149416205
Ni -0.017963643764292273 6.205296317449936 1.1832089720570085 -0.5310631577358145 1.3133503480227704 0.7349840343256181
Ni 6.656781701252052 7.281358514573829 1.0687341915598985 -0.9762530125465769 -2.935396854671222 0.3126921671589518
Ni 4.221058777053175 4.4378298158700185 6.063684713018039 0.25313179109681566 -0.2812820282787865 0.8093650203403545
Ni 8.591349285933733 1.7485802705123754 11.065354961036627 -0.949192923104991 -0.8111758482968483 -0.683061634424714
Ni 1.9030997772641995 0.695672426278778 6.456056101135127 1.8566529852475702 -0.5760759750010788 -0.8240922992482
Ni 2.679358078278705 8.033831072790104 0.08860073637819392 -0.8769667786497284 -0.22159104017605707 -0.46647627499336436
Ni 1.0562145524337245 2.899494064774738 12.159693261352166 -1.0502308495856236 0.025571934931833382 0.6314413391452609
Ni 8.757350289986531 3.9873150900522845 5.5950445671052815 0.4123622667577802 0.22641365837568106 2.5067304514367796
Ni 4.922576413270283 0.6064375266841213 6.9882068611840715 0.28726832776920846 0.3029787965259298 0.4858101994352859
Ni 8.242134276238433 0.6843092568082818 2.967710059044739 -0.7711576560326977 -0.285343857052986 0.8914631724936904
Ni 4.1223012604136455 3.279372622414745 8.876327074658821 -0.35110856215362113 -0.13612474288143653 -1.056805674589664
Ni 0.4693658283106033 3.8322963877656355 3.5206023935656585 1.016395131983101 -0.7565219083973939 -2.285839779761857
Ni 0.0701231061002671 1.8992541227736965 6.978762821214124 -0.5604092149980994 1.3717028198197345 0.033858857530973945
Ni 3.410041675836046 1.980428863353282 10.829918631398211 -1.5314446878994787 0.06306787499476237 0.25929446826410185
Ni 7.317975431489412 0.9031769168713896 7.961072399153195 0.31066253832343266 -1.6391597692899704 1.0517285171770727
Ni 2.02694649170956 3.0306808024543757 5.330531946435665 -0.17488078060371173 0.08084988156853172 -0.3334119162048064
Ni 5.9579264412206765 4.8080665041985 7.975576802748386 0.12595191611349277 1.0578600839961072 -0.07784734729678205
P 6.498878758097525 8.034237824707366 10.904076901404979 -0.8501429735886649 2.7852097201594486 -2.644484759501839
P 0.33206394532936057 5.978726255171715 8.957250368598642 -0.8575248678750328 1.1102974758602169 -0.354139378560145
P 4.094965682701103 4.435250638940089 3.818426147386907 -0.5940292170453898 -0.7102955304400025 -0.1572602393084711
P 8.097275127521648 2.175521873852265 13.239066788857064 -0.4081261171892455 0.029809112941632535 0.26205660439027123
P 6.565391940932067 3.0032250480390053 9.104686845373006 0.12446787536879853 -0.4115726809769492 0.21513320036585534
P 3.8520793219235117 5.882769780144258 7.932483285986537 0.3433973095522925 -0.7466483580374238 0.019576893690663056
P 0.20902149035677403 1.0273444106696834 8.9812662960046 0.09985367636454416 -0.5287687052746829 0.5595430103430621
P 4.704418720190037 1.9634284820839667 12.602653494742883 -0.2749730553416232 -1.0649254754833208 1.2595754682941598
Ni 4.798609522122095 7.767732119643153 12.093503631179082 -0.8713224358797574 -0.38934626547858103 -0.32877673142564023
Ni 8.122965208841618 4.053523208948879 10.72516891946843 -0.7491325579118582 -0.3137234366369436 -0.8142115497993785
Ni 2.9136194495379324 2.6470582783031813 2.9949189890012238 0.3461746151871135 1.4469389547459146 -0.16615625624652028
Ni 8.356958493609921 4.987989517055859 12.966869330259671 -1.4797459739736063 -1.6251416006340076 0.553842103303543
Ni 5.931284190639836 3.645181261462095 13.436889659382599 1.1182432130698547 0.09483051211833991 0.8096290726350186
Ni 1.9598878915314122 4.183341781088626 7.5280156505116995 -0.15502235111688786 -0.7785904581616591 -0.7401396103846286
Ni 0.8598162380547918 6.905760096426858 3.521089571430201 0.0958700091264478 0.14454330596243495 0.7112936326872137
Ni 7.2255410582909985 0.14495251677052245 0.7957297001812037 1.3679212412901152 2.1169602110469024 -0.043508721915912166
Ni 2.9349461921090634 0.9325804583087529 8.681778557067267 -0.4292546716377446 0.8646437383080012 -1.1174158320725531
Ni 6.8918011101752725 6.203170114246053 10.100891623467547 0.6202495841944995 -0.674278231805129 -0.572097449969305
Ni 0.9237936924596588 8.649598009358396 1.769311676186419 -0.42034091408788254 -0.44406756828086097 -0.5413794520601579
Ni 8.673466951412433 6.486454335897438 5.940615449396359 0.506518892737547 -0.009652692598415634 -0.4345398312960839
Ni 2.419341915167214 7.204842932319276 11.146223713242088 0.43597579241166207 0.23142370999576276 0.8421203603945044
Ni 4.21132446412409 4.4084697229329075 1.5977917881652792 -0.02182789450836886 1.3564574636248898 0.1704371430100613
Ni 3.3151667911340437 8.269211011821808 2.929880281866766 -1.0727974220322298 0.05726643782163686 -1.5272283358252858
Ni 8.011847980534295 5.446066130790014 3.6573237306286233 -0.8318236064541867 0.3676142731181282 -0.27007227560589614
Ni 5.38598702373766 1.1290693674328947 9.700984231646952 0.337319993009961 -0.15318812612162652 -0.1367232956973839
Ni 7.689820638763441 7.470803220039886 12.434637219827273 1.0228118341427221 -0.5449913377811324 1.396863378245762
Ni 5.5133650843738184 6.654331945386707 6.0713566088393565 0.16865511140897407 -1.4394567874362565 0.9325681700641164
Ni 5.292655947448912 3.3620172165135376 11.045695901326281 0.579631553562821 -0.8205776012267223 -0.9023592505809039
Ni 2.662699738394362 0.9330241876730417 12.899692402251045 0.19158780894574748 0.1895988035401767 0.17924934198505257
Ni 9.208484388041917 0.30438262848714315 12.960239274008256 0.774777512173472 0.45138595631914524 -0.23907505589343342
Ni 7.465589400009493 2.700638599041056 1.8747519419393734 -0.728993363959822 0.672916318460596 -0.9189564928179528
Ni 6.812160933647185 0.8113646892191554 5.166019284625587 0.7224110827566138 -0.2823099553226686 0.5510707112059928
P 2.4575673510283447 8.494717972498087 4.872998901172764 -0.5308610690273373 -0.6268696606141785 0.8787287556461575
P 2.6692077690705984 0.85254647196986 1.5900524085031418 0.09703163353471676 0.16650926871056485 0.07971936750851431
P 5.9531286174693046 1.4566155931720899 3.2515979375187922 0.19459394276192293 1.3575355271804168 -0.5540552477556135
P 6.374588314287876 4.984282527991697 11.737176009548707 0.3390446890105516 1.180222997206761 1.0771572416628223
P 7.30491314832816 4.997575920196849 1.6271925562941159 -0.898538334172917 -0.30631531709833054 -0.3112158397237414
P 0.7905389910552002 4.1926138759299105 1.2120809626934006 1.1102180287725332 -0.5730978662093614 -0.1593348624493127
P 1.165094645196093 5.363541713394051 5.073162444094922 -0.07822709923370398 -0.39142963037017103 0.3706535741650842
P 3.453795240027275 8.819934619074767 10.186563746041434 0.5230366878869122 -0.13356392413279577 0.6712744119817988
