# total energy = -340891.31525082333 ev
CRYSTAL
PRIMVEC
9.09209437348714 0.00000000000000 0.00000000000000
0.00000000000000 9.09209437348714 0.00000000000000
0.00000000000000 0.00000000000000 13.30719915858673
PRIMCOORD
 96 1
Ni 6.356919494386393 1.9640469105065512 11.262161589748429 -0.022204818231813372 -0.5688200647696139 0.3024902869252855
Ni 4.78679665672877 0.3635582966752481 5.7747790705137625 -0.9099280640670975 -1.7480845547178476 0.12623807989534389
Ni 2.568871200172257 1.7045858186243132 4.878419508293955 1.029627057292343 -1.445737735348962 -1.018000528797008
Ni 3.5722928991002307 4.409220169232341 5.103976180944008 -0.30040589359243103 0.2540103370470271 -0.1628595877731195
Ni 5.132241683359942 4.625148314135845 2.3772907742984852 -0.23605966610587734 0.27506792904827465 1.0058669787582675
Ni 7.287777189588953 6.397770273579263 2.84684925108058 0.462122626010359 -1.1043944801122205 -0.8948714268442912
Ni 4.992868971530989 4.470446331503602 11.777084161278998 -0.0025055400306731044 0.22341832319278299 -1.0975298917819034
Ni 5.481914533789174 7.9965423000276115 12.395855723431207 -0.38155993666494287 -0.7625637437160996 -0.2576574468813111
Ni 1.7609295263158795 6.397033813949923 0.4630730859968122 1.0606492167054702 1.2677906571151003 0.799540578050765
Ni 2.812884824026745 1.7068406579832787 0.33052308164756733 -0.6524343964571603 -0.05072478004837717 -0.24670686140707834
Ni 0.4662998702246219 9.368857536501158 4.935360566573763 0.7221747983760917 -0.7490088878498004 -0.28079711822256803
Ni 8.56470726592175 2.2783696987274875 1.2349318748532303 0.47039952130717055 0.7989533380887271 0.19996857681027497
Ni 7.123583060623002 0.7384162480090534 4.825509884577715 -0.3961586604147242 -1.484039716252954 -2.6164741332215264
Ni 0.7715805707742232 7.5575123479051864 2.7335117509629066 0.6721313606654553 -0.4154560751917554 -0.2851304554905993
Ni 7.629103497552337 3.7023189381025046 3.9926258687316216 0.6525920050809471 0.6182742056356836 -0.5577650925070329
Ni 7.371233522153239 3.6646685760642965 12.526252719876409 1.4521300120285507 1.2705327386366119 0.4321055108229784
Ni 8.024054977044663 8.823686476811952 6.897986382758515 0.44023225369517094 -0.42696690404483234 0.5072930518994102
Ni 6.809742153394103 0.3957543114092493 0.09071818819334228 0.6939052620074372 1.5150508199224875 0.9925980295635036
Ni 1.7044767134940406 6.554454332744788 9.486023717481979 0.403902308915885 -0.3449451136553866 -0.5286892581869991
Ni 0.10003122027152066 4.838157896804558 1.5921929870929161 -1.0344288495563603 -0.20971228646060014 -0.15043293197399255
Ni 6.5632736641084835 1.622747878825735 6.680892631379933 -0.22219422097769476 1.9759984517881388 3.23943108904486
Ni 3.1992897349810585 4.3993916154136254 0.3183360385961271 0.6288404111873042 -0.7003782713262906 1.1032649944934676
Ni 6.126971340242871 5.455247421531732 4.771229173057719 -0.42939042588466053 0.7263096464800716 0.7806242007622363
Ni 5.427016469073719 2.735156510801765 9.184508962345618 -0.8015424389721422 0.008188449348063318 -0.597502520305971
P 0.1744809243318115 5.5578244281762785 12.65153995938718 -1.104585255966788 -0.5347148955557888 -0.9997089295766719
P 4.1021528721745275 6.238113099613811 12.688613882653781 -0.8110673477434418 -0.3800242167467068 1.2512147550342902
P 2.0988917594291947 8.562770649859415 1.2405553351093597 0.892006189481354 0.09891059572498449 -0.15869979996847508
P 6.356573994807197 7.730262137503341 5.716838791082542 0.45203953074274406 0.1628937834451646 -0.1855359463247127
P 4.827792909428669 1.3461845577732794 12.650635296015334 -0.9875728084347701 -2.121067805457373 -0.14357400007063015
P 4.227587403611166 6.237549389774069 8.153400927401574 -0.49432569310546476 -0.6890016540582328 0.39532767987299655
P 4.635922445750256 1.0249154095916595 3.7238199224415425 0.1687507564465739 1.8778568730186949 -0.64194455266943
P 0.44056651604042946 5.613640794404861 3.6085530799368835 -0.5463499086915559 -0.025315595946653176 0.9944042295343067
Ni 1.3482393710600786 1.0179872338193545 2.6398159019225433 -0.5669953528560493 1.7383328746477225 -0.6323641080698463
Ni 1.9919869159505055 6.604260824714192 4.9405366957957755 0.16752665423148566 0.03346393608540043 -0.4488390215275754
Ni 6.20867289862861 5.785654124373676 9.092156924826444 -0.0894605060556782 0.18935943383586096 0.8557387225088874
Ni 8.745449006312366 2.1899218064532326 10.169986504181436 0.3220288711788454 1.1805353862408572 -0.252968526046074
Ni 2.3084463463059453 5.196177289699638 7.35361122519539 0.8191403545595634 0.16302285282386117 -0.3281558100121897
Ni 0.6258852166459777 9.103913911822728 9.239055163015944 0.349242712589476 -0.25017116580659493 0.5000610529273452
Ni 1.3963820097928272 0.9345127170666886 11.483154940324834 0.12489005050788167 0.4928254544108544 0.03296617051337548
Ni 3.905263572503578 7.143658404593145 1.743017191553389 -0.01588581799232103 -0.6863377340728244 -1.3643630916252114
Ni 5.77568009704793 7.94740862302822 7.97749254428203 -0.42859955455224896 -0.27741046113852225 -0.5439351286024762
Ni 5.4874061586795575 2.9452748075182567 4.754702473449689 -0.39327156867491625 -0.5745168580440752 -0.4364272781267839
Ni 0.8629797568223497 7.327936969623429 7.2076976608066 0.4746048176377697 0.5903142300876478 -0.4346236492591418
Ni 5.099801091292246 4.416048331968563 7.219887431486296 0.2885847325877869 1.0679845740246185 0.11116627316388596
Ni 8.367226980128493 7.284367654267936 9.563431079782074 -0.6598990802653215 -1.4447817991935956 -1.2495810760856092
Ni 4.359895558254974 0.5182102727894483 10.235005888148507 1.2186219086999335 -0.6953651343824154 0.6660216482232917
Ni 8.522656330295884 7.229805997037488 4.865844232820628 -0.7310453613928443 -0.18626613962251795 -0.09961533510149295
Ni 7.5552938769229785 6.356919494386393 6.955073823754773 -1.2919446286534846 -0.5657100583857225 0.08152171082457574
Ni 2.619568717372221 5.012507894980042 2.7820426221175416 -0.7729139766021721 0.41799169712941564 -0.25513236646661225
Ni 2.167227939356549 5.066987723362787 11.667272575287964 1.1211161637422755 1.7530611819968323 -1.3721766741323596
Ni 1.1190458607342748 3.5633099100411267 4.23514929834847 0.15490665147462998 -0.06455525817356625 -1.4861133109525309
Ni 3.631846116040647 2.65690994820799 2.4704547358287696 -0.16928246058032784 -0.13572750744301787 0.6413897086072244
Ni 0.8572653756243267 3.3383533156075726 8.135515868921651 0.09725994749543895 0.1252929423732552 0.12432055115765686
Ni 4.095615656452366 2.458847768386612 6.710647418824088 -0.7918097850654104 -0.4411573366126015 0.36171333425266095
Ni 4.168297857402242 6.830390299298177 5.959083093407776 0.44049399199698974 0.5746978637066297 0.2040913407293969
Ni 0.7641968810830305 7.454198881631301 11.576025227212801 0.1740541709373583 0.12061430595066323 0.3276019943912487
P -0.022682047374237645 5.511354734774375 8.105694709189915 1.6536944725710359 -0.28800392038365236 1.7326633350667708
P 8.545822986290416 1.4998500416679323 8.09268028556724 -0.0282754499059255 0.19104941994377417 -0.9108132948855281
P 1.8217010838776724 3.5180494651664103 10.184372015607869 -0.09434817316528267 -0.767885155929013 0.24299290289060088
P 4.262264650849448 6.262752674867021 3.7046847010105806 -1.1417945180272338 -1.7106734610592407 0.910728705591522
P 6.688317235494979 4.043617969783321 10.396661504416784 0.555779686645888 0.6557336360337223 0.6037508152085279
P 6.390087453989239 7.848995795522408 10.375077782020622 -0.5122398543817243 -0.866344780159508 -0.32115238211116304
P 2.438572398344302 8.661501700661853 5.78905729522876 0.08734551659520441 -0.8975242910861058 0.3878177446491966
P 6.96348946613646 3.855784395924991 1.566004118989836 0.8212185772448308 0.7906746430197028 0.16505222454906412
Ni 5.312074214331621 3.088711685449861 0.3648484648407206 -0.42214608561742134 -0.03815131425874074 0.8747337755541515
Ni 1.4534167166427863 0.8632361538784902 7.26650259839523 0.663366984209264 0.896270878294979 -1.1124903697464774
Ni 6.872750366126482 0.5983889053984653 9.242794741356034 -0.5868113591407119 0.44661964527875336 -0.8715281241326602
Ni 3.034504619892798 2.141415483952909 8.972724993973632 -0.7083846865705349 -0.7368295721747892 -0.7876047458451274
Ni 6.459396487994856 1.9177408748000566 2.4808742757697955 -0.2527947194723711 -0.37109888923261897 0.6028874387669682
Ni 3.892461903884936 6.918701810159591 10.704843492222214 0.6385316703331391 -0.26047177640165464 -1.4707872221184217
Ni 8.299072642084926 7.198010943657238 0.5103474297344754 -0.5609725437007371 -0.6813053138552396 -0.21437729603643724
Ni 7.530426999315033 3.555608906262725 8.381646132303425 0.29701358008143036 0.5315177287747298 -0.06347436640456164
Ni 3.08303821867569 8.568907813437242 12.449483622588406 0.08123169038798268 -0.27207902162327985 0.8082579033191049
Ni 0.06473752904719882 4.794888620557315 10.377751766921719 -1.1160780870977358 0.08633892970756099 -0.4186398722363757
Ni 8.851771955762937 2.416060373131406 5.925229589903052 -0.28417940443123957 0.4793230490490455 0.7430871230487267
Ni 3.5195587528018466 2.563334114810927 11.301964050481264 -0.2460437739017827 0.5173596921067928 0.566688620248908
Ni 0.9418954975484624 3.3003301777076 12.479491170251027 -0.47010024489919683 -0.38626325567788317 0.5885142007644316
Ni 3.2582974262701123 8.207133385641951 8.244794658193186 -0.18636718397675647 0.36965418636629244 -0.9439185620799292
Ni 5.486578778108324 8.043102914371408 3.6330517277301584 0.4484533560533825 0.4866319240056329 0.27523145120933246
Ni 2.90818815531979 8.659674189729788 3.5330214166680562 0.8784842437355194 -0.7919985040374489 0.4494002933476841
Ni 3.6770247320676592 4.4450884808094315 9.424491151636534 0.2501418552305563 1.1130243878730766 0.3273896212701265
Ni 7.2632830878427725 6.09418524859598 11.572924823094224 0.2663261782999026 -0.11507640685156954 -0.5356134961106583
Ni 0.22270266428400784 0.1798243480869081 0.36841620260063196 0.8185731692021838 0.14487343560834406 -0.47116545293891754
Ni 4.572086852446643 9.506693684412108 1.5557582380478274 0.2199979846573243 -0.12064413074733416 -0.5201992184381169
Ni 6.181014748104525 5.661065157696649 0.32357763089630265 -0.44906399305418787 0.8630913062192168 1.199366402904431
Ni 8.063905625876702 9.044742562838264 11.149662380715014 0.2646709020846668 -0.41559851430689065 1.5938057666352035
Ni 0.296841418723022 5.081044100979562 5.908130088361092 -0.561714306962768 -0.8168921819553352 0.10426260406551721
Ni 7.904093886310031 8.739902828856847 2.433354445489019 -0.4373384770871435 1.591565307340459 0.45531563039085454
P 8.618496095146103 1.7710763034312238 3.6571112273740867 -0.12935785647124817 -0.10850235317847766 -0.6996118254739113
P 1.611282748052931 3.2663257454393313 1.5193625850077535 1.0861316772472909 -0.9157233305926357 0.1564986785520982
P 4.875235456908835 0.8754922968457698 8.081408816400671 -0.22605833191879132 0.5393053431399486 -0.13321014033780285
P 8.467203647834877 1.7548469153031867 12.266429762645433 -0.27801364194015993 -0.7886355011024869 1.4008506450282843
P 6.163285164435241 7.807026688744247 1.4520947261476511 0.6982769087125715 -0.5180104383169143 -0.5841222423443231
P 2.0102165648002055 3.1134058132682076 6.26553485568897 -0.2765612257643495 1.5818411380741597 1.0410707803529102
P 6.97792771170919 3.8479651949221276 6.32702741631998 -0.00014346755639975292 0.42414331855310816 -2.383897797678559
P 2.4951434083906032 8.565689212094204 10.232637397612173 -1.4706036453527058 -0.27910276123928063 0.9034547976379278
