# total energy = -381173.0557338692 ev
CRYSTAL
PRIMVEC
9.21447846846817 0.00000000000000 0.00000000000000

0.00000000000000 9.21447846846817 0.00000000000000

0.00000000000000 0.00000000000000 13.48632065235780

PRIMCOORD
 96 1
Ni 5.275666786330825 7.046781716092444 1.3457663050218398 0.9729188059670212 1.157909164200909 -0.3230210598887856
Ni 2.26478983469325 4.609552129068104 12.140534423206061 -2.37790995552624 1.2923958572582903 0.4905600554154455
Ni 7.545386367069662 2.2556029995391356 2.2666861743870483 -0.18883672856317155 0.12812912627046963 0.16909682693208297
Ni 3.1637635804009316 7.051057234158151 0.5051681240767922 -0.8154816747610536 1.0618540356468484 0.8535250026870204
Ni 5.7760314027187105 3.8520114152365537 11.547769779862394 0.050867219163512396 -0.2101624866241413 -0.5528046631779642
Ni 2.090147821979177 5.454667247417913 1.8161755729618714 0.20039280883188715 -0.3677243163334312 -2.998910044733519
Ni 8.688543795409272 1.2390156491101738 6.474297218677254 1.2467068398616077 -0.656980621066946 1.2487922616357268
Ni 7.932099604529918 2.432299840978753 4.846336585392355 -0.5687493594326786 1.8443669687913655 -0.8955265439297867
Ni 0.1056228037322643 6.87387202535327 8.47988837787636 -0.16052785431614933 0.7004834294455872 0.3650619390099197
Ni 1.486295396548303 2.77115307664315 10.67977695406962 -1.1958784443558308 0.5361842810124637 0.9925180682551875
Ni 2.0175100872551206 5.43905792068665 8.627172603657067 0.5917172810827614 0.5016407387096392 1.2854947592630828
Ni 9.043089288112242 4.64251231898412 8.884707144317877 -1.0027556868227956 -1.1008530426178653 1.0967369635669628
Ni 3.4421329786013293 2.437754812303964 3.1486112918077263 -0.830480462162731 0.09207840329449948 0.09231340212344101
Ni 4.98271086852264 1.537500254072289 10.2911553980934 0.39289027407609756 0.25234683330167507 -0.2244331376105425
Ni 1.2614529044765415 8.885263698824708 7.565799201489833 0.3583037943504797 -0.5939587688187706 -0.4785555747554016
Ni 6.114396271017844 1.2818261166387754 3.8060827681531353 -0.6034541099037156 0.3983381845645462 -0.13968186410507558
Ni 3.6270583494217132 3.714125957617528 10.719467399147689 1.0177799281457696 -0.34035672295375574 -1.2446764396951402
Ni 0.20018086157379583 5.887185657948482 12.872261696715908 0.7404198606292087 -0.9243619801042402 -0.36882423426582933
Ni 0.9937078000902796 5.741228317084718 3.625095665482068 -0.29562081349896185 0.6721606712414939 2.982661444085141
Ni 2.7116183304739088 7.7888052479786305 9.236066270324468 -1.3599634198956192 0.41685475531149496 -0.895409301625632
Ni 5.197196286659372 2.8815978170215004 8.271430150185271 2.6948387864743593 -0.9181563655141608 1.23093569307028
Ni 0.5949263600208532 1.324231147109422 3.6770994182997967 -0.6854895271399162 -0.5645332644688019 -0.37917035338684374
Ni 5.209322540483659 2.413050795204485 1.6346098010353594 0.6325019191992913 0.18518756184635848 -0.6419658928256686
Ni 7.9560296054278465 9.06239362075805 2.5730685089485528 -0.5004819425148477 -0.11589813142191652 0.9536869543206027
P 0.8977399270244959 6.158404620763131 10.49860187603532 -0.15676118818486548 -0.8685728981590782 -0.6127928708061382
Ni 4.553703174334816 0.28356820702081087 2.240145711704605 -0.9963394988838066 -0.6304833461073658 -0.026571836951257467
P 5.350691071009661 8.542227089880502 6.791292789678588 0.31233015583384277 0.2519843077559337 0.07466046492836818
Ni 6.022749066962857 1.7201220052452018 6.352300286490766 0.8725737917883551 0.11576957626385223 -0.46984981945128756
P 1.1448068200071988 2.0412926564956115 7.872342789426661 -0.6372111517495026 0.15243042201999554 0.5669963812973139
P 6.987726122809877 4.660452908798623 5.160850697309433 0.5498684633677756 -0.34100335539881915 -0.5178122062631791
P 7.231974306791935 7.5852482014495015 9.177548802591549 -0.016520880473158646 1.5833470331957247 0.6089097337016481
Ni 0.7022003983164247 3.8797469957921047 6.673085772536119 0.8416927859387826 -0.7341857067940387 0.5637318516134291
Ni 8.271625497131376 6.9978528347801605 3.6154398133677286 -0.8595557822621326 0.002614297694395498 -0.1851004014491909
Ni 1.9481158489947035 7.248551153775137 11.947221112525305 1.0072450900527168 -0.07992402732015266 -1.1322333567013598
Ni 8.061341881231632 7.0432986431854685 11.279338196821184 1.6415341830594181 1.83704138166423 -1.4945994940466711
Ni 1.583121137570805 0.4016664933159192 11.781245316925018 -1.590869309714699 0.4029039495583577 0.34007775826075626
Ni 1.4523769008589398 8.049740852686968 2.47712735787068 -0.9314553966159119 -1.1270703244431817 1.050237534453843
Ni 8.032187270973239 4.692933945827965 0.9218274955063118 -1.3247704169342538 -1.904220193503572 -0.21189669570642863
Ni 8.727834332116538 2.0998875258486844 9.404429537327392 0.5551528516951665 1.080221739520759 0.3120517053614755
Ni 7.766819502063167 3.110678969244609 7.454941652470655 -1.544541887403069 1.0627850321015502 0.21530777827050662
Ni 1.7878392084022598 1.3035999295466711 5.971405992260022 1.1657062916478245 -0.0858758740282134 -1.0444893191161562
Ni 0.15995689818537484 9.052322195659306 9.652564388378662 -0.815234591747254 -0.4854222199682479 1.1442581490763777
Ni 4.737670239381853 5.61545989881139 4.848157366361717 -2.059145614031279 0.8070883084910359 -1.6954147351279576
Ni 6.83569644055538 5.960155113901774 7.889011781195761 0.832212100141857 -1.3082127696858887 0.8695661153102832
Ni 4.316255275552093 0.5880717093978384 5.350603533463056 0.15821848945668235 -1.9994499979428597 -1.3720154659641468
Ni 8.175407911695807 3.935098368681538 11.445112195340354 1.328515485798983 1.5461531977542469 -0.8658768393841539
Ni 8.475449763539613 4.287174381122419 3.273548564112246 -0.7609668315426249 -0.1575173496245997 0.7403792371992604
Ni 5.8069551928663605 8.299978447752451 3.7791635904006475 -0.303698962521406 -2.048676081958523 -0.2049130652997439
Ni 2.6277297173916043 0.05874414390622903 3.869413879501409 0.3772723650331825 0.8908080554081949 0.6257162637360256
Ni 8.738532341759393 5.802191307435391 6.132000532363817 -0.09379667153718685 0.6300966521919084 -0.49876341716184425
Ni 7.085196877333672 0.8766129705136096 8.34703494701527 -1.0444296695228141 -1.3527782150010894 0.4375063701235755
Ni 8.099968975480426 7.632371044958168 0.4242134009775066 -2.1115518955471377 0.35790244514700303 -0.34933347253106933
Ni 6.823800548695839 5.765314964118676 12.559851250260904 -1.546851252262536 0.21889498140113267 2.106382435531056
Ni 3.4510618083549276 0.2296201992206165 13.450851707644757 0.9626043114148907 -0.01341190253053174 -0.05659537989654124
Ni 7.352002104903765 1.7795369631927742 11.443925370497976 -0.39552025549977693 -2.8083275371238345 -3.1651670882239618
Ni 4.337439361830238 4.683701038280901 1.9554487310565334 0.31182133451822425 -0.16152904188715408 0.08623762824300632
P 3.3002945096672436 1.757376142184103 11.724966967489442 0.024953327511227995 0.9099314065012071 0.48795269969958543
Ni 6.242763172253518 5.877077374935379 3.015595686123454 0.7757792139651091 -0.5394711792938516 0.5965635534314693
P -0.06703441029354774 6.1977873022562955 1.6161605720026935 1.6626267420636593 1.7643863772016648 2.2002834938565914
Ni 7.612154478931962 9.06236597732228 5.000444132568872 -0.40557635418419824 0.6226962459627792 -1.690834829066759
P 5.943651982747292 4.0335182145000905 0.2707038734614737 -0.24222619992790545 -0.3968736842038778 0.7639320848185359
P 4.444649820223538 4.729266634907878 8.937034325334112 -0.19732651120173758 2.3076319359362842 0.18471242198215285
P 0.3407578683889264 3.4601012118516032 13.023200384705364 2.194265826907601 0.8882837463244444 0.11342447307044337
Ni 3.624699442902703 8.919099264206762 11.109194692554693 1.6336704640406254 -1.755233507057803 -0.5147649347964232
Ni 1.0860184466037384 8.124064836992973 0.3532536228046682 0.7797811360356506 0.11302260964633437 -1.2953649671889431
Ni 5.261494918259583 4.3694320314943145 6.535026161271745 1.3493373076403408 -0.854936024101934 0.9091330789696278
Ni 3.7322324080466505 2.6740048288700025 5.532034774002157 0.08724421513064974 1.7694362809207462 0.5720714818273761
Ni 0.5080209266482203 2.78548159085042 1.6083245794098562 0.12427092886664405 0.894389087891234 0.6784452186986252
Ni 8.086838343489841 8.21715871418657 6.906560388150884 -0.03297876891886579 -0.8302596044011766 2.167767523506757
Ni 2.131732763855324 1.0269720677997611 1.5923162657556504 -0.14534754703128516 -0.38227110379935453 0.9614825391056215
Ni 4.249533236082742 5.275500925716207 13.141502310977309 0.865271087479355 -0.49725546515775004 -1.2267771908172163
Ni 3.302118976428041 7.60758409755138 5.887992846272956 -0.056228997696058 0.5537014639606206 -0.8738495731769853
Ni 5.040504078238392 8.537214413527606 9.03756152240617 0.7229011350191551 0.2394697202286908 0.014506935366923402
Ni 6.128402278474468 8.77384222371583 11.265083398442634 0.5835481150084079 -0.5424161208547884 0.4690720607449986
Ni 4.49935617961168 6.609785068967192 7.691316064497657 0.07384851055003411 -0.654693367694666 0.6335835822992444
Ni 0.6390941202457445 8.121014844579722 5.01072104054017 0.9109529057871859 0.08828859723476407 0.5787586640395646
Ni 3.870329798673243 1.0850417118732107 7.587323302027943 -0.18304686135427184 -0.833381694969926 0.07657747944542297
Ni 6.405066998135737 0.24307702375328322 0.6857755902299563 0.2117020631971193 -0.016577187632390807 -0.08411929634842287
Ni 5.556312160742925 3.538977148581011 3.7445447943384536 0.9196458055754936 0.35768827225366784 0.8485380909953902
Ni 3.682289934089478 7.235982604978535 3.32127587741641 -0.14735660704151396 -0.8288349561395082 -0.6669593295462126
Ni 2.336671982172936 1.0617567244765735 9.415771639023681 0.5326731825354117 -0.477652603325158 -0.1351711207189156
Ni 6.464463527126131 6.75140239041512 5.826036535130293 -0.08147234564387903 1.4296781107829377 -1.1360000228326437
Ni 7.658383518017411 2.5351149930846795 13.352172013529971 -0.5160474010532725 0.0694149002587127 2.9718065036485077
Ni 3.004178025702729 3.330094133426929 8.176675823949775 -1.9230722932130686 -1.3969549095183038 -0.43661471154724163
Ni 2.5061262434409044 3.117294964872146 0.4940324267009173 1.0249728463497831 0.12950800889586728 -0.4454989014107489
Ni 6.1586994840780065 5.9322997451245545 10.335026452107696 -0.43470952410472874 -0.0011436266861399658 -1.2473701844772196
Ni 1.614293718640383 3.272319352668356 4.602746315181616 -0.4508784205551074 0.9481565114206768 -0.7778288974052862
Ni 2.960095960128723 5.101706645032403 6.577844921831077 0.14681821803954068 -0.2210354247829032 -2.087819070706572
P 6.909117405959576 3.8003550482616633 9.631876041048656 0.9472162589945946 -0.5021017375064579 -1.2763316047065763
Ni 9.041172676565546 0.7008560058901605 0.8103811413052407 -0.688208468732976 0.8362687867097339 -0.8908013705399755
P 1.5542521761486983 6.7149222696777695 6.7475295450637915 -1.318482784153329 0.39979779982920827 -0.1077958140297563
Ni 3.762999552058273 6.262049075942146 10.592520449062713 0.43271743337536445 -0.5979632619924734 0.8656616380495543
P 8.702485301515768 9.138182707159846 12.069745112887134 -1.1903174053282854 0.0860360537551615 0.15442251274935984
P 2.953314103886569 4.833537674631006 3.706337880313358 0.8497904753452526 -0.6958644426163371 0.9032984745657217
P 4.898112740588914 7.4757617668444984 12.682252698057486 0.20111091794483427 0.1289631921359908 -0.5455672648892603
Ni 5.316532998876961 1.9446327760877276 12.797115780919686 -1.0830561236457603 -0.7921543128890228 -0.16952388716717257
