# total energy = -381167.0113697172 ev
CRYSTAL
PRIMVEC
9.31343288900934 0.00000000000000 0.00000000000000
0.00000000000000 9.31343288900934 0.00000000000000
0.00000000000000 0.00000000000000 13.63115044929111
PRIMCOORD
 96 1
Ni 3.8695263544101306 7.549878265622839 12.282184252950035 0.5493061631064023 -1.2166061638214853 -0.3830390923136307
Ni 4.676544603597795 6.79859159718022 0.8209949175071977 2.063473551982672 -0.15789813000278613 -1.1691384572578252
Ni 5.583514611568185 9.017218886940142 2.896401171916309 -0.6613047023635965 -0.18666388928156888 -1.0882343254125904
Ni 8.085074670621847 3.8493441459417954 6.389110699596127 0.11440483470584169 -0.9559646946111859 0.47760812324046775
Ni 7.514375460509183 6.120173225487141 5.791234893124164 -0.5663952573782052 0.5705542738519013 -0.7728424999342883
Ni 1.7909824045543266 6.318474832643478 12.99475218799837 0.5065913978466953 0.31763768408968523 0.7360543845716614
Ni 0.39564020538068195 6.229289401959226 11.350631439602546 -1.8087422776092206 -0.5474187162757024 0.4513677014867001
Ni 1.333562475290926 0.36419246882591555 1.3536552748061939 0.5174612506816637 -1.006201222169235 0.6322669203703498
Ni 3.9379614572367676 3.3280154421007704 10.926252775213678 0.5935044548901713 -0.37186790618815957 0.32716824928793975
Ni 8.900540203187813 3.081330552529575 12.230344755693183 1.1169923713818892 -0.9379340623617201 1.3382285993216887
Ni 4.478187115845791 2.879610915604951 4.06185060051664 -1.5679602663270094 0.1553851337729453 -0.15716176605739385
Ni 8.569224151479212 1.8004169117894087 10.058153309589132 -0.2534740049275829 0.612472511352242 0.5451147507328741
Ni 0.2981434674342515 2.276277437622861 0.8549759077321935 0.14404554039041 2.0922894477731 0.6832071588636427
Ni 7.254260601112727 2.1766889027119696 7.959691652751149 -0.6617104224424475 -0.048559911186574434 0.6096424981026146
Ni 5.695126787980055 5.36419258700851 2.246590871174861 0.4985613284533672 -0.9152713306568818 0.45206447044340853
Ni 7.5799513395242 1.2900594315643032 5.549036284041753 -0.12244441718086656 1.1675379455399246 1.7759771673630576
Ni 3.1536307298898345 8.41083991649421 3.3715967186613267 0.678500754526909 -0.63812980690903 -0.9689423378177765
Ni 0.1776164733270007 5.0026265061789355 5.034419771083575 1.7665342767826027 0.9988051868154799 -0.1800443270825222
Ni 2.998534136616564 2.012744548458118 6.297946164482009 -0.3222476720578708 -0.5001623543918999 -0.061548610136758504
Ni 3.2544765782032297 1.006428154824726 10.405747378815478 -0.9135175811905687 0.20370901768931368 -1.116067802685091
Ni 4.21033279394948 0.01323811311347065 0.8312303799468377 1.1042648965128918 -1.1267443085623305 -1.099618655990132
Ni 2.3278366005581175 4.083437274622733 4.002609718363717 -0.4199495921867349 -0.30387456886732184 -1.4058645533031078
Ni 0.5715886429270279 8.623214120325976 8.315260814322412 0.7523729192260269 -0.5896539707958296 -0.450691758465598
Ni 2.421762568441438 1.8882518947450453 13.385870721846345 -1.0616303496718167 -0.4928606785241641 -0.360885696145043
P 0.5700193295320514 7.2326627508875 5.435611713643756 0.46442016379528406 -1.1792148676572207 1.165508573814722
Ni 4.772137675918508 0.466242543975931 12.198202237065626 -1.2106895412267342 2.202815259139509 -0.8342013626577439
P 3.382703918393369 1.5100892770024237 1.785803204679273 -1.8036414660475453 2.0777272336882087 2.552007320996708
Ni 8.695821640962402 6.5420158421759975 7.8262972201483505 -0.05053966062076458 -0.5447635380410425 0.14873883210102126
P 0.5047321669279784 3.4095172908808338 2.947068108007419 -0.5367717780848175 0.4696459309705976 -0.16731968042700215
P 2.818803514086835 0.43099865228886497 7.851010413582004 0.004716431639062844 -0.22337307177714433 0.4333915766242536
P 4.956552955051638 5.250876052428802 6.69059116993495 -0.6239185484056545 0.5716984147586736 -0.4521837696300922
Ni 7.051497859735656 7.021527233593015 1.4060936257799415 -0.19759082060671776 -0.34427791238503286 -0.6881359636238278
Ni 7.408342030231384 9.225048135657671 9.103590729632568 0.27834300025512065 -1.0266952283575288 -0.7496876590843798
Ni 0.36320990168544054 0.05403094795025231 5.429191964544899 0.14531515113145296 -0.13839451275221973 -0.5716025126107575
Ni 7.2590570189074635 0.5652583027812379 11.63725325955356 0.1963078401292361 0.27223791579864726 0.5756746257976021
Ni 5.602961058860239 2.8373465584156095 6.256874858010154 0.44438689929349273 1.081399561878944 -1.018962121379329
Ni 3.117680880010844 6.19017298499245 4.945981277694737 0.4533513075756321 1.2821487256089854 -0.9949403045434347
Ni 4.112038826171536 6.7810544035734495 9.395147737524223 -0.06202349289064802 0.6700515953182912 -0.691191719731016
Ni 2.2043125438366027 9.222812911831 12.278830485866765 0.1971398491122282 -0.8013267234169102 0.7494166648111804
Ni 8.398406483958341 8.092907267447814 12.515440104039232 -0.04181590759452153 -1.7243928675278626 1.4791070548380267
Ni 5.805490964422032 1.3899459963187517 10.089532126742574 -0.2406729965081726 0.8815759952869656 0.40659759635986104
Ni 2.1520735003207334 1.0466901240026727 4.169987003878033 0.35185701028387145 1.0027772840893503 -1.1010613019739297
Ni 5.645113654858247 0.14945544714070463 6.913187797400699 1.5715590394218613 -0.4186378153538467 -0.5486641586470292
Ni 9.447546040737743 0.8599418300004519 12.51872588306444 0.38067779117030565 0.6808057485110017 0.9878895683442406
Ni 5.38565073574457 5.049351997589012 4.564213430188344 0.41023030801644195 0.2271824182209055 0.6859258433463864
Ni 6.223477820009877 2.681830860674838 12.142260172743567 0.2875318658432403 -0.4212631687918358 0.1814283519142424
Ni 2.7231825014682878 7.6641540837614945 0.877343047491101 -3.010118768965145 0.264795343477673 1.1354120115396575
Ni 6.102812987099981 7.1227735595086905 7.82501662316432 1.8134653941165026 -0.3661320321456468 0.46875632927679267
Ni 2.2400761250633705 7.95891491247138 10.347269266793408 0.14350740849875285 -0.6355777299111376 -0.7434213664596939
Ni 4.928296000509448 8.844482652301377 8.943860703635258 -1.9387601362619706 0.8215379082574626 -0.04151380297307044
Ni 6.167885940753998 8.630385463436552 13.367360274531709 1.3718984807703083 -1.4104182341120615 1.4125015990036511
Ni 4.080438349321947 7.499557789224863 6.997209861045336 -0.6240090512369317 -1.2921947969910776 4.069586049547372
Ni 5.8807248730548 2.669853786336915 1.8364701407703825 2.6068921459600456 -0.39542923844786737 2.088115518901068
Ni 6.771871359018867 6.172328448109511 12.592279648454157 0.5717760620741443 0.8186793557627449 0.21342598786676145
Ni 7.313345017597783 8.709372685411607 4.332061220863567 1.630580769371708 1.038248994633399 0.359122176486717
Ni 3.9933111872447573 3.894383906049256 1.9832507700651685 -2.507275268196656 1.00795882829029 0.3169666261645896
P 8.79913554891775 5.501947568759843 13.35578740316911 1.3105079934779689 1.527112379072712 -0.2591481724942246
Ni 2.7993011861991133 8.5058276156952 5.702509546010903 -2.090747042986645 2.0301975635383616 -0.4543057010691015
P 1.1590566884560451 2.515930685572648 10.802440933424478 1.4863367398172467 -0.09324696968130392 -0.1782126731904221
Ni 7.4955343863368515 1.5293867093727 0.3974069635470147 -0.6323890477705109 -0.5824283995816679 -0.9877239893006539
P 3.405335559638433 6.187025044769886 2.4927830801609274 0.119234137773685 -0.7291481443701313 0.5152141065186998
P 3.6159681515719155 5.126932891239786 12.278599512738008 1.1502863575483284 0.9652903428874859 0.07738686272059576
P 0.8574197524493559 6.462553635137773 9.410987092365986 0.32133852998004014 0.48037205913885006 -2.2800771662464667
Ni 4.440989265996908 2.563038027719781 0.1977064788124851 0.04702856214371256 -1.7447477770351307 -2.142465297296542
Ni 1.3892009217098604 6.614232198642756 3.2049151465630623 -0.7209470966165777 -0.6648258281429775 0.49144862866798583
Ni 5.449457062563473 4.418683594893234 13.445357478620203 -0.4680968413159229 2.182387844523093 0.30936953054362204
Ni 5.462738017466954 5.5278295979861936 10.639725952275299 0.05037819534223582 -0.4543661219933916 1.0723161115204372
Ni 7.830780706607353 8.461421169005297 6.596085906543217 0.2883052536741551 -0.29241696184968347 1.2828912602019646
Ni 2.3142576158110795 3.246355264966318 8.75530094699017 -0.2940424132682484 -1.0296260288510781 0.7791951816251935
Ni 2.6451266227543453 5.227173366433458 10.193456064533951 -1.4624015691578878 0.2714781548144873 0.43044920616647797
Ni 7.875410675679923 4.796315346977021 3.2665691391055303 0.028318901549351228 -0.10035092771593686 -0.16506225185139314
Ni 0.13590719672128312 2.465274925600672 4.9458583403842695 1.6330212604924004 0.781401702358209 0.28836361771591623
Ni 7.682129008700989 4.364125506657191 11.109741367802002 -0.1440260000063842 2.4704604133611516 -0.7168222758149267
Ni 0.293479300382594 1.5773508873200577 7.995555819050116 0.736553692805583 0.9598321479863923 -1.3595111628495489
Ni 6.633594825041311 4.809661495908781 7.946019533677999 0.9624816697940972 -0.41895766058711076 0.9950590895094864
Ni 5.861855858584636 8.186656280111523 10.899563271379941 0.38031963649993855 -1.2568112752854612 0.03598078896998319
Ni 8.895874173449632 4.0393754249394425 8.923386984726195 0.7229011350191551 0.16624315953337176 -0.611001069013038
Ni 4.811933973465898 1.87297786526278 8.097339530027453 -2.4290833930762616 0.5463406527201752 1.2119676366082095
Ni 7.747025007135394 3.9200424128929394 0.501919510279415 -1.0603882497345996 0.033363663062110284 1.1914175803709999
Ni 0.015754602604999966 8.91729506845525 10.643542596959342 0.40578409931963016 -0.8725573367281232 -1.129208968052739
Ni 4.771178392359561 0.7360061195575247 4.91939980967929 -0.5560149425851456 -0.5400360506583861 -0.5295004412343849
Ni 1.2721310737878637 4.900467463867369 1.4085477152729762 -0.3166863759200095 -0.36543603451988677 0.07942266220370192
Ni 4.408364311560094 4.414082759183332 8.693892829068636 -0.13083212702392952 -0.35204315815274856 -0.5040421490622803
Ni 2.7355973071389337 4.414585684544333 6.232747479487743 1.3288186188616986 -0.33928637270771245 1.4393649990533985
Ni 7.870120645956797 9.122423421715549 1.9540121797257637 0.15392243318448975 -1.0928060039436729 -0.8554846975165524
Ni -0.012781754915524919 7.370045195334387 1.218652412391452 1.4621745407487465 -0.791059022942315 -1.0611575238004562
Ni 1.8663280743784278 3.9791547696758283 12.57255472952703 -0.8439658982436756 -0.674021892819949 -0.4344544706711292
Ni 8.30160266539818 1.689782645801708 2.9005856971884936 -0.4314658203564505 2.24855158483436 0.9204212502889374
P 6.3884652787161755 2.1108708744490614 4.082379268678108 0.21511854507783598 -0.3259184360412387 -1.0756960837362635
Ni 5.312978021079866 7.499613669820531 5.350240133613765 1.95180359970949 0.2881867258184198 -3.1088211053340653
P 1.0173714381428123 3.677203970990144 7.104923434566184 -2.1517024996240943 -0.8508217448232445 -0.36737053253843827
Ni 7.609121010462283 6.6717798987469745 10.09769721311276 0.1734687307475335 0.38310825498866924 -0.41549952683518115
P 6.17289656749879 3.537623556447028 10.03482968030106 -1.2806477155834268 -0.7565105955434842 -1.8100638246341212
P 0.46687585739348836 8.528524450968542 3.079289979444475 -0.0715651138324961 1.5734557422239417 0.12397782310625746
P 6.696320793677321 6.9665221005916385 3.592625895418622 -1.0258889304061494 -3.0145593212350015 -0.6051957751851706
Ni 2.003617384499204 6.567674349019681 7.288235071934896 -1.3399777208023116 -0.13757484506440176 0.16527153964872182
