# total energy = -340884.0472548217 ev
CRYSTAL
PRIMVEC
9.11735291229482 0.00000000000000 0.00000000000000
0.00000000000000 9.11735291229482 0.00000000000000
0.00000000000000 0.00000000000000 13.34416758330250
PRIMCOORD
 96 1
Ni 6.540168973164818 2.023049429630271 11.411838664925082 0.6053757524064606 0.05326605841299214 0.15796189336118602
Ni 5.0097665888301535 0.6333369175233979 6.223372871462857 -0.2674222395775588 0.31037148944557513 -0.5372780282972747
Ni 3.053674998720387 2.232137683132957 4.710491304149781 0.6705622164061227 -2.58535889987396 2.079544489402606
Ni 3.5078285801740035 4.851069944672488 4.75808935657363 -0.030622095761231132 0.9481212873073671 1.9228036129327144
Ni 3.307830327488576 3.5264279800408107 2.9059857346897777 2.197749414580828 -0.7928467109703571 -2.2198529313480866
Ni 5.346588956123998 4.6574720737059305 3.2204815282611534 0.3932746539987098 0.28414649431077516 -1.2977126414855136
Ni 5.156948016305575 3.4066533153103005 0.6507401206928886 1.0890061705816083 -1.9418567729094236 0.5609656017222017
Ni 5.7974055864250404 8.25207050119974 12.412211033702434 -0.012835204091455317 0.7303761032399614 1.1598382629028219
Ni 2.4688515158495767 5.701162809467191 11.649791545897534 1.6893142786571744 -0.2352502828307045 0.0833335672223339
Ni 0.2348876269355797 0.35289717214931826 0.7442923668170638 1.3879804739338355 0.7143095366954021 -0.22566135359068876
Ni 8.368727031246696 0.6298878229304504 6.786736840869695 -1.3583184280930283 -0.8078560398949958 -0.044846209780413086
Ni 8.780813146530978 2.625633515903307 1.534992971507673 0.26659614413183763 1.0890323958338535 -0.10224428808390777
Ni 0.787931664622203 0.10538657015707485 4.0578948904113625 0.027398446617610876 -0.7314554523470692 0.6522649607588314
Ni 2.050820886490219 6.967471950398951 0.412678743221213 -1.0869004370925153 -1.0486197963447617 -0.45739976661339293
Ni 8.089325752365179 4.248804965750108 3.9893187207553886 -1.7900333883458075 -0.8910006310349751 -1.0855565214701108
Ni 7.219712635063205 3.960341038109961 12.857705865129823 1.1984426055385813 -1.1783844013361255 -0.18632373233333072
Ni 8.308680145206113 7.463629176551773 9.115734545750199 -0.32342806551921716 -0.9483621996735797 0.30034624399908916
Ni 7.0295246540722305 1.0296955990967755 0.4627102171276356 -1.167188532620306 -0.03333358115512324 -0.4286216660394361
Ni 2.404865933366611 6.975467868871103 9.197494407664704 0.7067589780416538 0.25354471026451814 -0.17324041678681132
Ni 9.00331302611409 5.324898773632266 0.903965479467737 0.2938308114780746 -0.6048059959459197 -0.004500973194147087
Ni 6.545922022829502 2.405412974539164 7.143600061520023 0.6848899458827044 -0.35980197616256104 1.0486730181802004
Ni 3.7552826545784166 4.977482042296642 0.7108344169684262 -2.1432073176688897 0.9809437331540268 -0.25185369571534044
Ni 6.259737433408327 6.0834807676117055 5.002634995410636 -1.3374580397042513 -1.0165360284363398 -0.7876695376447919
Ni 5.3343808206231875 3.3887194822034337 9.205287009167723 0.3901800742337861 -1.5189280434897068 1.3168362496888417
P 0.4711720323317451 6.326987028220859 12.244154515082384 -0.3554421565319685 -0.7259766886206852 1.212676746860092
P 4.274169441450822 6.6853628177132975 12.744254084618738 -1.7585661709754616 -0.8918398391068187 -1.3473799268036537
P 2.1625449286313216 8.771066696306654 1.646149914299896 -0.06072971377988895 0.37538414687153415 -0.11396903272000374
P 6.555221722762906 8.062584556380207 5.851124117834471 0.4687496444085734 1.9661485555772527 0.7109092527646014
P 4.781066909291437 1.4951546981164907 13.093564490146685 0.9036810547161211 -0.9981912073805648 -0.7402419402904478
P 4.5017932733501835 6.581908214630623 8.049202105828982 -2.769831180820849 -1.7066851658354543 -0.06650029771507902
P 4.784759437206171 1.4396482538080986 3.680214929674812 0.7312276526069793 0.6484301603937735 0.8313932037849875
P 0.4548392063898835 5.707399078834297 3.7459747490274253 0.4454078843588393 1.093959915042458 -1.4689452838136765
Ni 0.21081690360795396 7.416765982769722 1.8663549561641497 0.1389251884447091 0.3361779089857178 2.4519808664997256
Ni 1.7961458686081044 6.986618391438311 4.8469890175252415 0.49515050299960534 -0.042660514983003946 0.10270554399104248
Ni 6.165327244378531 5.641836194303803 8.976554507158653 0.40800090446529086 1.4008167064665553 1.4814611568925
Ni 8.9684117993052 2.75182679705844 10.56463053058031 0.0022617994509832014 -0.17388190702555217 -0.33823530573537874
Ni 2.430759215534126 5.821420693900124 6.998335101619112 1.1644022281244204 -0.2612040265819888 -0.04396406428577589
Ni 0.766520473128473 0.46801013435438793 9.273889619147038 0.5431853949206452 0.46000995054273036 -1.4417034173785879
Ni 1.5914521791915952 1.0946202689259574 11.552593270358292 -0.25462843024700016 0.9408131836817282 0.2395023732388391
Ni 4.136433591554817 7.341392826544775 1.435539062866937 0.5170521881687031 0.6056796568001246 1.3588087374658857
Ni 5.742127075938545 8.26071375172608 7.970378031540513 1.334182454276773 -0.19735247934366656 0.8435339529125794
Ni 6.834777996643312 1.1458962614999384 4.922129681251852 0.45323817903653557 0.3041885005633148 -0.45716733888761263
Ni 0.47126320586050396 7.8978248725600775 7.0092503964821224 1.8634923767669067 -0.629873994658141 -0.3408462609956646
Ni 5.197538471309019 4.394554968824016 7.123850963455568 -0.945049847470895 2.0381736397653025 -0.004070056304315572
Ni 0.8754710165247316 7.870709865107194 10.780712705474086 1.222831061685275 -1.3361305791420794 1.2798869261580021
Ni 4.641890517641043 0.7099673567099295 10.932089027007702 0.12622522437953743 -0.8690405818241163 -0.6385740935353003
Ni 8.31081360577907 7.400518859944893 4.44398105049948 0.22591049348701742 0.36683805707373596 0.617047532317434
Ni 7.508687134464401 6.6011458291987415 6.926983609747719 1.2277027879552793 -1.74913767857271 1.4668511202888093
Ni 2.6070067639778722 5.804188896964699 2.7668594884802005 -2.166887949115281 0.35210666440083227 -0.9792617174659134
Ni 3.3194458350524543 4.777164682260558 9.347682738118593 0.928016289027376 -0.07885547684632226 -0.1666581355836033
Ni 1.3392661986445975 3.5315519323570586 4.012590763971087 -2.1699840715421015 1.0134393917888866 0.2965163287300377
Ni 1.8272178072091227 1.6620113730980743 2.6882888766016806 -0.20803181343438365 -0.4979344935026457 -1.7308085412462193
Ni 1.32997561606407 3.7301278779938483 8.147415142743311 -0.054622829551202706 -0.21975218719510542 0.5917784733380002
Ni 5.33189178328807 3.264978768971913 5.169637548038234 0.25200307680901113 -1.1307547152733042 -1.2194112373704482
Ni 4.129157943959861 7.559261090866939 6.024517934828065 0.026187199918329095 -1.272727946515718 -0.8591423488737978
Ni 8.150767593395774 7.70513873688111 13.123068244053052 0.6412454697198763 -0.07902928342002519 -0.1170013917884243
P 0.6862959734382674 6.021920400993725 8.231910210520581 -1.1453866062538662 -0.1868973454486136 -0.5059499076079544
P 8.75598659464994 2.1572295119046805 8.324038326125542 0.3283108475328152 0.13951962749559843 -0.9362052525960716
P 1.9964449939384366 3.516508300111847 10.458371429753011 0.5502875531830652 -0.6138516510879557 1.227840599084724
P 4.23554833466857 6.7870668890438015 3.722849495193029 0.7406720858493309 -2.175815333511898 0.6990724080306735
P 7.090200637461249 3.9766155129934173 10.624519686416138 -1.1418297421405432 1.6721495939524298 -1.015258961496129
P 6.603853683002879 7.876034399186711 10.500752532861279 1.089948994110852 0.03425429319717971 -1.4702393200347517
P 2.3115042399175416 8.877967658776415 5.765694521387422 -0.5903684803643511 0.8135944850406698 0.4193888345872584
P 7.035341525207045 4.241939599034566 1.6731846890474722 0.24433887539553403 -0.20778987262690665 0.7667811242315569
Ni 2.8078438131278816 2.0943471291196967 0.2625742924137817 -0.5609931125260275 0.12167745710785495 0.4280529380201596
Ni 1.4443710425978076 1.5473880127424398 6.816401060186677 0.6153488044587725 -0.15224787369554424 0.24544367842393855
Ni 7.509215940931202 0.5235466659272703 9.110583241375323 -2.037468386168162 0.9062099917855619 0.029881103830148536
Ni 3.0297054780096837 1.7382415604933543 9.356502865290725 -0.25117106782601906 1.7487090756757238 0.6562152036558312
Ni 6.560910950957458 2.3429044032220916 2.677534047149286 -0.16831366890915528 0.44124346856850455 0.24517011304757777
Ni 4.505504035970669 7.2736326599711925 10.597964484429834 -0.4889885971632676 0.6896876243816639 -1.1712151372811956
Ni 7.241630751376834 6.077363023831986 11.715111908841529 0.5075815296741064 -0.5129286529186328 -1.5897092279683267
Ni 8.147348586067316 4.335036889250234 8.597113073846481 -0.7124066632457344 -0.17142110418988543 -0.43744594919928537
Ni 3.217140018432141 8.781041080352873 12.807771946899171 0.6268380360452946 0.6388564006624095 0.04628191378567513
Ni 0.5990839345039831 5.29122838946162 10.355193994197764 -1.1558620518638931 -0.42100297315191365 -1.0485460056840328
Ni 8.551684951407093 2.7124763020461176 5.792622623106351 0.6027141464138974 0.3240924385760935 0.344903976004806
Ni 4.16359418577208 2.923853011120651 11.46091828719126 -1.3169573486477384 0.5065456322104244 0.18378733906472217
Ni 0.9667220427830333 3.7913964893198 12.661639926739765 0.08060434121662893 -0.5886962348682506 -0.5023655326908057
Ni 3.2391584256274046 8.945755177408625 7.920937362100448 -0.12950415224112535 -0.24224728297382797 -0.4473156429045135
Ni 5.79652120319608 8.274015969571996 3.931284946229801 -0.9362816143599617 -0.3550963431567755 -0.5735323826436187
Ni 3.3802676960874876 8.729063051607449 3.570685434370935 -1.0847337684584997 0.9448935243986889 0.2485207746873655
Ni 3.7435121520156485 2.302104249102504 7.189303528016263 0.01887292564510298 1.1969341393138546 -0.36033933672326973
Ni 5.002080660355782 5.070898439862967 11.262010469909791 0.4906639279831614 -0.5328662723828242 0.4015073263211473
Ni 7.503763763911422 0.11294029701474613 2.8118700361578726 1.923753892661126 -0.2992776935252588 -1.4386656589935287
Ni 5.151030854289126 0.3562423289194807 1.8445380424674427 -0.10068465690627176 0.7058086983132426 -0.8663239542239015
Ni 5.952610284431242 5.816196450702241 0.4926990142069988 1.0393679387291905 0.6572600999805777 -0.23320317049368872
Ni 8.308306333738201 0.11343536927590672 11.323527073233965 -1.1505799775293477 0.8406810568448165 0.26143414031492396
Ni 0.4388902210040967 4.904962617521848 5.804232660258504 -0.20384914281160377 1.2429959666689239 1.6219516329418
Ni 7.193691709955427 6.168791838471367 2.644266649975754 0.4660150190862297 1.0640011638968383 -0.39223052900491157
P 8.69823728153408 1.8686379413242713 3.8149776107979902 -0.06831909609137267 0.4122913043105287 -1.1785474092765509
P 1.9813010708115906 3.8828070692534298 1.340087672138715 -1.7063586357339708 -0.23109769411491168 -0.5537526289135302
P 5.177425590864814 1.1855476291571654 8.503424067429169 0.08994618744284509 1.0231003119174187 0.504809366245608
P 8.594390632277742 1.8542872278976272 12.598896127718493 0.905440203499073 0.8120340825320854 0.3083040653935851
P 6.564412014461799 7.848272059679638 1.109129624292642 -0.06911408118884226 0.41859487793105327 2.667201741483381
P 2.2691906052205564 3.65885753056305 6.223906236606097 0.41041774143689963 0.28800726281776207 -0.7183811356616144
P 7.1538671125935585 4.397499873802927 6.086341792944158 -0.1634987640190152 0.3922549544849438 0.42647788022355587
P 2.832223614718 8.911802155298826 10.188058328218178 -1.0077040319670063 -1.0550136156862477 0.8152227646727122
