# total energy = -340859.8742905411 ev
CRYSTAL
PRIMVEC
9.35407627096505 0.00000000000000 0.00000000000000

0.00000000000000 9.35407627096505 0.00000000000000

0.00000000000000 0.00000000000000 13.69063614707738

PRIMCOORD
 96 1
Ni 6.561491489542612 8.365733743501435 9.316464262168669 0.01649774054470707 -1.8395309808553026 -2.4910940304511033
Ni 3.3609382388904816 0.7294729450177142 11.493385066920714 -0.255545799854947 -1.4838083169684382 -0.33708653684291623
Ni 4.853951673960558 6.814640850133682 4.62037010509326 0.020875815007744693 -0.007799184329444632 0.14606462770296783
Ni 5.985121384545382 0.5422913350713021 10.658516005229911 -1.3868386470199083 0.8933822438932743 2.9636103409909604
Ni 6.3890023268740475 2.3730168491899533 5.977770016164621 0.6065183506513361 0.12840577697062402 -0.5023333939012896
Ni 3.083627299819318 1.1643299102410087 7.208324914142121 1.080277789569675 1.554920659534232 2.5424510447668407
Ni 7.64162536110793 8.307242705856828 12.153287071192906 1.470211295010294 2.2244356656227624 -0.7956972930452749
Ni 5.352168473421137 -0.0043982865665270566 3.9002839754084038 0.8299477295877127 -0.14380771334799106 -0.12567449408239004
Ni 8.85406328455959 2.300083118098478 2.7645635068171672 -0.3093199082526092 -0.6948221173947519 -0.48032372239941795
Ni 1.7515881597797904 7.593367682680211 3.291845291431963 -1.4909377289243677 -0.8765129789417614 0.12040116149859263
Ni 5.845970148978268 2.765570005401936 1.0514888844264918 -3.335907621407055 -0.4699760606165067 0.30912964661867404
Ni 3.8852154942726775 3.7168234169212946 7.251354599456203 -0.026298014464580514 -1.3938256198607029 -2.141774184766789
Ni 9.28816724665952 0.005437524417529089 5.466410739830434 -0.6670966264550253 0.11145475093858224 -1.1181570811139518
Ni 0.6995389661969077 8.980268478850494 12.365176537661702 -0.2942990093637448 0.28113598961922553 3.6086337896960305
Ni 4.258003487755882 7.35199510385702 9.916579689261026 0.9457748985623775 0.28438714956667155 -0.10749782317336325
Ni 8.726969453042356 8.516315660021963 7.8766334265753875 -0.20126801234798883 -0.548211644490643 -0.9822161721085471
Ni 3.463870491927623 0.13550127508591586 0.4263344665189925 -0.23032199229115172 -1.116613904996548 0.38114264662186614
Ni 1.5742161694044479 2.809889617805605 6.999159354623927 -0.4029265752661771 0.7302148950717489 -2.275183585599591
Ni 8.57228109712858 7.2878261420399735 9.916319645946373 -0.6328027382691618 -1.0228450013735029 0.09801508049390863
Ni 4.052410249887532 5.875940608695735 11.555977866920536 1.4722509511481419 -2.9744994770996387 0.7268647476525933
Ni 9.242781269584258 2.6226771394081734 10.09814417652943 -0.5954083567811036 -0.5168925226623872 -2.575206384820991
Ni 2.361342962258805 3.4145838651325757 1.9599099816367749 -1.4604300472538139 -0.8967953833398813 -0.811433729943925
Ni 4.050118501251209 1.9934658587105787 5.28194274735095 0.21063531249550177 0.45637801021709784 -1.3462576402737525
Ni 3.2112168973680824 6.942080782465382 1.6655484327113672 -0.8852824976042754 0.5616906528136842 0.49174481975216594
P 4.314558231654697 0.028876968225277917 9.178298010811371 -0.33513609798476474 0.3648433952412104 -0.12696287387651037
P 1.3227224802771693 1.408546128188453 2.1632713369556282 0.3691397086237191 -0.32783467922734505 -0.6962336530302977
P 4.85433519107929 1.3861618241610196 12.703226298856283 1.7870102852487677 1.7793985343397807 0.036416076735188894
P 6.630711652435636 8.160823353185947 6.364707920513809 -0.47516300413408485 0.1396936911796175 0.7801187218807275
P 8.912806882257994 6.522803030931051 3.046919099111062 -0.5255095749074369 1.364173858432541 0.8842987935347674
P 1.6263183730955488 7.706346213412908 0.12511825065196217 2.0412944447824715 -0.29014333532415837 -0.3458833091989398
P 5.916078949097622 4.552563343093902 5.6410896917061955 -0.13328187411600273 0.2967544128827728 -0.15485882895583009
P 8.318345994147911 3.5785046941241117 11.89012510758012 -0.8122914499585302 1.1412982951171053 0.5989536509302008
Ni 7.785191720578489 4.592523956050524 4.370707944059826 0.0011461977893012518 0.6188560462810826 1.297284038588527
Ni 8.465345299534922 6.077371282714437 12.34936440747868 -0.5425423620200075 1.1228300611095887 0.9202500148183959
Ni 0.5876398958422999 7.034106182808838 5.777174661138669 0.3045232581949142 -0.4169874242346173 0.27216952445455705
Ni 1.1963021422367328 7.535045018404805 10.824761322124004 1.4792685201165554 -0.5470199381753869 -2.0065035623555314
Ni 6.3618287359005015 4.905249427109929 0.3679771921621393 1.9771410500330142 1.6797831992382877 0.7609156665897153
Ni 5.458636567211462 3.8052474979791007 12.3789494792622 -0.6334200601381865 -1.6924471678592015 -0.8463580526249359
Ni 9.067598133008504 2.598693288373347 5.130442260560679 1.5186925304401329 1.5320828357041099 1.6944485145599462
Ni 7.794470964036581 7.198438591147305 4.875003022148498 -0.11706695491903711 0.1339896988163047 -1.1822001755377898
Ni 3.7740984246772395 8.818994853385814 5.741223205184202 0.9210514276737686 0.09016858786629632 -1.705660838335998
Ni 5.033942805634556 6.033042316234701 7.054278247846514 -0.7331354111526536 0.014825495048606727 0.16740169861784718
Ni 5.141673699693876 2.0649684161638597 8.985958563321821 -1.259521989348405 -0.1390087492974509 -0.5899046533540551
Ni 2.5766176688561115 5.259768910035016 3.461965066632851 0.7387560997735406 0.9327386342037097 0.25287879454574513
Ni 2.8034914297760336 2.0848832441097045 9.866430616652636 -0.5517811070094562 1.4018014389773277 -2.107759518384241
Ni 6.9412014993151185 2.575214557446118 10.455839368279136 -0.30810789022237905 1.293379047107166 0.24766485444497346
Ni 8.757426324715288 1.5105336195428651 12.231255166023438 -1.252369951684656 -2.274229449216438 -4.67334946316139
Ni 0.8178867365918467 2.214315594643594 0.04924827508317376 -0.3123738645875846 -0.9030187385417738 5.074832364002505
Ni 5.23406390900393 0.43060273142819344 6.986044004570912 2.63664006664644 0.10826761145985224 1.6710715303969026
Ni 0.3826658978095605 4.48286612232148 2.900456717690275 -0.11445265722464158 0.08435583783926118 -0.3128328065018741
Ni 7.479145059830654 6.101158698151864 7.04054646418071 -0.888484806591657 1.175466199248066 -0.32053968822782863
Ni 7.702922621572522 2.2958924920206303 0.20853696560651688 0.3861403569467737 3.115593133950576 1.3718540006856181
Ni 9.315181818339934 8.996731652727755 2.777529191653116 0.16408548976042062 0.12369962974420631 0.23426477898898362
Ni 0.21219253853335393 4.980755529119726 10.746135635745986 0.7992482436213266 -0.25804491212771685 -0.8727650818635551
Ni 2.9869622777468154 0.24068318341708023 2.900375337228495 0.2991684216409041 0.7285223378606744 0.5282753105780321
Ni 2.4088148982969266 5.558697118896149 6.924271557042134 0.1456185413044847 0.8245694959949347 -0.4288438093525711
P 2.16959375696906 0.7973208649517651 5.048846655031509 -0.654387406418473 0.5668333733568882 0.09299268757865274
P 2.104152640806952 4.161712628726044 13.483181321590356 -0.5426760593843944 0.9494307501474101 0.7922651274352743
P 1.3463321682693306 0.39612173623140057 10.601179260571929 0.8340339838419443 1.4284210984473853 -2.1660266295562502
P 7.549487711851674 4.0456285447392295 2.182889640690161 0.5662980696787087 0.7026932926127124 -1.746360115827573
P 8.144902715720551 0.3233853761449315 0.18954912659887488 0.6496560623810747 -3.1314241874455617 0.5082777844101827
P 6.25928935405816 6.890062765458881 11.96772371640602 -2.4683068573532587 -2.0216794987650215 0.844222751449488
P 2.688080839266015 7.2729812233222395 5.132605858354889 -0.7194008351753804 -3.041706571073755 0.39002760781632184
P 1.4254395895647778 4.146493546965646 4.892814118386958 -0.4732202785854172 -0.050555601460364544 1.4652763196025216
Ni 6.97833718129962 5.152225097497028 10.73169200689151 -1.5843721320261295 0.010754153192710511 1.5764526200687368
Ni 0.49045291632527993 6.280214422219199 1.1730946795154362 1.227144601458964 0.9301155947585658 0.15992621617640845
Ni 5.967937946810991 5.42261402027889 3.011105148074775 -0.20184368234580077 0.31524784370127 -0.8870002516263303
Ni 1.6903002533912637 5.870580723109559 12.153012996764154 1.2748393364317658 -0.6354957117202926 2.715285227254169
Ni 5.930418747707759 9.24121913888113 -0.07338740378070613 0.2531436181713576 -0.7797312566343217 0.6628656190928133
Ni 1.3311224405849986 2.651515755921578 11.755519017573782 2.8762339711578204 1.892824550072121 -2.101693771806135
Ni 7.601187690271909 7.251494910597202 1.005713777786856 -0.8369221040230166 0.5201879055842074 0.3624931498414789
Ni 3.3249811704903753 7.7972584787044354 12.235896658567698 -0.8777882461097594 1.1411203747783445 1.217332757574865
Ni 1.6490300697853144 8.961756762314643 6.836897938726611 -1.4049502690189544 -1.688183250376525 -0.005822520219048037
Ni 7.345353709849717 1.2754469798364467 8.262066260085456 -0.07901385680105748 -0.013047320102261402 0.1279010694200636
Ni 8.209408424275997 4.808406677592161 8.923680060277839 1.2104925947245797 -0.970920801700386 -1.7219449202080022
Ni 7.263823582853014 0.5643800502950304 2.0833173717761513 -1.5226677130377968 -0.30795670935649544 0.6455574668316688
Ni 4.293053210777526 3.6387917143735096 3.159703065061572 0.30025574116781195 0.47761609366026775 0.8336876562461191
Ni 4.351675205487064 4.540019527088558 9.178037967496719 0.5029165200982693 1.411719212311672 1.9883055512902663
Ni 3.027156742605103 2.287857340679399 13.406760390941246 2.1720656366614786 0.5326631552330827 0.39225109783020184
Ni 0.8285588019762591 1.0730996063632154 8.443357608332715 -0.49039859013691667 -0.12034536855999274 0.8432112794658381
Ni 6.502205355432342 2.65780169503835 3.3772741973332354 -0.03428308955258612 -0.8907568904552852 1.8061706602273022
Ni 6.242554911974967 3.838061596820821 7.955956927027974 0.9963574966059355 0.36916799075849327 -0.5727628514674459
Ni 4.90519330265353 6.850438899240657 0.3180114594446555 2.2072907784123594 0.6966997940334388 -1.7279219637270435
Ni 1.4063292121606632 4.126990298366733 8.815126942932263 0.497627246674872 0.7950516890414758 0.46527865514083744
Ni 4.037303417039933 4.682136004768791 0.8758090464116018 -0.3304227516694955 -0.009687402491092994 -0.3393141406218544
Ni 3.2553774904786192 7.845329075610821 7.890173451681828 0.6278297105346027 -0.4012286187384638 0.1255359116219967
Ni 9.0913107158374 4.4472551547358385 0.14186953007207415 -0.19200664165072093 -1.5958973590569097 0.34144044293623776
Ni 0.035217160983236316 4.883950195906225 6.753467063473169 0.8154284529256149 -1.6508678017555178 -0.738927078133766
P 5.473883711200061 7.5436788306143 2.415000748799786 -0.09275563186718219 -0.036447187083440455 -0.04943665736457293
P 4.776808608639102 1.6721439917459446 2.5620795638333638 -1.3666768273600527 -1.4744680134041186 0.12606890130733128
P 2.7291545872745653 4.367025244312396 10.515640911980675 -1.0499482853481983 -0.2779722471792632 0.7580085202452495
P 6.243340654364563 6.077595780540037 8.939629695379042 -0.5156640495719248 0.23367728191662981 -0.37832317489520007
P 0.5975486686196757 6.506929163845989 8.233753342646995 -0.18830785264289504 -0.15652876045908526 -0.4205124066687403
P 7.765351725241178 1.1538533450463888 4.5505896330438445 -2.0102748564725053 -1.2759245990761445 -1.725725470296357
P 8.270668268436324 0.3879509507872036 10.08994345804182 -0.8841725523695482 -0.6691679071617572 -0.06722971968193582
P 8.75087847146865 2.6902696930656056 7.604121128526403 0.4562540830447239 1.7669456532884085 -0.3123990613985652
