# total energy = -340887.50957212 ev
CRYSTAL
PRIMVEC
9.11689103383649 0.00000000000000 0.00000000000000

0.00000000000000 9.11689103383649 0.00000000000000

0.00000000000000 0.00000000000000 13.34349157749114

PRIMCOORD
 96 1
Ni 6.490041127960593 1.8816898150597083 11.164458902487729 0.48165066874095763 -0.06078165006374694 -0.50069431563597
Ni 4.664219620361717 0.28408049719615447 5.790034392379264 -1.1402091758179846 0.02650730226190919 0.11680033152121176
Ni 2.8065801635072427 2.1450312088270276 4.498624972423593 -0.010814317006684601 -0.9607554311316099 0.9958669301227623
Ni 3.481065986380493 4.50666151175563 4.702206058003085 0.198860945568393 0.3337371607547091 0.637536139189089
Ni 3.9578976144510603 2.8405405821253233 2.4511991976167455 0.07384465389529217 0.7447403423814336 -0.5516762060004757
Ni 5.5916626982624225 5.163524384511095 2.5476996644593397 -0.37826763906691624 -1.1348245144673037 -1.1317379051221799
Ni 4.988844754786952 4.703768693104061 11.109670946599042 0.6038420893707537 0.9577837500977956 -0.047291585997112105
Ni 5.649901397358342 7.738070557615981 12.425152605298116 0.18122909141924273 0.7132540988476942 -0.4404767656058091
Ni 1.642353195043102 6.601048391609922 0.6125365491793282 1.0236649261716368 -0.008606510722088404 -1.0277208414085655
Ni 3.040081973345172 1.8954198527614077 0.20487750746606662 -0.7760386382740828 -0.0996238197419252 0.4845207911999011
Ni 8.28092670961464 0.10017639725516034 6.703276089318524 0.7793746446258513 -0.019190456885521786 0.3366155107437686
Ni 8.71061489481968 2.3258465061296847 1.0361127707222024 0.24944842870795747 0.531486104205846 1.148359315728945
Ni 6.782647741530339 1.0764860104022855 4.82929004707285 -0.37493240404609623 -1.086316539564587 -1.4348360008347933
Ni 0.7311719154481874 7.791039693769283 2.4800614508412075 0.8274347333578717 -0.332391188249776 1.257042160349345
Ni 7.708796220922651 4.0237306836701645 3.665163364408656 -0.43077753604017427 -0.0031061497291494894 -0.785788518571995
Ni 7.951205233173967 3.814981232637091 12.474923536122231 0.06746780383467091 0.3337667284410639 -0.6218737500614838
Ni 8.56553780986142 7.3664569674705875 9.512014220902786 0.6025542237972654 0.21866641033009437 -0.2283000767651165
Ni 6.953963238510838 0.8953789725906947 0.13382592989340855 -1.133717397446054 -1.1532598383543557 0.06356512634615503
Ni 2.0509448946958617 6.739834821844297 9.223154649494658 -1.1149002647395507 -0.3805101552441898 -0.4170581295715527
Ni 0.10684813801884131 4.776877041264703 1.2620630598241973 -0.446378990022857 0.4748922669712015 0.21046896212096652
Ni 6.583990688728196 1.872354118773825 7.03755783458947 -0.23001166013958455 1.086516314280219 -0.03354389739371643
Ni 3.7367218411155863 4.613256200207335 0.7321683916240146 0.6229268739163465 0.05153596309576286 -1.8448369664492485
Ni 6.360444523757635 5.934138705078048 4.649539602627802 0.6565993264681272 -1.17362631782585 1.5525555017361647
Ni 5.455428997481219 3.019395747883581 9.093562603737153 -0.6461585907507774 -0.9858655959356765 0.05335861812679842
P 0.02172828609193881 6.031634736407379 12.598190282970418 0.3318237457820801 -3.2648369307124745 -0.042274849508811066
P 4.0275780116317295 6.236628028387928 12.41595822082125 -0.08590415616298752 -0.584462142182245 0.9916680615500663
P 2.3794629415371835 8.669215093223785 1.2368165655323342 -0.04519485136908345 -0.016347845230404105 1.685077871978324
P 6.758870890052231 8.024131243516525 5.713363163253268 -0.7247649277007712 -0.7293216938335182 -0.26705277205328204
P 4.692153774092132 1.0733042154767256 12.357420487703672 1.3149043227734516 -0.3077782747971022 -0.13399792634642083
P 4.351191171166601 6.267224314262366 8.189755065505542 -0.26594256970823876 0.16182137631659227 -0.13162402679760557
P 4.690184525656829 1.1883684955784164 3.706902314346185 0.3724062951901328 -1.280356152484937 -0.25549617756393417
P 0.2831286937857578 5.657951612026735 3.404591682098027 0.6328919555488585 1.0884132741926158 0.3995147213711506
Ni 0.7961252046950377 0.4157347836761867 4.585277373711488 0.2974254708078684 -0.34075961481912925 -0.3864416902372764
Ni 2.0315350339608567 6.645392948967867 4.937305147127427 -0.23732284908901705 0.9585262846907749 -1.4749374968413693
Ni 6.8087402832981105 5.773398801546402 9.13710213962826 -1.8853709220075527 1.6974759885323605 -1.3391066310512678
Ni 8.955275779124328 2.6417103083960014 10.219032757278523 -0.032743512979608126 -0.6813122558337751 -0.01935449326721183
Ni 2.346204523518725 5.546871413250172 6.959444313322432 -0.2752988141121581 -0.9892363121801222 0.5658262722486127
Ni 0.6810709531733414 0.19657384323053695 8.948265801708102 0.7759674187165152 0.08754786241399762 -0.17731458685618495
Ni 1.7927454273985013 1.1235291674678687 11.617337723085736 -0.8552188454496755 0.9447863093968633 -0.6469790297695438
Ni 4.1154374892753385 7.04625352513388 1.3592618805100514 0.39586375488212466 -0.2656720896556715 0.3214714560134786
Ni 5.960987948790867 8.595878822790539 7.683395651174507 0.2516086695840699 -1.2809652468238455 0.8478094403594818
Ni 5.357768862115613 3.1375871215654065 4.327894779839143 1.1533629395911233 0.8633931537303516 1.4295115032980865
Ni 0.6413924205801571 7.273236757975319 7.074625289627697 0.3489850880527151 0.6753298129980949 -0.0734733865988025
Ni 5.476798989760623 4.53717574561193 7.245835942362798 0.37509618331747013 1.234160370655165 -0.8419704650802016
Ni 1.0305459971361084 7.5417291951035015 11.578401305412152 0.037769248328973666 0.36185294515431876 0.12913828426127436
Ni 4.495411268379868 0.14630604185214438 10.051519003805069 1.367328859121755 2.313694082969964 0.8771467558710184
Ni 8.657162563448455 7.409133133793067 4.7875647724716766 -0.1202101285337091 -0.32396568319024205 -0.0850070982700149
Ni 7.611582813211349 5.961325273754322 6.880504801739476 -1.2119540097614547 2.116809287291335 -0.8689140835485809
Ni 2.4622990122925885 5.259516128841235 2.6020609498537106 -0.9053430157995762 0.9989633096598989 0.2915034488964786
Ni 2.6549024495343536 5.218845678517676 10.978064067951712 -0.6148204427591282 0.3746675804204838 1.0619193416671453
Ni 0.9202316171954968 3.5364055141688824 3.3374476039669014 0.1479163361997259 -1.1348921344804455 0.6869571128243782
Ni 1.8800487746969554 1.390654070960424 2.3855630532411727 -0.8230947112216213 -0.4621182551349848 -0.328506508483389
Ni 1.075109359875754 3.479133205508806 7.878651191980299 0.021158379245170014 0.8729635710276061 1.6066720810749104
Ni 3.9754202787688997 2.815615002393288 6.908565680253459 -1.1341118046709953 -0.18999115388258891 -1.450681452507482
Ni 4.278155758133193 6.574782628914972 6.052047455141844 0.580369203059794 1.2215305977062962 -0.5206129089367678
Ni 0.599173010491977 0.3144269802598173 0.25363281664345527 0.23554467414267174 -0.579111419393293 -0.049738247765391756
P 0.03051970399084226 5.533770441020861 8.298824078148643 1.519182325592358 1.4354726059775278 -1.0381255816816573
P 8.653862248941142 1.9603138822173805 7.9503327467144365 0.23964069858891632 -1.7918573289284239 -0.03666598796246588
P 2.160302001091534 3.3762217409823907 10.03757471916712 -2.45053076431676 1.1064634468261074 2.0995749256909195
P 4.109174185224165 6.300838291026087 3.5899462793818766 -1.0695226079357 0.35564141702696817 1.0725765642706753
P 6.807664490171416 4.057481413797449 10.264120341245158 2.3529921092386377 -1.425571544813732 2.2073373153795792
P 6.471907631952173 7.801277962254681 10.042685648208005 -0.2164398349924208 0.5465782226522781 0.6130828912427312
P 2.310110752429065 8.680355933908697 5.993922717182227 0.6531620186518041 -1.7699661852822872 -0.786592245420213
P 7.1129253483161685 3.9538223642168906 1.397023130946086 -0.6284118082903177 0.11367027053266231 -0.9209388133553044
Ni 5.742045813726917 2.9290747096958425 -0.2542144742831421 -1.2102359986290836 1.2566621513021068 1.7543475049084238
Ni 1.603734045172984 1.309604910822239 6.893488166076122 -0.23946174980889084 0.8499270009231169 -0.2282234578909102
Ni 7.452976262151282 0.6243465696566065 9.27355282241298 -0.7417326659033612 -0.3351152720491583 0.13508524587332865
Ni 2.8393006849623545 1.7162911802760243 9.140118007139364 0.1854341306395258 -1.6022017040083825 -0.8265978392788731
Ni 6.374247496586568 2.0809576995524313 2.3223282979297606 0.6507186993176343 -0.3629240667313104 0.0407319305017234
Ni 4.1745696436798685 7.104938951884105 10.256154001973083 0.728091678081159 -1.751028982058152 0.5731886261509548
Ni 8.256849000736695 7.521498814187121 0.3889466231324264 -0.5556063942928174 -0.4021889257692041 -0.17381428701241033
Ni 7.727558782403459 3.9006435395727928 8.04273608278469 0.16539983769647 -1.3107445349688072 0.49426115841611645
Ni 3.3624825863897874 8.432139462151417 12.752521923885512 -0.5864876572527061 0.0509194125576865 -1.9937298076296306
Ni 0.19224696680741177 5.007014718358989 10.295930996988034 0.8334562569616033 -0.09588672129699614 1.2572151955920994
Ni 8.688488200595227 2.379517642882609 5.39873652308265 0.5097386852264253 0.9659174349485236 0.8302403211274669
Ni 3.699989887662634 2.893081224406129 11.540104893480043 -0.2033981713171142 -0.597282690985681 -0.9376512410139788
Ni 1.3689194030448524 3.755931130250699 12.655207318685175 0.15368074948732888 -0.11217157449994875 -0.21821826704908223
Ni 3.4049855317850874 8.390694076101001 8.023947994009351 -0.44823121274024746 0.2927566045772893 -0.8144997704637585
Ni 5.511826084614494 7.85533200842558 3.8665965104911217 -0.006340854616363274 2.586892305799351 -1.1960975023451723
Ni 3.0488159548313787 8.570150956658935 3.497769042206046 0.322673960962012 0.0672816559657938 0.33316663296321974
Ni 3.4703262888953654 4.376846102170972 8.70937682103489 0.2072160024013076 -0.009433891719390203 0.3851324845075496
Ni 7.410108641119814 6.039320275439605 11.360008007180635 -0.7884002451632293 0.5221362875598298 0.8961700910510566
Ni 7.914491513502822 9.015666064473635 2.190321187771737 -0.9139937494960388 0.6147931890656185 0.21792156174426988
Ni 4.481526243532798 0.49040759031598613 1.4260458414504615 1.037511602246742 -0.8548954006719857 0.6211610402651755
Ni 6.100768120133797 5.4986339434761415 0.009449657422185448 -0.007356183254755073 0.15646911086574344 0.8871180081511172
Ni 7.814998883065476 8.6001546446246 11.709700944836014 0.431175028588909 0.7576717057311209 -1.4612563998098511
Ni 0.17151606858039056 4.968778477906847 5.546208615281437 0.8054664566168968 -0.7843646416412751 -0.29258588332738
Ni 7.57755857635694 6.6215887468170465 2.5334618159342774 0.11092407524609284 -0.8558384813115455 0.47660667855914696
P 8.431957124333334 1.5325037765386038 3.33992922167102 0.773369576082352 1.6740537529536779 0.40827652672418074
P 2.0665438950329182 3.385402450122903 1.4424717437925276 -1.1941000122991694 0.3115197441174054 -0.4244050568549272
P 4.740920023538607 1.2531166547799224 8.060710033202287 -0.09096074475028851 -1.4455857831521297 0.0319662684939514
P 8.604403115785951 1.6218857749632118 12.190946971482385 0.26006862742596504 -0.02747455127118494 -0.35537222252598155
P 6.241377928549007 7.792489279423049 1.2529707845254556 -0.419360038231852 0.5704388313199595 0.12173042183297744
P 1.9982857328333017 3.500585249806348 5.988491785270606 -0.32525766252878824 0.1510253141423528 -1.1117486064844468
P 7.106397654428774 4.0699350867725625 5.809595593503279 -0.5458881385637889 -0.4291428286502287 -0.5586068716820379
P 2.2782745693916593 8.659587656428968 10.311984018492119 1.5919939102374452 -0.03745197419887099 -1.6733479851359052
