# total energy = -340863.8469105402 ev
CRYSTAL
PRIMVEC
9.34570778398658 0.00000000000000 0.00000000000000
0.00000000000000 9.34570778398658 0.00000000000000
0.00000000000000 0.00000000000000 13.67838802048247
PRIMCOORD
 96 1
Ni 8.272726962008138 2.9691500144419947 2.419679412953489 1.1057713058550893 -0.7210147166297195 0.5696623581652511
Ni 3.8460577640157854 0.7073794163653957 12.546118143268265 -0.4882190659870947 1.506751813138489 0.31096027206950966
Ni 8.830469449344962 5.012411425473299 4.075161245262474 -3.1257387070250107 1.7271786578031156 0.126030334759912
Ni 4.097120854547069 8.981729727793772 8.361543894738336 0.17552792726940739 0.4246179441966816 -0.20029433558080986
Ni 0.455115402400027 0.48312448825180837 1.047550091135049 0.4938814064791946 0.7000116320154912 0.3464749200363517
Ni 7.948197263575335 8.198465968955666 5.218742220869125 -0.11428399285726122 1.1333170766838416 0.005348665906423047
Ni 0.10273642971639903 0.8513098562978382 8.45331220194701 -0.12951880752914469 0.4618971402631142 2.364998389670895
Ni 6.660293328314594 3.5630136618779633 0.672404974595919 -2.2083662708647256 2.030950382543986 1.702887903576551
Ni 3.966925801159959 6.228157151904677 4.909310513158229 -0.347091470574428 -2.3894130710698334 -0.45339527343969016
Ni 2.0592519168345746 4.845160641221222 7.7988556589087645 -0.7556518470876147 2.850539908825826 0.7330371950118924
Ni 0.028417493276447027 0.5489173355951371 3.361094040496833 0.5573136067919111 -0.8184153034680808 0.2759521314254409
Ni 1.9720377729677665 4.4582296527542695 10.322190184641459 0.47906156785754267 0.23187159616645872 -0.04556817554810216
Ni 6.059242831689429 2.0376259493133793 2.5154551596060224 -1.797356661480098 -1.573440058494658 -1.1824958524013378
Ni 5.523257151781016 6.982916502385113 8.307377107721873 0.04190306799168912 0.10082735313172313 -0.4785010673683823
Ni 0.2509135592087512 2.9207953230181984 10.961285188001836 -0.7834143619128636 -0.820903102886941 0.5952263226772846
Ni 4.140073726944395 4.1762322698741725 0.5447276548519426 -1.6664399451621625 3.1549094150516956 -0.6794736599631395
Ni 8.378202618639172 7.193082776203886 2.9723275550458004 -0.2626854962235218 0.5979491209250863 -0.6700441391191235
Ni 5.46067829330136 1.8979730397761188 8.607480864619069 0.18949955895815107 -0.9076917185374109 -0.006902383546788112
Ni 6.2046059686058825 0.8041177709067285 4.903920843551715 0.4793927259447164 1.6512686367383629 2.0950929786601655
Ni 4.557826859268262 4.480752808210657 2.8501249508480284 1.2864319263653716 0.09870722146492678 0.8827188506421573
Ni 9.116775203455514 7.641826275122517 0.4494649875498478 0.5388548858660913 -0.7849495676104675 -0.31865764071376734
Ni 4.2411008267301 8.443248743940606 4.778968732160886 -0.9356336963633176 0.07487129538759364 -3.147191734692464
Ni 8.280764270594235 1.160830348231488 12.983320627799719 0.014901342591864658 0.4334975060744986 0.21926444892540947
Ni 9.048542191842616 5.075644483489033 1.5875413413457895 1.3996877350684347 0.33014430119712823 -1.1680290262437305
P 2.8090113137178454 6.864954980322656 9.124442422018344 0.7545717266495585 -0.3540519610526612 0.36019201251212807
P 8.128849792609348 1.7791610583167605 4.486716304267388 -2.010447634604944 0.2103792306206377 0.05038925108582935
P 2.0317288077810223 1.5942001580522942 11.404232479030819 0.0665046685904532 1.1789158483595632 0.7688526620486049
P 4.985794850062598 2.435052167480548 0.17691891882454056 1.2805412719125495 -3.7470933513582305 -1.582401895673636
P 8.502986507292151 4.804282515924028 10.23927226258515 0.45851305428222966 0.6328449043610068 1.3805299311930612
P 1.090569318056749 8.518163936529154 12.390034545097032 0.05562298868094291 -0.1295172648672479 0.4045137172476388
P 7.11435453489077 5.31567963898358 2.638013835265574 -1.0190287129512063 -0.38061942712854446 0.5705442465495723
P 7.784983825031621 2.4566781350017433 8.027394659412895 -2.8530156240598283 -1.449359391261949 -0.9428494973854664
Ni 2.5783779401275018 8.97318775099413 3.190675061348607 -1.6765484943510742 -0.7929536688618666 -0.5288090715943151
Ni 4.619985160903296 8.11872839121546 11.221476231202935 2.3361853220939444 -0.14694625897697275 -0.7483571131984144
Ni 1.2078579491678123 4.665461374368351 12.804803592965618 0.2803674868843172 -0.5384010861581243 -0.5205645721973358
Ni 1.6251905246470577 8.511790163906225 8.296023942058628 -0.24148803621030027 -0.24089256871814638 -0.531626229328136
Ni 2.3061748588732525 1.6220784039968599 4.418132828617305 0.2960702423315546 -0.5274253038729111 -0.38445551304518305
Ni 6.145718664651236 0.03784637773285753 13.26036291647941 -1.3684819988895915 0.03876889323808162 3.132046651520909
Ni 6.716750748278095 5.029018747982014 6.073655782039986 0.0520974920261877 0.31784568633543325 0.3990773767234159
Ni 1.3543145338802802 9.08851378349696 5.6899088761722005 0.15892502860540372 -0.4829537038230973 -0.7989744211346499
Ni 1.4547248169605402 6.633405727381803 2.7608454055887464 2.3542812603637064 -1.613695563580595 -5.519987766030907
Ni 7.98987911973114 4.994364863985216 12.293245723734342 0.3390063795734484 -1.0108469484713625 1.379208641278476
Ni 6.633415073089461 8.933150739386178 3.2629659792267183 0.42932794807784125 -1.1288860374956815 -3.226851966828269
Ni 6.2182974303252205 6.728143165913504 4.298474126044109 0.12556265109487408 -0.4550024700258099 -0.47035504122248023
Ni 0.3796207759366669 3.106765559709756 4.4869219098358695 1.8357815411151996 -1.0774894281912604 0.259518668459766
Ni 7.146989746033387 0.41471390819340337 7.554013071394815 -1.4465448046312894 -1.4870358227668001 -0.6387041913552614
Ni 4.0443549891085775 3.0302055225733553 10.837674185659965 0.017922903027007844 -2.641437230924767 -2.2346563149095067
Ni 0.28830480097865185 6.586032335262123 11.88913171716693 -0.32633521186368314 0.4460313768754512 -0.9400968743409938
Ni 1.546032380781663 5.372660418575942 4.713148782265347 1.4700560003793521 0.5620495788149998 1.7869580918545935
Ni 4.1782976712666455 7.976337189334332 13.55896201444363 1.8023242898980185 -1.4618366977933535 -0.30791788569876005
Ni 6.658629792351425 6.091999537031604 10.572203752202721 -0.33902437729557744 0.7036839386607558 -0.04086742763832316
Ni 2.443323118758101 1.4943319260162127 9.275218592810457 -0.071504950018522 0.5218172136575142 -0.3193505530157339
Ni 4.3253710726845584 5.521958098416519 10.139720850038684 -0.28743210704058236 0.3749547726435994 -0.05493778968846022
Ni 5.461453987036995 2.8457119076918014 6.567910073542007 0.47246051760125723 1.5693288645397618 -1.2313306145158536
Ni 2.7667313322719136 6.885608994247392 11.514166038214839 -1.1595893801168093 -3.123488220427937 1.3084315705649143
Ni 0.6649667258707161 6.451276576537787 9.315502331100586 0.19031485577059482 -0.12544669434230007 0.5434689875993349
P 7.8450486881512065 0.9311250034116082 10.892989560147626 2.0375421768288913 0.5342891208722799 -0.7076385524331297
P 1.3686041208897475 2.3043244087569184 2.4198158602852997 -0.78997350318762 -1.2063235509485546 0.03351304415578099
P 0.8215820948077042 7.415772298284715 4.326296297742726 -2.135723864807651 3.4579776859676383 3.8179478122769472
P 5.350641931333101 8.376884873859357 6.375592232208964 2.283968530881073 -0.3809012200350214 3.2252725381562906
P 8.52630404789949 8.046831862200527 8.091190329029654 0.33086523852355276 -0.14580134673925213 0.4909660326046126
P 3.9750191839920057 4.870263211991286 6.830890810479093 1.642241236428772 0.6081813401760557 -0.9231913568349069
P 0.23189878240727158 4.782049077405046 6.4595503315276375 -1.2885060352855808 0.5959865978820768 -0.42213323010161496
P 8.506407036295071 3.2571847244693233 0.2042289457434847 3.5001473773571528 0.006785655463265733 -1.5637925081025648
Ni 8.923917180219824 1.3801273784323724 6.438184174679342 0.12108713182202371 0.42225690016367273 -2.8750072978395713
Ni 0.23193242695484126 7.0386169200282955 6.365374570026197 0.6256604707974257 -1.5971991085874686 1.6534702723753716
Ni 4.407089940448315 9.344483370548826 1.795343151127024 1.2614078935172082 -0.7369005346220406 -0.09405609584616059
Ni 3.028270961088097 3.6700220145649496 5.097633999038135 1.7507330480842882 0.6764410437844027 0.3025051993236209
Ni 7.243175769252117 6.290549096231168 0.5459827833904459 -1.2313966918670987 -0.08206318515034255 -0.026950303336598747
Ni 1.3325203436212365 2.9579818937903837 6.8209469775307126 0.5307019177416538 -1.2918302145628073 -0.42123617220864223
Ni 6.773189476826278 3.0548408079605083 10.028433097814984 2.425670767850287 1.144208526785365 -0.16125830472427066
Ni 6.56235965776377 3.46358467810182 4.180142513958385 0.9313067868531897 1.2900522967267782 0.974987772680908
Ni 9.19672773247186 3.7572922326777074 8.534807707297734 2.1865178075310667 -0.09875221577024927 0.29115712130065335
Ni 4.157466088896402 0.9913552855567451 5.976648271118095 -1.2077471707689587 0.7465781669211207 1.5794510405754283
Ni 5.970178237706287 1.5575182554936546 11.566923492516437 -0.4079844494050587 0.21936395061775127 1.118579770473667
Ni 3.3537071931637503 2.0200653646235236 1.3933356670657802 -1.5623838006804962 -0.0816723774698271 0.8846253236362506
Ni 1.0704480094685322 2.4058374853408524 13.41576240885006 0.8251184265198693 -0.6974747245262505 -0.15449218964503073
Ni 8.016084484004878 5.716573114691959 8.413453693355331 -2.014022753550712 1.7480480450529572 -2.0304842415408446
Ni 5.693835007959432 4.53062150427509 8.543520710547522 0.3497224804393719 0.1368467086491256 -1.433040342386951
Ni 3.093232975020608 7.231774005909049 6.842449581710819 0.40778647446163957 -0.631327696385532 0.4190119108638139
Ni 3.628994357945223 3.2789228404824176 8.266109266415329 -0.09819531482551476 -0.23834203438215082 0.06935113690031282
Ni 2.190213318249661 8.221736781024715 0.6305595685560954 -1.1467814297188639 -0.1253687899165131 0.7174899913059127
Ni 9.355333737140057 8.578873653477158 10.38226532803947 -0.438163029870968 0.4337965253721562 -0.31393863797154326
Ni 6.6435925487292975 8.851431871622422 9.815624792441222 -0.31904022086416667 -0.41745767900281655 -0.8960163390820116
Ni 2.267352789260873 4.240306441579148 2.6824685628835816 -0.7310443329515797 0.08383287545625562 -0.5117883686666025
Ni 2.4846404923152337 8.860198145405862 10.661851518343736 -0.8580180054613674 1.7701289361123966 -0.8062784109952307
Ni 5.928599184334724 3.8645061909331746 12.068838460585926 -1.327133774960108 1.1353173949433222 0.7568450960647676
Ni 7.473696994350561 8.299380920249472 11.961599268919782 1.2185686868644947 -2.2132562519671755 0.04943614314394066
P 3.595293736129566 4.574901467159888 12.021428620206379 -1.2236304176581185 1.9122209523208618 1.3341544292523153
P 4.115952455478446 7.3248759456005565 2.79216941394691 -0.0454092813727347 -0.05680029681849572 0.4658252716729268
P 4.645779314040072 0.7484472595280527 10.169265435658714 -1.4000098942945438 -0.9382287107840036 0.1522728133962087
P 4.672367852327799 2.335202626859783 4.251051201673841 -0.6431645411194601 0.44823095562993126 0.008090233207302197
P 7.714563917826692 9.065906516671648 1.2548388215658453 -0.5622143865276382 0.0910543329053593 0.24630834041707902
P 1.8512164643618838 5.994841560216415 0.5535023397722755 -0.0586859438769828 0.6827657004508499 1.2264033524175653
P 5.8130488548480965 6.780880994229021 12.621800618455556 0.8126899709485295 0.06909299814291972 -0.37639484752423563
P 2.2814274249942006 1.0458407612043548 7.090999611452798 0.12266990292811132 -0.4084814436461352 0.7022937431814485
