# total energy = -381166.2942837647 ev
CRYSTAL
PRIMVEC
9.25233507868590 0.00000000000000 0.00000000000000
0.00000000000000 9.25233507868590 0.00000000000000
0.00000000000000 0.00000000000000 13.54172762801558
PRIMCOORD
 96 1
Ni 2.6594356207405387 8.326897830746635 9.040145522063233 -0.5327351461215987 0.008094089862044124 -0.13309084115111916
Ni 8.007609006751787 1.349471545315617 0.8011337697704001 4.191507504345233 0.4952767441648245 0.9217355982249869
Ni 7.393216962109697 2.77846690883042 12.667825033577405 1.6493194834317917 2.7346734019727936 -0.4393192549625982
Ni 5.024878301018117 3.6404051728930145 5.3315136318461 0.46942018811303665 1.6257823195418 0.8451059253853896
Ni 0.6243642111639154 6.586663174573027 13.139984635212071 -0.1626724114629779 -0.47254202157147 -1.5272062243380988
Ni 9.197246467205165 7.521759650444926 5.58218436475187 0.2944360491622413 -0.5690218963677749 0.40244963562975855
Ni 5.05641951058659 7.214785684160737 8.282838212100385 0.4134752973163008 -0.2751095809194875 -0.08389278215991358
Ni 3.222782533910272 9.279629256878877 13.015238179873599 -0.0549663289335505 -0.4457128171937678 0.6235503664329584
Ni 8.206284393394153 1.3686331308293476 7.914692433829702 -3.0682539825449804 -0.7293880282950793 3.434753682442691
Ni 3.5840029395314974 5.555869799150904 5.918100559739826 0.19005363168940817 -0.46675832501015746 0.37259989925817766
Ni 0.2338851469864028 2.777680460366554 7.1457799202406465 0.9688456643389121 1.7945505594898707 1.5755478488662802
Ni 0.3720530392858687 2.650433098912987 5.055844940591224 -3.39353144256811 -0.05139198131873085 -0.6446336694658188
Ni 4.679710696394633 6.105412228696066 12.836826331827863 -1.2549945337916968 0.47676788672735954 -0.4941593427309296
Ni 6.564096729827499 0.17608766152663813 6.75579215504468 -1.5023588262771157 -2.0477571696886794 0.4757242759541936
Ni 0.8010967604309239 3.065872186866642 12.116311856705142 -0.4846781427133718 -0.4260801305645049 0.6090467735001447
Ni 9.18309964719044 5.225061818244131 8.99544471661056 -0.9135993422710975 -0.023843125166184743 -2.311942904606812
Ni 2.8585551194566166 6.780601365762457 0.6804083791660017 -0.3184676361901483 -0.4758733999375481 0.2886937473618254
Ni 2.275241667639548 7.380041637256219 5.398910414732467 0.10387745281195658 0.6360425853626981 1.0875689239144495
Ni 4.365797478958682 0.37912089789230946 8.933640044919024 2.1553136140141205 -0.27190984303526716 -1.7024988956682487
Ni 2.061309180798177 3.7815495413198428 1.8020115708605364 0.7585281401941453 -0.7114059898953619 -0.48149614544096436
Ni 0.9503998377452498 0.936040214028538 2.8552326060051527 -0.3733411482995764 -0.08308931242201174 -0.5662944701342828
Ni 3.025263689126534 5.972095335568425 9.58918184889106 1.6550389024140721 -0.672840728027654 -2.323428279538592
Ni 6.384564424029127 5.762585464794443 6.4669601669716545 -0.35454921240405385 0.042208772157566014 0.730249090743794
Ni 5.471664299507995 3.9997195975312234 13.549039612106107 -0.4871844540749932 0.007553129756909573 0.3161510722418297
P 6.798116035669502 9.054057332772285 1.0973037846280398 -1.0502403626673202 -2.629623526119291 1.9103980401795102
Ni 5.727343321278364 8.340508015338957 13.059939910559761 -1.0838518800741785 -0.5102068831120954 -0.04092810567292951
P 8.147356272613395 1.9197392049673738 3.3916339443358536 0.48849520246661676 0.29426944167738994 0.5937029440542226
Ni 0.7074177951156312 1.9841076986511132 9.545347061982127 0.8958736428565602 -1.713764698390055 -1.4324209636353977
P 1.6992560650387396 4.721383212644678 13.356043308606342 0.7048849009473925 -0.7082954692908382 -0.07049964868245923
P 1.85015239441751 6.85808041795559 7.595080703347924 -0.09973412006754435 -0.5573123212403306 -0.07244340267239137
P 7.361685004876092 4.995270829437267 0.41800753611329383 0.5675566246761581 -0.3561047298166319 0.30999096617770483
Ni 1.2697904374236573 3.966688762048839 10.143823240182538 2.413230228094089 0.9984040947223192 -0.7441495028749701
Ni 2.2441630748145256 1.47854161673838 11.287164792651824 -1.0186451043595424 0.48692605820728396 0.00786911833543161
Ni 2.501627797214614 3.00218836596321 6.100250351072642 1.8540623417022584 -1.0053802689298361 -0.3186779524287415
Ni 4.648502570881444 1.5806966460271779 4.880736176093728 -1.030645471254528 -1.8821665561376426 -0.7111025997223301
Ni 8.450481267592073 8.532003590122967 2.62155656178679 -0.9423872130370674 -0.07311677459033215 0.13252596978658465
Ni 1.2080958685170633 5.344167125012965 4.761555925412455 0.7090930254914691 -0.9617162523829822 0.7441333049250539
Ni 8.10754347567202 3.1876421660777523 9.968146382324084 -0.16530882064456048 0.03023128808071568 0.2608373872711895
Ni 5.60006820282019 7.816418759018456 10.822819713047528 -0.9050496529288736 -0.3680423617944823 -1.7041608567517037
Ni 0.8483354813381684 7.196345780766789 9.821584771831448 -1.0261336994271038 -0.2999976024104188 0.2740253467163732
Ni 6.881535086848545 0.8686499077765785 11.761613421933086 -1.2773189083205099 -0.06196692862109973 -1.4757512509919166
Ni 7.013769456796511 3.5730204180419767 7.915559377606928 -0.29793583478538366 0.7121924903523993 -0.9633306480579538
Ni 4.340927202830769 4.315844123000868 7.835378643632041 0.9373987586835404 0.09986087545339577 0.2064158750975155
Ni 5.527298589075385 5.978923558701759 4.252089059118945 -1.0878589443510425 0.3820307056537743 1.6480511582423294
Ni 2.0479765662519256 5.897003385771496 11.501056569219772 -0.2989712180284335 0.7495724736627543 1.6533280903705527
Ni 1.9217469616339502 0.6576855699611871 5.141008056893075 0.6032293954874192 -0.46753248417202065 0.5087776068647367
Ni 1.3467698635338645 1.4924756330511173 0.36668298412789224 -0.6264433717100373 -0.9197928726763192 0.10793645337267863
Ni 6.233779122668785 0.9527129214625036 2.9263941639497233 0.02003223606052679 -0.42295752577512313 0.43530062072150844
Ni 5.103698941767258 5.187784161056869 2.285626488296531 -0.8277985444551937 -1.7331222769810601 -2.7318341327517857
Ni 7.408733127685035 5.567398208397696 2.5679180008506477 0.22873202209621252 1.123806051869613 -0.6859962915730057
Ni 7.105127011293169 7.765558674243479 4.618907127335925 0.5887072906118441 0.32360855696113944 -0.5664855030991663
Ni 4.900600939057504 1.8749208948618636 7.316771395721431 0.3848000408687954 1.2495962455942609 -1.1700781954632753
Ni 2.0251047944557197 2.758204295467277 3.8844447573981618 2.218529841661289 -1.4255422342376933 -2.20335184836927
Ni 3.2732447682858816 4.441833166912249 3.6727328309253546 1.6412364493133411 0.9636954875965403 1.3147685685265358
Ni 7.689199154569495 6.636042885768962 9.956568935702485 -1.3393470291968483 -1.0660894138844348 0.19880643818137375
Ni 0.8879345493440669 5.767896305009258 1.7014905039096069 -0.6982524832325394 0.32185866414956826 0.1970652871205509
P 5.340447686395621 5.3088509628179334 9.568571347736842 -0.582452567951384 0.6647489521584551 -1.1268504951228915
Ni 7.8719882822417615 7.39816696126462 7.902978977885528 -0.8579305879538837 -0.22138303793030908 -1.3289325187317436
P 5.380371511355422 7.663005794555313 5.756981325564281 -0.848907301409351 -0.12128793497892015 1.7040916940766653
Ni 6.852843596419728 6.11600615212109 12.175204818613397 0.1620977699064305 -1.1269507681461817 0.5830642333934539
P 1.811449877660419 1.063814958569639 7.600808823865331 1.2176950260102901 1.04300939213652 -0.42314933007095507
P 9.114484331801824 1.0109471171280857 12.115444912927915 -0.12821345845415985 0.9963479835242389 1.0286245841697574
P 9.064355181481499 6.415837315886398 3.5940019378244425 -2.0988650441080883 0.019605690046069463 1.135361103697064
Ni 1.4355182595974592 7.511785633456128 3.1449981546664607 2.257309790642964 2.28950951530396 0.023843125166184743
Ni 9.20753506357951 4.133369574714149 3.1406245759738773 -0.12276503374507891 -1.6132031973252088 0.21902302233856472
Ni 7.10961439370464 2.05771002253413 5.61564635903915 -0.6149351139601216 1.7460394992633606 -1.1866816083479113
Ni 7.994766765953594 7.292995670808523 0.34647310907350215 -1.6962050922397367 0.15858101500242366 1.68770605362979
Ni 5.834004237648372 7.350221361973382 2.351141346270541 1.4122786843595678 1.385180542591195 -0.1162514009962772
Ni 3.165926936140173 2.4480752829927535 8.926069784529195 -0.9093819617556402 -0.16557055894637937 0.2130979151033814
Ni 4.178308165172957 8.548778073240491 1.4958055483704757 -0.5478666024463984 1.5549718244871416 0.6068705917844323
Ni 8.877495026466866 4.926886822420376 11.366749676261145 -0.9324411575679489 1.2751627812094555 0.742288024186199
Ni 3.2588481352296936 2.762580649860321 13.568404748986953 0.9183342858529218 -0.07133371454798036 -0.7880564886705654
Ni 4.064384165930771 8.44637323091023 4.130836285427012 -0.1593096656383321 -0.45212309159548586 -0.5117315472867381
Ni 8.73061421042125 5.020131853230311 6.456005402486741 0.20621301505809003 0.23201454950222622 0.8567157417101762
Ni 7.744370827393434 8.089362637654407 11.597825814381316 1.798216438377232 -0.30051825080057926 2.0454033247445222
Ni 4.2342847911304995 0.7118385607160466 11.017793240508801 1.775078052587556 -1.189034424850804 1.0858897364398135
Ni 0.9006583602559367 8.385603895490538 0.9433995211833528 0.7181080845058859 0.8796648943071818 0.1866896003131817
Ni 3.351121670878383 3.971129882785966 11.289439941796115 1.0422655719919598 -0.6221925668534832 -0.04372186636798276
Ni 7.286676326092985 4.459893724576568 4.695282375979185 0.17074413272751884 -0.8793599614722534 -0.04627394336587514
Ni 6.972652080638607 3.319025321217769 2.063298432795015 0.033771954244122486 -0.3083696285241979 0.008042410688502278
Ni 5.854451897708897 1.6216289754877016 0.4370784487453081 -3.43408031052475 -0.12631135633544052 -0.42523012385938375
Ni 6.134612597542679 4.116696867280184 11.122917344057065 -0.12961779500085419 -0.11329180414732101 -0.6092768872330797
Ni 8.920509131272919 0.04264586187826524 10.198328744895909 -0.501512183551575 0.4072503994525115 -1.9513199752048522
Ni 1.8654927656303373 4.258211329101773 7.734723417825511 -0.09142122932647481 2.8678652874781516 1.3303738791639603
Ni 8.764153924321429 0.568406089876111 5.988558015000864 0.9343090640146231 -1.0583467938245386 -2.5080571406680034
Ni 3.753653751689762 8.847878302551148 6.720691572252096 0.017918789261949786 0.2817437984065535 -0.5091391039692136
Ni 4.610623511927695 2.803327932623464 2.392565899946096 -1.1324981803269722 -0.8566771751627569 -0.14241263277267732
Ni 0.3768133655759771 8.781465042861356 7.8385744000958 1.4369435340960994 -1.1041165438604856 0.4757291610502
P 6.674634374507625 8.939439408414923 9.240671375679401 0.24046062338705043 0.16384740560768557 -0.7514141548571833
Ni 9.231100760490891 3.457116419137822 0.7386101916595423 -1.0397957702952285 1.1903737124875178 0.40370921906847246
P 3.556430981621832 7.593863096079162 11.52207324787474 -0.851854556963133 0.2143901515522437 0.2498523490145955
Ni 1.1421174685661155 8.566773864560725 11.999568671028367 0.6447123452225543 -0.4259939986086019 -0.38173888544496837
P 3.352888866838365 6.381215078806544 2.9772977346985847 0.39139286359496467 1.7415722075206264 -0.7742589206658407
P 3.190565903896361 0.8113335437300025 2.8105318005524795 0.11963060188115525 0.8439314454613143 0.6353149631680542
P 4.883761689595896 2.484140884312175 11.875973206147602 0.7381801726654126 0.3898892824662447 1.052673654699161
Ni 6.164923246573572 1.8951187418809243 9.392149676921433 0.01596937884506282 -0.26118242931543406 0.7621971044053002
