# total energy = -381169.3769739583 ev
CRYSTAL
PRIMVEC
9.22018643173772 0.00000000000000 0.00000000000000

0.00000000000000 9.22018643173772 0.00000000000000

0.00000000000000 0.00000000000000 13.49467483357391

PRIMCOORD
 96 1
Ni 7.95524127684869 1.2148333058899958 8.795558913593158 1.6283495660483438 -1.090953009895334 0.7441721285827894
Ni 5.147445604914061 4.772349986050563 8.66843928312187 0.25349123131876344 0.20669638245241176 2.765516098385263
Ni 3.7878553741885876 0.6527025199527644 8.71113612181793 1.6568067929477723 0.3289793343547495 -0.1902883734080336
Ni 7.32933815038171 4.750461263785632 4.477937451400939 -0.05079702804720929 -0.0026418084982212566 0.2580567392022588
Ni 2.034683051077632 1.2437754706707962 2.7595796297222304 -0.7408633759245306 -0.035266536511777975 -0.07229505001998517
Ni 2.448724736852281 6.918357566457085 5.348938024098752 -0.08413420874675834 0.3421711504546752 0.09335932688945212
Ni 8.258862011551384 6.827142263438143 11.276191027138793 -0.19386400657443387 -0.7113010888863814 0.7405622997443438
Ni 3.1855098237059787 3.209353225465504 1.7549011080413153 0.48394152165766335 -1.4253401455292163 0.11088730847088644
Ni 6.357078725733535 8.3487680481164 11.99310845656348 0.413483781956733 -0.15885920836447479 -0.2115886775477066
Ni 1.3308140292979882 3.3112547244006443 3.74447531968805 0.10285158265060351 0.2529808673412482 0.13142502341292203
Ni 1.3642740853634627 9.09087318246246 11.542764131288529 1.975348734019282 0.9077153726864947 1.3008499015629145
Ni 0.305693432581867 5.874254450196296 4.599025235997872 1.4685948424527935 -2.0014729419101593 0.2696205327804583
Ni 6.804313082171095 8.410561736667187 7.39122219675819 -0.564395453339357 -2.7475163193737324 -1.3267169991376635
Ni 5.190485434540304 6.4239158561878265 10.792649421107782 -0.03564114624237733 1.7599337407469495 0.550898961514819
Ni 5.124183074891136 4.873366347101359 1.7832946717375482 -0.13853412365387752 1.098892576457385 0.2128839993203624
Ni 1.2164283981190747 1.452446726904971 9.529952284121869 -0.4476321457036678 -0.46071289014702593 -1.286626815984997
Ni 3.0272822066931355 5.196109748180409 0.5126801607798989 -0.6723234220716034 1.4367882394651577 0.24096378827571405
Ni 2.932839838470855 5.045663968400759 3.208115876464681 0.012095497711953361 0.997815826319017 -0.9134607598107042
Ni 8.43576972599841 3.2527526423572617 9.93924649597309 0.6504011680772154 0.9800297059801895 -1.615631347150727
Ni 2.3639727844263114 7.533408533654552 13.437375956205932 0.010031673204389175 0.7057032830836298 1.011723951759677
Ni 7.284915292811178 7.194870953451733 9.0286931681059 0.5816750663554112 -2.1756309854152334 1.455833686132383
Ni 5.149529367016788 4.4026297357971975 12.939490506355396 1.337199386726226 0.5033831753220428 0.4457477841967614
Ni 3.449437656407607 5.098320452332952 11.410611201118662 -1.169253899789767 -0.21829488592328858 0.2285798127890644
Ni 6.396651765312762 0.3517519512011758 0.5850641553094151 -0.14392701253467471 1.1639026627801827 0.15438883129794703
P 7.396239822140068 4.937262238127465 8.793210532143757 -0.43640439530864844 -0.04564736552546977 -0.14946748273692967
Ni 6.0058265086295615 9.195042847226231 4.816978453775478 -0.7112046725178331 -0.6836249631273517 0.17161393692698187
P 2.3158341917787935 1.8205995454881434 7.371655117402404 -0.2903809052562612 0.28581899691719165 -0.31894688981941205
Ni 0.12740269019055225 1.2560014376983024 0.4613698240468138 0.17141364799071768 1.689021172896788 1.6373016330353092
P 9.340140918954635 3.884805633083177 5.463278476364819 -0.31528255359394736 -1.3029867454002593 0.13426043597918813
P 1.3797732185257838 6.305971233098944 2.1945850539216933 0.6316531980457508 -0.9801726593159571 -0.07176437432749576
P 3.3881049771715817 8.95083699301015 1.6866855597358834 -1.4068459433797706 -0.3734465635291891 -0.49602133564033285
Ni 1.5875685570619094 4.010799478807814 7.528273811906725 1.905597790577389 1.5365149033335346 0.06453160402448241
Ni 7.436753320721411 2.5811634927973004 0.8709830543438523 -2.6458921813723273 0.018914320405999684 -0.9322064158493236
Ni 1.2196093623909372 2.477049149151299 11.852318977890848 -1.7867984263482775 -0.2956244130433876 0.215926385691112
Ni 1.534441843628659 3.769239818058471 9.88031475324835 -0.3335391858112901 1.4249089715290686 1.1750406816748733
Ni 0.2529558110102767 8.78980643936355 7.81800525797425 -0.4374678035761562 0.47511646716686556 -2.0459692245503214
Ni 8.686687875837437 5.348971216769415 6.916236923609176 -0.8653199384394193 0.1361946768874235 0.019636543284004892
Ni 7.818505914090082 0.6751877882709989 6.127095008877882 1.717150327032836 0.9295676926748959 -0.9910000889487642
Ni 6.158226967903805 9.166349627475403 9.803004413181279 -1.0524507400550778 0.024819373036524997 -0.20780787034903564
Ni 5.824732829604489 3.1568350443277406 3.074019331023775 0.339359392037493 -0.39794866243561144 -0.505539302433097
Ni 4.397042302902274 1.1554645263348595 6.256994525517189 -1.7470448005994235 -0.14517759711232417 0.08141423871243397
Ni 3.1420919664416305 3.1876857876716587 12.810224416514572 1.5577146773396011 -1.1721708163262459 0.11176456886951718
Ni 3.1060410380271897 1.447504707050715 10.963343652010439 0.7293787723236986 0.8694948957527155 1.3191147613103733
Ni 1.4403867232307794 6.760756922112319 7.57620679439986 0.36689307868138754 -0.7271401128011671 -1.6952627829311255
Ni 0.574613996162375 5.854458710220387 0.13998547842768455 0.6698096545108142 -0.7753542106125485 -0.21839078807120452
Ni 8.926449600259206 7.638352694067127 3.56372739764905 -1.2811691353045354 1.473398948709656 0.12096423309091424
Ni 3.0192237638710844 5.999492240644723 9.346708457652744 -1.0200892930052368 -1.1296974776533835 -0.3819584576549422
Ni 2.5285254492376983 4.562028316469537 5.38796430663067 -0.5155990006619443 -0.8983598996135238 0.39513227603273887
Ni 0.06314905593619045 7.793178062337021 1.393123126262681 0.8753377276867377 1.366613578222285 -0.27964937777137
Ni 4.547054733926046 3.3432948717766497 7.068267653412979 -0.9339046294873529 0.06375821619356761 -1.6794227305750757
Ni 9.09291084363371 8.611156109706721 10.061967175562915 -2.048189629240408 0.08636489784948997 -0.06424724001484419
Ni 8.094936319408074 2.788525482577549 12.06732911220301 -0.7885413987267839 -0.46804619058364555 1.2872451662952862
Ni 5.392140129003791 1.406889786420124 11.977602869270752 1.571432541146326 1.5939042398862808 -1.0841231314576942
Ni 2.0397541535400214 8.179005978048194 9.247887422958847 0.6409968440441799 -0.06308330161373006 1.5229783022996801
Ni 3.664461620999211 5.702777425477173 6.9919281989628 0.2413414833301069 0.1408450311752413 0.5681320375636537
Ni 8.801119607947825 3.42351971273165 2.2489011713870313 1.7712761623429623 0.535648977334284 -0.3463180827435132
P 8.847349622032228 0.9851308047163482 2.783249691979405 1.8729108418673293 -0.09757079386763841 -1.0230512038470378
Ni 4.634397558700981 7.502677652732473 8.800632782111437 0.39609592549758876 0.5559293248498748 -1.0121942065278762
P 6.481643442582408 6.767423116803787 3.303806657911339 -0.2829578733193127 -0.14149680582662727 0.548191589885985
Ni 3.4021934218307286 2.8424451320321906 9.109026807259184 1.1899836761379505 1.741521299678033 -0.42440557107555943
P 0.3363265795292169 5.037550204460937 11.363662934521862 -0.6181063125992516 -0.900891664896442 0.3047358884263526
P 5.202812823617059 2.3590399847583505 0.4479369346332591 0.013476180109563887 0.27724231099177415 1.5211152809490127
P 7.638334253694535 0.8933272538117693 11.1480719284731 0.12578787973180272 -0.2846249766090905 -0.32351985390207505
Ni 1.8581810248275963 8.180711712512815 3.1830295935925554 0.854692026411928 -0.4683480380947805 -0.42790458536775333
Ni 6.040955418414477 5.690376274910057 6.816497558360272 1.1205944869108508 0.6764294738201769 -0.4777744736150029
Ni 1.6250209537932288 6.765210272092926 11.30407102645838 -0.16531036330645724 -0.26636988705364445 -0.36565714939175736
Ni -0.018076175231844266 2.5686978009261177 7.369347304772702 -0.216304337855821 -1.0709272015927103 -0.721993278492905
Ni 2.6994492627791056 8.866361646173038 7.0775523810123 -2.6078717362644954 -0.10124207207163853 -1.1542705390070573
Ni 0.22731078484865894 5.731903993983878 9.164516654439907 -0.42528848790114504 0.15691211194043297 1.3990585861248679
Ni 2.439652073537751 1.0273592579486088 0.1559244144762891 -1.312789590423294 0.5509632390938511 0.4599464442946466
Ni 6.948526016015153 3.1948498724230703 7.4636347738652224 0.2919757605472068 1.413316638705779 -0.26819717007037036
Ni 0.9596185492373821 1.509648762680723 5.311044902462519 0.6893937472903289 -0.581426697790031 0.354887312469763
Ni 7.5055451306702965 7.1791505358183265 5.317981248612439 -0.8506219701076124 0.14915329393062055 0.8676069347013833
Ni 7.280941392517923 7.339342052512059 0.46667788529699117 -0.5040624607772545 -1.164459563724917 0.24970605324471834
Ni 6.704357042544253 4.830289636729935 11.116629249169028 0.5920839203935611 -1.365939949194028 -1.8252834697973532
Ni 5.011945747119017 7.5309559641000146 1.6924749147106728 0.8988262977269811 -0.08115224330029894 -1.1713650325954987
Ni 4.928410859284022 4.8881924066641265 4.799691526490507 -0.28581128360770774 -0.24574861125886707 -0.17784963342404855
Ni 3.1987223506670768 0.018256890883231233 4.73896553551271 -0.26980616642870303 0.6025107721538397 -0.46542983600672105
Ni 5.985634300642956 2.347671495056303 5.217864777744059 0.024699559629209077 0.8280705671696577 0.4981774627513872
Ni 7.779458425129684 4.9437993502108 13.130089275432244 -0.6516280985057811 -0.3612412797122488 0.1532439190602264
Ni 7.1650067700414075 8.959236582725126 2.746503561518302 -0.983589141196674 -0.4480052127723704 -0.334974632706236
Ni 7.537022846682291 5.3210985935988635 1.9986155263278595 -0.09554836412097092 0.6943282084774687 0.3238291576123778
Ni 6.12478535221092 1.1024207945782667 7.60503186281471 -2.563026297815031 2.164140725387447 0.33648387026191084
Ni 4.1773068231137955 9.10695318736138 12.998691478519957 0.4002158612032333 -2.635748665180422 -0.42279426072438153
Ni 4.028216410719548 7.231216927827623 3.77971026161536 1.735111025276315 -0.41557126061338107 -0.0665828301265563
Ni 4.517190550515721 7.888376485835512 6.378366291852016 1.9478767538512582 -0.9404534863494641 -0.716654896999127
Ni 6.207121615827533 2.424549408386126 9.692361255619609 -1.6696875055651828 1.0742097289987242 1.1386258904912647
Ni 8.750113537362484 8.7487212892319 12.880747777449708 -0.9725246558523961 -0.9142043228449481 -2.1095703463407345
P 4.558828911825085 3.2826076055812923 11.061422461707567 0.5691111136474715 0.08455921209931888 -1.479901268604548
Ni 3.559987690087695 2.5325915513939052 4.181230012382426 0.5525020443358807 0.9390882305708212 0.8722148657870398
P 0.560222207374114 7.866773589345733 5.673728306535348 -0.8189652624342799 0.5838430205410073 0.7973376568621752
Ni 4.637135954030672 0.8647077955513027 2.926428120921136 0.9472417129158913 0.23705082637455308 -0.18635792800537582
P 5.437955234704905 6.694297819296132 13.093086823792135 -0.6960678168763947 -1.1015330994040256 -0.18457743906618534
P 3.759890549155084 8.775339967066298 10.492973082102198 1.066237509426525 -2.480234719139096 1.1666102915193326
P 1.2684302488243038 3.3867864905313603 0.3866051774158631 -0.40204442977153987 0.2593636309391404 1.073699879241841
Ni 8.048918369608465 2.357767599049606 4.171177243264711 0.19706065913486062 0.22913080019652796 0.8190148847252927
