# total energy = -340885.38697805407 ev
CRYSTAL
PRIMVEC
9.13515386270140 0.00000000000000 0.00000000000000

0.00000000000000 9.13515386270140 0.00000000000000

0.00000000000000 0.00000000000000 13.37022107356792

PRIMCOORD
 96 1
Ni 5.115978491002361 3.4085542869965573 9.764299223009555 0.09744866646747734 -0.8280528265578448 -0.2261030691137977
Ni 4.814326575127216 0.744223628833405 6.225830258794658 -0.3715971690252761 -1.4258044867601443 -0.14876402891200188
Ni 2.983778767288543 1.9194419901281572 4.832773191332864 -0.808698333290633 0.11970799208630997 1.1231892442212206
Ni 3.785863547206457 2.9196591222890684 2.6998216444557097 -1.3853335232292916 0.7264106908343102 0.46542675068292744
Ni 5.2507768214785315 3.0548228589199593 0.4727588289150581 1.1350217180797744 0.5135521454352446 0.6837008106706096
Ni 5.221078436253672 4.595557910296414 3.2927515954735007 -0.19878484091481893 0.6595836059074318 -0.13072182669831037
Ni 4.997002247025563 4.738979826023973 11.8009050425871 0.2332183400023403 0.1576801004547091 -0.37302413127978984
Ni 5.760207812081279 7.67443362935081 12.433931010962306 -1.2062536169425677 0.6849305693126527 2.470751462239009
Ni 2.3733129749057436 5.732235970937471 11.737556404574086 -0.44387884930882265 -1.399722702071428 -0.4709687635470792
Ni 1.1610871917763468 7.909810003913632 11.651947223615533 -0.8075536781632285 0.04068256532102671 0.2512685126358318
Ni 8.114263882633283 8.92637906149826 7.469875609877063 0.8809892695455602 0.7070304865354856 0.39761261925243135
Ni 8.863940284810496 2.364588902961806 1.5371878711295104 0.4968178633996992 0.8957427737056508 0.19746920742718896
Ni 1.6902957905033087 1.3039609982718274 2.6908774153035533 -0.6847392792374529 0.20127675409873727 0.0905614524293408
Ni 1.478497248073787 6.953907503166377 0.655523111805923 1.5998789694124769 -0.08617669309808385 0.7429804222675334
Ni 7.8704557610503 3.792504804068491 4.29487614776205 -1.1476625467722363 0.14125460790883415 -0.7819493473315631
Ni 7.587631397297098 4.155974306168375 13.111521000451765 0.011849186029102175 -1.074189160173434 -0.6955787930551183
Ni 6.860802014943746 1.0889468816807708 9.377605419231061 1.0878000660886493 -0.04926773588687644 0.6691825624497766
Ni 7.0556000360249245 0.8399472521546034 0.23219825453214657 -1.3939060953896512 -1.2023949053181098 1.441935587994052
Ni 1.3113330674433015 6.919431432468555 9.453093763219258 1.7697211591510167 -0.024938929333524793 0.21840235803543034
Ni 9.061762041821982 5.10143532604451 1.2620096311638227 0.7064208779759447 -0.2486218190416041 1.1946970224532198
Ni 6.367576787302827 2.2333167418786823 7.321666873522672 0.6088246301870096 -0.04616904235689468 -0.43631877757337756
Ni 3.4483104766300823 4.523116140123193 0.8961458052351369 0.26463593508167327 0.5229382146358349 -0.8474906235674824
Ni 6.08815070078852 5.902496968729207 5.157389057001381 -0.5411107717798035 -0.4555112913414284 -1.5307072955128218
Ni 6.47326138240169 2.1855855629183956 11.720335726017524 -0.06527619549999081 0.42282614240358146 -0.22280511508881629
P 0.3297973249424448 6.0052491794364435 12.485446884170104 -1.0007638532037475 -1.2632027806341017 -0.8022096402424959
P 4.037555306577524 6.195570975122303 13.014599758458472 -0.1274470126017805 1.5569821700489508 -0.02240896382281947
P 2.724221640437131 8.70909942674794 1.5280828632692776 -1.8449369823622226 0.26399007396755825 1.320437593886855
P 6.611640693194116 8.239790031933437 6.164661268494546 -1.0310025974836308 -0.8771387854512185 -0.6462012710632549
P 4.753541261289561 1.2327159332553153 12.848314379630086 1.0105415014158017 -1.6775689651957884 -0.291210343136092
P 3.975509341506085 6.649807366054609 8.11112504376424 -0.5446110716235781 -0.5038549727521388 0.4209764907893524
P 4.923025771002519 1.363266417182867 3.7549465324556066 0.4798827782072574 -0.10165499123934105 1.7529789066956714
P 0.3676378728098507 5.834805478567346 3.6232897813946403 -0.2559047258562625 0.2690677456007818 -0.12587375457738967
Ni 0.7276890003323295 0.1623453869651171 4.998002546374108 -0.3757453868656948 0.5237385990499432 0.28801677589945884
Ni 2.0084823348795284 6.984784323240208 5.092784335331515 -0.5109414472852749 -0.6342011612785852 -1.5587803995999543
Ni 8.053305000872138 6.950847226620597 9.525078775699077 -0.817371949805231 2.197604918583164 -1.4873078454812643
Ni 8.65881953985848 2.567361913369746 10.578491735864112 -0.10304107295359027 1.2790258637092877 0.9117489193259202
Ni 3.4011822178250832 4.783732944823293 5.405767496064525 1.6215708525636139 -0.13476257242658726 -1.586048748397604
Ni 1.4342648330449435 1.2920213521663548 7.1829778810141205 0.3607787382535335 0.054395544031745034 0.737055572142666
Ni 1.58386211278727 1.4243623262520342 11.558342042476324 -0.5176885362011213 0.004379360014618264 0.7676599272920844
Ni 4.127098084791635 6.939181635131165 1.9085053839173904 0.8668991100010811 0.9388491179768218 -1.3696575072549315
Ni 5.720661730986718 8.35254523612613 8.33110502999794 0.18924604818644827 -0.7661344917864934 -0.6323931615355689
Ni 7.048739535470059 0.9179642067334622 5.050895087269813 -0.47852497862778226 0.05530520033020798 -0.10427006026468495
Ni 1.2103987523557973 7.656903269078123 7.212699104123651 -0.7464007608029919 2.1623134423707215 -0.22432206595397494
Ni 5.022909543395203 4.6910568088324585 7.695658245847715 0.9932595744069023 0.052119603513374746 -2.6228728376590182
Ni 0.3239279885822564 0.49050112475748275 9.735553634333126 0.13636102726195873 -1.4000098942945438 -0.9498896920616996
Ni 4.911625098975257 0.48856081807592006 10.613562505078741 -1.2351417607318276 -0.29573085671426486 0.8183127164519456
Ni 8.157811161122028 7.381441839342527 4.67960406642815 0.33146044890539045 0.3451790840430636 0.36269138189521405
Ni 7.0892630780284955 6.235920949757248 7.130726627919949 1.2969703640028503 0.6822851612700056 1.9355370013389828
Ni 2.470017713752365 5.49657640660474 2.8906285168119594 -1.3112690400137093 -0.35372234562738436 0.22569169260799193
Ni 3.181984200762484 4.70131558662622 9.083152918119284 -0.12817103525199863 1.061981048143016 1.297445760977372
Ni 1.2496525085265824 3.5978894860646733 4.0923443054162245 0.04795981570873031 -0.1714280461684209 -0.43198209787123665
Ni 0.4915059916829625 -0.03373612323451467 0.36217231025062785 0.5482962337846493 1.7080077413016197 -0.6634379466565155
Ni 2.041661213728095 5.544225369180214 7.084933928610451 1.1743806794933709 0.24351946481803224 1.9502565669373444
Ni 5.161919179804521 2.9562728189920024 5.358810978152244 0.3598343720623932 0.6823275844721668 -1.2055087683567431
Ni 4.255766727022379 7.28357693595467 5.978467648841636 0.8274563306244265 0.9915127669191248 1.2570935824125704
Ni 0.9938316596071811 7.9669503913579565 2.994461416221779 1.0867993927382766 -1.2985793603611828 -0.4294361915209314
P 9.22001944743117 5.859634826780563 7.9926914279272 -1.080657284396281 -0.4857562062688988 -0.13078327606386508
P 8.668365775650539 2.0564875684558555 8.468350668195347 -0.6684935068025519 -1.3027273210912855 -2.053631111970954
P 2.069094080793692 3.634941670153271 10.672231203765183 -0.6089207894452416 0.3165097411328291 0.9829335098905458
P 4.081157395989475 6.496090131917816 3.983176476147495 0.03345519433465206 -0.9096264736662787 0.7011845692776698
P 6.878204483062282 4.1296285224130695 10.73245013806302 1.019223859681148 0.5009054032055115 -0.43173989995344353
P 6.247714433400832 7.8790428056862165 10.460687532128576 0.8130141870571675 0.4526884771806526 -1.329273189900614
P 2.696295475062662 8.922085539180301 5.949908417304115 -0.6158568544434425 1.143333066158947 0.8825005639837641
P 7.0037489026701705 4.205167109747541 2.2029715877599685 0.41529358147196216 -0.279327475655577 -1.870081085728018
Ni 2.7302782474516127 2.0115608817330437 0.5327201518738199 -1.1270998921295363 0.07730921540512492 -0.17281875586836043
Ni 1.127899177773912 3.5604262200520154 8.744753018779347 -0.3899561311484381 -0.3774464287172016 -1.9788783444390952
Ni 8.009054315535558 8.844911759303457 11.536829668632576 -0.5356775165793741 0.26417622183643535 -0.05574665874300076
Ni 2.8879235977516453 1.9745909140292581 9.560577070114729 -0.11227133330260664 -1.0043299732884512 -0.35963999666339996
Ni 6.7358513803372775 2.0580862203827546 2.6818253913357544 -0.9648969641038092 0.19568666160546944 -0.1365093799143649
Ni 3.8919226836139074 7.218909181723116 10.722222419792411 -0.1880610267394116 0.7306465832925287 -0.2369562097782177
Ni 7.269033770996818 6.1281444044226125 11.551898104937838 0.6000597395101859 -1.1174983644840304 0.19246121268963629
Ni 7.5326834467810935 3.9760483155842965 8.405323587598485 0.7149356003151751 1.0496142990475472 0.6761327685153645
Ni 2.953623624370283 8.936427730753056 12.839783972948151 1.4064235111303713 -0.38880247715996913 -0.9420588831633712
Ni 0.028981275646221986 5.062492165105236 10.177305010474042 -0.17846541263117652 -0.9483403452967087 1.961160872554674
Ni 8.840261965984647 2.5884367133432162 6.128909016801365 0.08378171050334604 0.21237492089442778 0.4373623883465435
Ni 3.7437413527211207 2.7400985378597102 11.86442633500822 -0.439686665604346 1.0506108586328615 -1.0615277626556816
Ni 1.067177810013333 3.680909764417034 12.688272878470478 -0.5244186558361033 0.17459950191786705 -0.13800190529949138
Ni 3.445816579624119 9.04926515133056 8.175636586864652 -1.2637954199127783 -1.1345548057456847 -0.12016976221407692
Ni 5.804294064648234 7.870738950820208 3.8111551342053946 -0.1570265260311102 1.1858228598920417 -0.4157481525108775
Ni 3.2716000602075392 8.907396211760561 3.8277336114450367 1.1442671479374422 -0.8928711085848107 -0.8711941378320094
Ni 3.649439159341783 2.8446412387250732 7.3349037114774 0.5000060313196938 -0.5911688647784593 0.1227308380730338
Ni 5.57937744126427 5.98026453360747 9.444657448622163 1.0567809919993154 0.3204306734537901 1.2704149821118251
Ni 8.342423485640388 9.053138456570592 2.2494192776018016 -1.9592042630489355 0.19916639262395378 0.6750076537719858
Ni 4.491371480431901 1.0070684975619095 1.6512621915407422 1.0367798662870402 -2.57741264844369 -0.00647815152517594
Ni 5.910006065208702 5.560120536910531 0.591498472406676 0.13284170125479058 0.7386751100239601 0.9441584460048771
Ni 8.036797777832666 7.217073015795648 0.1703669655766057 -0.3331177820031553 0.6917627617431377 1.0586761521394994
Ni 0.19440246891869384 5.18979053425578 5.717066134424274 -0.7801215500942049 0.0711262265228646 0.4406855391825055
Ni 7.3869868777404015 6.331246280369801 2.5496077418272933 0.3476280598041884 0.10683884943312567 0.62443354036886
P 8.599788175563482 1.5795229146999712 3.7340891491441948 1.8189019917510416 0.5744222414477398 0.2883836723205743
P 1.6335482146753084 3.618498393190875 1.5307567228064405 -0.05070009745802881 -0.4914306309458568 1.4921168368341335
P 4.803830283332888 1.5246937211842504 8.64588050791985 1.1071712715264093 -0.4691736193198694 -0.4315522094226697
P 8.571697577419389 2.0558024319157555 12.787038508029719 0.6975060919848182 -0.8361700563483406 -1.3199722242146623
P 6.366590190685083 8.075110613155047 1.573420631916149 0.19440805200336198 0.08708892049970808 -0.2508702487561486
P 1.9725811801782986 3.5322351352153754 6.405953568702285 -2.8728660831268527 -1.413894879806752 -1.7215214595173383
P 6.731932399327906 4.21032847168296 6.286985546363966 0.931199314741048 -0.8448806967484611 -0.17922363095343974
P 2.3060873775911506 -0.37779707742645074 10.056706363170285 0.65704875530072 1.3742615816858461 0.4891947996368027
