# total energy = -340871.2441702752 ev
CRYSTAL
PRIMVEC
9.21994984968574 0.00000000000000 0.00000000000000
0.00000000000000 9.21994984968574 0.00000000000000
0.00000000000000 0.00000000000000 13.49432857182926
PRIMCOORD
 96 1
Ni 5.60581242939686 7.320999681955125 2.2722151268631285 -1.2752206310305845 -2.4729091320119605 -0.1940676379448077
Ni 8.941682449544716 8.696339586616288 10.014518568793521 0.23422981198599013 -0.02786407340011975 0.048377619972439265
Ni 1.6879607409375335 4.31379321065393 0.1541603258557757 -0.4748855821029822 -0.8946832220928849 -0.9374231841635727
Ni 2.4565080925017937 4.640649649348995 5.488008209407277 -0.47858668510365326 -0.26294594897376006 -1.1692135334701348
Ni 5.064370880149512 3.9879233065824398 11.104374715286442 0.05521109795450491 0.8404134050057268 -0.14883987645525978
Ni 0.31154118016028864 8.10208616518352 7.011140220629791 1.224127669009511 -0.3984888512097976 0.4786121390249499
Ni 5.985914077915739 3.7005005929811317 6.473148776580031 -0.7672583209782915 -0.6702845372647037 -0.3760225517864814
Ni 0.46072088915947146 9.029714529786753 0.7826428107467093 0.23023971698999057 0.03195881229478367 0.38447351076731207
Ni 4.466881256353427 4.060216932596036 3.1018870573101505 -0.07498930902269665 -0.7866518950135549 0.23403466525604855
Ni 0.6928478761118898 4.145934805450061 9.523460356966645 0.7671518773074143 1.3968484658474265 -2.236640178108755
Ni 8.01874703936578 4.46500960655356 1.1479870076908703 0.28007026735887247 1.3146376993756261 -1.59647380038567
Ni 1.4206651776471146 7.855056051450286 3.512128721571721 0.8103836914128558 -1.322735388782096 -0.12865517397726878
Ni -0.24028940846878585 5.47396714792837 6.713630881998655 0.2461113939149245 0.8139984053473078 0.5651721836043815
Ni 0.6758296928577263 6.721592308610406 9.16630624138811 -0.39218964846464716 -0.32570966246454225 -1.0752695377218062
Ni 7.4939659393221785 7.909112616852367 1.261117635150637 1.273608292238142 1.1488617092866602 -0.31055378065971034
Ni 8.151163957718959 6.355440444067879 13.07406116287288 2.042237268311715 0.6993845399544536 0.20078850160840905
Ni 2.7849503625543823 1.2135390064450429 1.6999614275360921 -0.46878461141156685 -0.10330769635141562 1.5810736637805156
Ni 6.709338995388614 7.903986324789676 9.078215153467653 0.48276935572643304 0.21737365966059985 -0.6140398558393618
Ni 8.950515161408129 0.662446935791187 12.07688395129753 -0.6477202788109425 -0.2699162096440061 0.8896932250774612
Ni 3.6869657067436674 5.7587437359505556 12.33558375543319 -0.26380006944393924 -0.015259497262231784 -0.31275155964197754
Ni 5.9831573129395785 2.7593650019896927 1.5634259576282301 1.552099645145669 -0.8734158280736766 -0.013382077733860825
Ni 4.172718759482645 8.874201637302207 11.402950802104003 1.941116295198973 0.4364061950808613 0.36260730682184006
Ni 0.8757292674433643 3.844331809128575 3.769047231415092 -0.3076324932478573 0.325939004866529 0.7319881849220878
Ni 7.9292028873642435 5.945696657092973 10.78393812760442 0.7881444203986814 0.7302362352279875 -0.9153464068691912
P 0.1978103339715989 5.834209024679198 4.552689484715032 0.982644003674585 0.1575615725989738 -0.7050371102545406
P 1.0750184813553512 0.6742724433444377 3.168927155954464 0.6971592501683607 1.5445609135664624 -1.8437805001602763
P 3.4325504132582467 7.862385911503954 2.0095756381979952 -0.8469928579954574 -1.1395054648827407 0.2212845646792318
P 2.362621344166574 3.792073133928337 2.215553003660838 0.6882501206041889 0.7091475328784884 -0.18945970685915114
P 7.065413454851068 8.175735123810814 3.719900289256506 1.14884576844706 0.6109661020100445 -3.0185213912065434
P 7.348779390561037 0.7846887175969091 0.2099271919370457 0.4915172771223922 -1.0220929536988268 0.6914082066171963
P 4.760813254480382 5.137835439781744 5.287914093881849 -0.0685461245005142 -1.5638986946631261 0.5486579879994422
P 4.928127682648821 2.5904555225139765 8.446977747590509 0.3351034449746164 -0.0028724364517886012 -0.04325752513705453
Ni 6.108373450535633 2.387994645886944 12.515369087637593 0.19203620933707571 -0.6960637031113368 0.5806844203073677
Ni 8.407026783315606 2.6101401152367196 0.060499466289506094 -0.7852742979397379 -0.3496625737357139 -2.082522598194323
Ni 6.7006906825202615 0.434271619302922 5.209350902036184 -0.4360642383604103 1.333407780894278 -0.1634925933714281
Ni 0.05733517953426234 1.9040579232493147 8.912126978616367 -0.21904410538448726 -0.052790404328154246 -0.47499176866354326
Ni 3.388396073890932 5.653912907258476 1.2772894270174713 1.106143087372211 0.9330268548680899 1.718608142525285
Ni 8.96433586608794 0.007264398410421204 4.580717209969301 -0.22696695977598974 -0.1045539100536909 1.301805323497648
Ni 3.769862274973261 2.0661077601087676 11.568809400206439 -1.4059841096001076 1.3491850983331926 0.2787464063411264
Ni 0.9282461012366874 3.4644514394037693 6.995122401923831 0.7654441505876882 1.2905050679934806 1.5567641405008739
Ni 7.89899833197328 3.4970531817305233 7.632634905602894 0.5049605471114916 1.598039602210893 0.10606597582284313
Ni 3.854768792249018 6.6762117159259375 7.39213897025964 0.2413831352013198 -0.4247608975324491 0.4814508940253257
Ni 5.347690716110717 4.729576064717078 8.724069507493535 1.0129668230278426 0.019066529713147807 -0.3180302915424136
Ni 1.007989446650741 5.929036207889228 2.174948344948444 -0.6234675769111651 -1.1681557816295818 1.3429100639577582
Ni 7.974205462108839 7.325701856329175 5.479358974543948 0.17803243885881598 -0.16343242955745402 -0.9120348259974551
Ni 2.0216122826005902 6.896550075124117 5.763184985746594 -0.43575622020168825 0.9898088968541405 0.0024754581236860595
Ni 7.766627513368867 5.949439956692708 2.87249747343941 0.675971817457468 1.8285652258724185 0.39765787066806996
Ni 4.635892155276426 1.557977889319158 6.306776627276352 -0.6966278031449228 0.09941607460649331 -0.6338275799892503
Ni 4.509689483056797 8.902230284551452 3.631080825305558 -0.37704559373435714 1.1159379619754457 0.05300174900801194
Ni 5.505185897792168 1.3392991210765257 10.281935835420683 1.543733789679477 0.3413903064245927 -1.0843200779598487
Ni 7.291717121539465 3.5395571500920435 10.014748145542374 -0.5636297788179261 0.3066367049934912 -0.9712211065496241
Ni 5.591309448435326 8.467629513042347 6.924614680177399 -0.3636912839146382 -0.06628586771142778 0.8932855704144099
Ni 6.905428886736296 1.4753855794314146 7.9261095942220985 -1.7711463216333174 0.5615425572715942 1.1415191528786597
Ni 1.6258643793508007 1.8764441737389561 13.246707487983503 0.6084731603848618 0.21476039040746886 -1.2898090703677207
Ni 1.6380439329745682 6.622791327056817 0.1772314061228108 -0.8210221449633086 1.6422864878444103 -1.9371575676615413
Ni 2.707115546739208 2.46977560019642 9.17733053530782 -0.2048999526736213 0.1976054758947371 0.7673228556676398
P 1.8153435667255517 5.392850030001113 7.840460870991222 0.9150183341058111 0.3208590192404603 -0.5882334362992191
P 7.733232855363352 9.028525156268612 7.15033472404643 -0.26981953616514176 -1.772263465956896 -0.21486452008550094
P 4.400820316372886 7.995955323576263 9.461237682068294 0.4003881251150395 -1.7256347103547638 -0.804601280403124
P 2.3297614432467353 2.266217549548775 6.108612247234237 1.5433134143126066 0.6832130724009137 -1.699480420556899
P 4.9719869836240385 1.7309349267364589 3.087097335911297 0.4510509415772297 0.2009317120544927 0.2712500979640813
P 7.396446530784261 5.633933276143636 8.73782014055522 0.5655542495341485 -0.2064824666693928 -0.08835596013758977
P 4.07365961933597 1.6430595856402228 13.603227271019028 0.4652560294330181 -0.34159548045686333 -0.7948742829233472
P 2.1865479637327456 3.8908464556326683 11.285455450431149 1.0596562566645813 -1.2703041675655735 0.10296908206507428
Ni 9.098043577406543 1.5855547590305046 6.46283902876618 -2.186189220547054 -0.5034255985242039 -1.0833613135910052
Ni 6.6288027342958 6.271667980611746 6.890635477357542 -1.7950282704572376 -1.1800445626473677 1.0929371302048985
Ni 3.0886370675200547 1.7855446891237223 4.020945478617932 -0.2639653913772099 2.1327035899240885 -0.4030674717194155
Ni 7.057972955400364 4.975767163022786 4.805587174471101 0.1804809003993085 -1.0053584145529653 0.5268779160098732
Ni 2.540677013797307 7.391550737465396 10.725751024712977 0.11869677721297624 1.2211109936703743 -0.41982746478657373
Ni 3.427654619939382 6.098471224500866 3.8376519555324964 -0.43871016062368956 1.196833094959616 -0.9177015373649292
Ni 5.385188251756336 9.16306266306499 0.815944347259719 -0.4185298290210728 0.8316981366199161 -0.7622174161202744
Ni 6.05037074663925 5.50213409442391 13.192581772958274 -1.2660829303953745 -0.10124155785100628 0.23420178696153215
Ni 4.103716655530885 0.5494804234370243 8.373703118923189 -0.5289574242467213 -0.26607729551389014 0.27338102826415495
Ni 1.793750444403929 0.6867571773050308 7.364907848664033 1.1024826078014884 -0.160907092032439 1.215179458677288
Ni 6.88931241456798 8.535165644983374 11.621261694351492 0.03267897829025985 0.1597269556814088 0.06674043875034312
Ni 1.1884884029660296 5.726243413071085 11.168324286773537 -1.0835315206202825 -0.09611657791961511 2.231880551936582
Ni 0.08438559011471007 2.837928193835357 11.178890349190523 0.23223823547725808 -0.39687574108640683 2.0779642893996795
Ni 5.620748747996786 6.507588054892565 10.6570780729674 -1.2511116537975226 -0.2853929651233666 0.1664758443694681
Ni 2.892482636524102 8.708362401094254 0.12591132180743259 0.540447684274508 -0.1278193083395347 -1.0229884689299027
Ni 3.5790461948843193 3.766782811755745 7.191586623231487 0.2702833631754378 0.29803122271266735 1.0190950474127676
Ni 0.5883074758370317 2.599574052819735 1.7090163401885539 1.3294981614272263 -0.5592141662487337 1.896976110346649
Ni 4.335745911015921 3.75400396139803 13.866502014222146 -1.141435077805286 0.3053609236048612 -1.0752651668464321
Ni 2.160252667037072 9.440029953646349 5.273988281774855 -0.4121632633730966 -1.9850281660905749 -1.050421111219559
Ni 7.859518507130757 3.262387020616117 3.0013407392683096 -0.2340071544522228 0.3158312270085658 0.8973342865624869
Ni 5.60129465401787 6.992216273761674 4.662236317705791 -0.4308865508142128 0.017694589066285654 1.4603588276962463
Ni 2.1049790682675895 0.4303503746729536 11.404002798370826 -2.215900888678874 0.045306180135967135 -0.37462464299769027
Ni 8.1035429172445 0.9352532630489987 2.6093711714273162 -0.8084414800848205 -0.31770967497820124 -1.167692468839918
Ni 3.3424715041710336 5.413806975789776 9.704500524332435 -1.1176148354572364 -0.5615672398619426 -0.038161084450753634
P 7.708910627914829 1.4090664808577886 10.31654937078355 -0.2914890507187754 -1.3136804776686795 0.3897684406176642
P 0.5658734940979316 7.781748230963855 12.115815189129746 -0.24968085643373772 -0.03205111489827383 0.17366207770526218
P 3.9592492628504816 8.230612264740916 5.587070115538877 -1.2236180763629443 -0.7443366791851117 1.008309012540857
P 7.654356185226084 2.426082258316757 4.87838881971609 -0.007881973851238037 0.3224811282249156 1.4106262363578093
P 7.454698173323976 4.2545826933398985 12.000007088261697 0.21436932561663727 -0.6861220185175925 1.813060702478916
P 5.223783811379596 7.513272514105046 12.648476580227275 -0.15781662603257335 -0.8348161134236074 0.9034501696522377
P 1.5759936711366007 0.4683476315951872 9.331489939168621 0.7931459873783308 -0.9018992802253499 1.79472128073978
P 6.0295705399963895 5.0715624409568845 1.9300535715780145 -0.5246374567151287 -0.29704571887094644 -0.3858091988596001
