# total energy = -340893.1104893563 ev
CRYSTAL
PRIMVEC
9.03237019166286 0.00000000000000 0.00000000000000
0.00000000000000 9.03237019166286 0.00000000000000
0.00000000000000 0.00000000000000 13.21978678147273
PRIMCOORD
 96 1
Ni 5.987648523506291 2.428443049629514 11.188381600918303 0.8996907026098054 -1.4711764871370405 1.2241942605813887
Ni 4.7855394071180495 0.5707085040624523 6.035651958124906 -0.9582756021325495 -0.997807598788901 0.18527883600858414
Ni 2.6597710825985743 1.748413962667873 4.8646304534610385 0.20879183152885977 -1.173973159642307 -0.43627429748868735
Ni 3.302342930376947 4.276267278622696 4.8603870459451715 1.0476931707654344 -0.022653989954090018 -0.37431919594212953
Ni 4.911206773589431 4.3264782245160625 2.5666211520528472 1.528672267360664 0.9876548266256152 0.3148650064405545
Ni 7.358419088476439 6.047099584105344 2.971821407967169 -0.09693058918047823 -0.08461680481013169 -1.3126708054572425
Ni 4.992552299532164 4.520358050672044 11.113543897698392 -0.2506776731293683 0.712553987456876 0.4062101311134553
Ni 5.662772232466067 7.710952497042384 12.720567847102911 -0.6681021849014042 0.7015612358907982 -0.4598618550006403
Ni 1.9181863927833098 6.484573401950154 0.29163265255119 -0.2702936475880829 0.17970545568586468 0.7417653189135096
Ni 2.6191615462185465 1.6447223528718944 0.19683160473449546 -0.3587331685784144 -0.8612449970390975 1.8619797967771223
Ni 0.4805401589168691 0.023028027802687076 4.615688395381948 0.951916235573425 1.6991083819294608 0.5650001768028915
Ni 8.838887789419774 2.1724295489276657 1.2387471195951596 -0.3293845402129682 0.8344618154079824 0.31812259414590377
Ni 6.91231935709895 0.5962339822230303 4.820767457338109 -0.30749622478030914 0.03483716228384323 -0.3592059944497749
Ni 0.6530367518819982 7.273903200596564 2.3987175193299874 0.44609642578543174 -0.2862180321278232 0.4043363111295101
Ni 7.729297240900889 3.731768906381321 3.8443275939940866 0.07416732734203355 1.026457658425426 0.11988539820443869
Ni 7.6071344340637275 3.931474611310684 12.459172860241093 -0.05615340726311619 -0.4685164453518447 0.3670607146075033
Ni 8.144488201483794 8.778768333426566 6.885552831274088 -1.2749984877174494 0.3264270002465411 0.4871309751292385
Ni 7.013328352948116 0.5115835120273046 0.48289670429977594 -0.1953447048850184 0.7695124071197909 -0.9906884712456164
Ni 1.7917874043264348 6.468170617682778 9.167115993037983 0.6877968351168542 0.7862865412543362 0.1457165003349297
Ni 0.3126762686228512 4.8242521457579075 1.2678855458322527 -1.7994685656167784 0.6717806621942559 0.23021169196553257
Ni 6.426097837331761 1.9252226091623226 7.19804212983398 -0.4352857083231729 0.18935403451922228 -0.6297546954714573
Ni 3.469206937290789 4.268544602109145 0.3098283623015383 -0.2628706156511344 -0.8191200428445893 0.3201547940845841
Ni 6.065028838935049 5.465658817781604 5.039144877926901 -0.2051984577506466 0.5504994120835551 -1.5027018114388313
Ni 5.233228835649206 3.131333065545304 9.124560884118752 0.258043112355504 -0.4006118110900713 -1.0510590019138737
P 0.1391662437222597 5.711601225720167 12.244562841259086 -0.3415499719309085 -0.7919301126933588 1.7842684608375723
P 3.8629008568184307 6.141027201724541 12.555928512967183 0.2387976338623307 0.8114604694168025 -0.256003713327972
P 2.429752743307251 8.324458177545194 1.5117622507080681 -0.6411233423197152 0.7741403928101055 -1.3904019388911344
P 6.485711480594257 7.6402019413340305 5.724961004470099 0.5587811924763731 0.6653086813166671 0.22824402671620045
P 4.788330409507157 1.0291392272250883 12.565856894281444 0.6059748194430403 0.4491858633440329 1.1106584587440613
P 3.8903863593105177 6.386174761086271 8.131253069442502 0.09911654108820349 -0.9291591443825674 -0.14258361113290285
P 4.653368734108942 1.0250836930092002 3.9070817923720935 -0.10736284025739573 -0.30048148402537284 -1.9183378638518769
P 0.49896619410709525 5.457647105421932 3.6960540114079516 -0.4812740021278292 0.6270097857364686 0.0029243727356465764
Ni 1.4679137063774446 0.8931930234760225 2.647473510583137 0.3889965954486462 0.7081687139049868 -0.5337509889806227
Ni 2.1822838648063603 6.414680921409974 5.017424737327912 -1.132731379383701 0.07750153392158911 -0.6110694603571283
Ni 5.94884546116452 5.833014345831451 9.052857413355218 -0.7033165280190081 -0.21471822431562373 0.35847554404165355
Ni 8.446268721944897 2.3339373603180746 10.291180914788406 0.16041061201199472 0.6713762276669858 -0.5485880539934552
Ni 2.2529079673320362 5.144305151115983 7.001728079911445 0.263057791961276 0.5522220512016167 1.0686468901989659
Ni 0.5466733669834367 8.96557581372277 9.301521274432416 0.26343111614029474 0.7592197669445313 -0.9992304472783566
Ni 1.3658569555860889 1.0707061948453924 11.263443306918958 0.2029474569329408 0.4170483593795399 0.8483344596250163
Ni 4.213817471120135 6.954789561738383 1.5840745032224954 0.7032892743254985 -0.2779133689168698 -0.8390486634477162
Ni 5.746899728427718 8.08685264729319 7.920516130798519 -0.511879385718512 0.06254979770776325 -0.11346303961786267
Ni 5.234114007927953 2.75305740193419 4.871001887393972 0.5149392555907584 1.4447697150087375 0.45908666739751264
Ni 0.8667787600886218 7.406742268999827 6.979796581849981 0.5381671157704473 -0.8266718870499182 0.44558811869044557
Ni 5.02563787154285 4.593475087370516 7.030255917923607 -0.13449466347718128 0.14370075545648153 0.22588118291097875
Ni 8.172895005735393 7.200117768503938 9.289478415256372 -0.3874336218369005 -0.524094182617149 -0.1577433495924767
Ni 4.400913987262461 0.2658651068694855 10.690630260601935 0.9328517627428063 -0.14160736326256257 -2.0478985803625505
Ni 8.6289303443233 7.122638097003075 4.870301878704147 -1.5768495983968391 -1.553991205741427 0.26292615147941817
Ni 7.207686894724237 6.189178767214294 7.100995634787732 0.804649102921924 0.24856756876490094 -0.24826212170934017
Ni 2.476088802388555 5.277848744394166 2.5058631074871145 0.232040003423523 0.6305885042266623 0.24758746423981876
Ni 2.2220172612778333 5.2425050798356585 11.420785389177144 0.8111164558138223 0.01334248274517702 0.034497776666553494
Ni 1.3443418497904425 3.4613216781137957 3.5146524046712324 -1.0176675709376215 -1.2822158314014949 0.4631883482707119
Ni 3.6057583098426713 2.4579879325252154 2.4377554232967316 -0.6244448532227698 -0.27573538742894443 0.41772610217285483
Ni 1.121422953469471 3.3247432084513395 8.374655574883274 -0.6180114388926001 -0.10549030582503124 -0.7069124729003826
Ni 3.5026628364793178 2.7439708375217546 7.1991522081304895 0.7520559022062403 -0.10466780992373588 0.1843583810768438
Ni 4.346195888643642 7.026416257355291 6.05998967960533 -0.31716691510085376 -0.1300584820826986 -0.6122503680391069
Ni 0.7796850337561527 7.560238368030564 11.47403482440286 0.14423914445845482 -0.07406242633305309 -0.5339425361661385
P 0.11862031124813838 5.564247138419505 8.132548311327932 0.5213335891528764 0.32830519110586037 -1.1307565150455172
P 8.462969574428586 1.6553805496976133 8.075108759570478 0.15619965925444068 -0.717426485057829 0.9986478353020092
P 1.7505094725522516 3.2138076377619487 10.418236556558188 0.8056518331548254 -0.5902928899314092 -0.2772906477312063
P 4.290655844337416 6.115926244962954 3.7083353251570452 -0.6750166526330504 -1.3958279950027124 0.8745437710305325
P 7.04521261972336 4.184940983618589 10.112833152413362 -1.1185846555696735 -0.5595754062428944 0.7733788320537326
P 6.212437120456858 7.807752408382411 10.164165015447466 -0.4498486937390124 -0.023823070561526716 0.4081376871534713
P 2.356446026834763 8.589838246135407 5.718893058175593 0.3193644369728048 -0.38002370252607454 -0.9214016119243357
P 7.015315474390198 4.179431237801904 1.4940208691783416 0.018759539995690272 -0.08198630916582009 0.7727404271387853
Ni 5.531441569884749 2.863297480118852 0.5079055308854123 -0.7651842120580822 -0.3372276904064708 -0.7372054674569691
Ni 1.3493819123571809 1.0114719111309303 7.072982641876473 -0.20735535619264936 1.1966500324145326 -0.15216611261501536
Ni 6.673810589827816 0.8659577176382338 9.301124753381018 -0.019406429551069804 -0.6418293672478043 0.8675040905749318
Ni 2.727983542283176 1.443598565822499 9.214588324289352 0.047372318636376476 0.2471624608872582 0.1934693422391765
Ni 6.554818144927796 1.9987461025194018 2.541808327900362 -0.7361873106050998 0.2821700873106947 0.3156692475094047
Ni 4.037343022322763 6.742492732762364 10.422043700593814 0.4351067595431475 0.74007841812939 -0.12245932957920201
Ni 8.10881033922821 7.018765839803271 0.4888580686260256 -0.5593530058194431 0.17136094037591132 -0.11911998079332388
Ni 7.657119570702312 3.95803881204326 7.941865944219664 0.6028496435504972 -0.6396632128344208 1.8259031056592232
Ni 2.9734382022314096 8.431365311129271 12.438113889140107 0.8963670375532111 -0.43058753151655516 0.8634273494023967
Ni 0.24258778564951886 4.840907836390641 10.283724693195499 -1.7692043674155982 -0.5250583463026312 -0.9734757069117558
Ni 8.391984177095258 2.0456782980333306 5.894425430762014 1.7693231523816495 1.5055955880468588 -0.9064763580730711
Ni 3.4651604354450924 2.573033231651642 11.579554585925557 0.9262160025938435 0.9768088850500469 -1.5081839175993252
Ni 0.9159455639878753 3.391528553645718 12.439793006758666 0.32890245837022714 -0.30644335803576256 0.09634977697634374
Ni 3.029998904369251 8.517994773633909 7.760992731139136 0.9326347616359939 -0.9047807155382029 1.0433109825373388
Ni 5.529138315485971 8.004504528259224 3.7515245064637046 0.031331977344062165 -0.4851046887278291 -0.15174985101320318
Ni 3.1053017746540137 7.923944818523132 3.4786150540820344 -0.6653187086189961 1.700231954010943 1.1062762705159657
Ni 3.352517746789548 4.474627160393557 9.346019246179791 -0.4955829625513336 -0.04285951836768748 -0.7255295737809375
Ni 7.072842640138507 6.029938080741897 11.304252458680214 0.6881896996798986 0.7887871961890027 0.2672792862417913
Ni 0.6143077549757963 0.001755892765186259 0.2571398372647019 0.03856346209549488 -0.5508112868970191 0.4757826399959548
Ni 4.714563042154913 0.514323029906322 1.4160642885313788 -0.33620104891416935 -0.91840679096207 0.8635898431221902
Ni 5.684982830766443 5.3692021365088465 0.061055209545025906 1.1775063696065462 -0.44430462399233156 1.3548433250602345
Ni 7.811157611944527 8.749160223939525 11.344031017002642 -0.40036858473101367 0.39520606669346775 0.1916412878915022
Ni 8.961131887588657 4.828696071892021 5.863306205741972 0.6779276556322582 -0.6524073998739667 0.020818479407248017
Ni 8.02531510917995 8.967436481982176 2.5747520916990436 0.0397875643105831 -0.7403478697406927 0.11664220867679265
P 8.49218025962721 1.7823395451063482 3.5701219964899664 1.0503678893841202 -0.8054847114493419 0.14592398836004547
P 1.7654490128486409 3.3043842460401778 1.3343123059300372 1.2762519005085762 -0.7749682880280395 0.5704740554332692
P 4.676807734755332 1.0942806810446524 8.234301574480861 -0.18506954821125546 -0.06394796360687051 0.4919517935566495
P 8.484412421262702 1.5814505996819264 12.339679118795457 -0.5068551930310432 -0.007769873753405973 0.44661630284464376
P 6.344092948365063 7.810696961064771 1.7224856407967635 0.49961496652886217 -0.5200842901268075 -1.2651514197200406
P 1.7552153374219124 3.258897229756855 6.137365478848993 -1.2787602687527269 -0.41290194131133406 -1.0847137138538416
P 6.926536307780036 3.719882307209587 6.006714050506059 -0.9577068741132732 0.46681386083844123 -1.3519366929364007
P 2.4397967389599624 8.334258299202741 10.278741534560965 -0.36682931532298757 0.7471502373745067 -0.7155863465252966
