# total energy = -340863.03769609384 ev
CRYSTAL
PRIMVEC
9.40397334635277 0.00000000000000 0.00000000000000
0.00000000000000 9.40397334635277 0.00000000000000
0.00000000000000 0.00000000000000 13.76366556058125
PRIMCOORD
 96 1
Ni 3.0545421652620095 4.090662533307731 3.1921382805755862 1.2807096791696135 0.24867504087704267 0.8458777705544076
Ni 6.730498882484567 1.5102122751664704 7.2592871191841315 -1.6810324982643565 1.189548388372745 -0.6876541388914028
Ni 7.133609599559944 8.01480891238475 11.889494153787863 0.4783144052788731 0.09335624156565857 -2.018799349003749
Ni 9.654871250103751 3.5372669198207087 7.496380092610726 -0.8860972801960868 0.475225224830588 0.49101848310910273
Ni 4.249862396354645 7.349966811983617 5.891977621432802 0.593633781379184 1.4896987143109441 -0.5482345273087784
Ni 8.752306110068679 5.96630380476105 2.5819671190255105 -0.8284356638185604 -1.64246980749981 -0.8176406300855855
Ni 1.5229076390458096 0.5649145403135422 4.190458437769906 0.9776352376060841 1.3377539736781154 0.38428556312622203
Ni 3.950891278982827 2.114671463368168 7.989326025688281 -0.693760766009773 0.009260085145687278 0.03924120488880984
Ni 2.460775294638689 7.745281635239754 10.604463779537193 -1.7564241849317943 0.5523413503883003 1.3004362110642635
Ni 8.588686379597105 5.664022488807359 12.024983779094795 2.7025356408979846 0.02839140665849949 2.0110050497703105
Ni 7.371219791514956 8.470722939224935 0.2595195688187782 -1.1469562647338312 0.9118656474094424 1.432635907859681
Ni 6.725618220370954 1.4868810175482179 4.186824742508442 -1.2486549647269143 -0.13066423398749757 0.968879602900641
Ni 5.170972171626797 3.11843275948144 9.787645007937828 0.39489496321095213 -0.627006700412675 0.4347002681333481
Ni 3.1586347450993477 0.8007266925843098 6.101460529415145 1.070748252812685 -0.9654875464999565 -0.19081185001167136
Ni 5.86586937051561 3.8515006857674665 -0.08011244806525292 -1.3198848067071784 -0.7573451756296375 -0.07201145734129534
Ni 1.594123928422281 5.836416126315543 3.0676042840978632 0.09467598881834663 1.2684876831821252 0.46132249870656683
Ni 1.1819665890862199 5.257121970514668 9.482256619224335 -0.7821722619756465 -0.7789288153376843 0.46213959529122345
Ni 2.9635681280999884 6.978255961569807 1.5034188448950372 0.45775123641554066 0.3012702984752553 -0.2256230441535856
Ni 2.3560244366742737 3.327558316480512 6.41165246766165 0.32069729685161547 0.418682295438537 -0.013923552059627631
Ni 1.6924706806075627 7.557869852460975 5.993112651684917 -0.539828048412638 0.2879640682846525 -0.40285432726734494
Ni 0.14804675077958404 7.880689445979463 12.634232410869638 0.16284338982320343 0.7512719728523642 -0.014002999147311368
Ni 0.39766769736177515 4.991158799229133 4.9588975286184205 -0.6102618768541683 -0.42479072232911996 0.5256293883147528
Ni 4.71562238318125 5.305900379731064 1.6891049985835513 0.3614680510110742 -0.15791175684954095 -0.17901280049421428
Ni 1.2719532090576255 7.371595950444714 8.42637756299574 -0.3622362966356665 -0.6316282583450864 -0.828837013022037
P 0.48299558898812556 1.669666045490972 1.546072446337644 -0.7823589240651558 1.1368443731108098 -0.4923788537917391
P 5.176106741017997 4.439427689006291 11.631054161097492 -0.813020871925387 -0.7150656981351363 1.2358611553963554
P 4.99117760717562 4.168217100650629 7.730527741617314 0.3108368591177679 -1.3260325714761292 -0.801200225141375
P 1.5033191627786513 2.0303084193966474 8.640705397993367 1.1328972155376038 0.5740859411542436 -0.7984684280325087
P 0.9789818266154506 9.46716794415441 9.992104313413249 -1.9902901858204622 -1.6505132466295767 0.590898384725892
P 3.320881495477304 0.28593721045569664 11.874630233678468 0.2681591177435833 0.5869507129320536 -0.8537317193811877
P 5.404275343836077 0.07017715033301443 6.149564673749947 -0.41285900388854063 0.7202721820367403 -1.4293783201543317
P 9.460303043686322 3.6987895642588806 10.815887667597089 0.5348419080519563 0.2757857810509057 0.7803943441396173
Ni 6.507502464950662 5.997177048920953 12.891750814182103 -1.2572812729433445 -0.4651328735915925 0.5572166762027306
Ni 8.969688355575943 9.052725439320067 5.731699122654805 -0.39320009200703254 -0.19360046850040205 -0.44842738791145353
Ni 1.059225930306119 5.8955859259665075 14.218830114395793 0.8848310118891536 1.1222831874671833 -1.5493454794392996
Ni 0.9543340127430445 2.85911819727938 3.387417427370259 -0.41778266644240303 -1.4790530616716397 2.804670657097537
Ni 3.7588057215018016 5.504681566161786 13.242352565855208 -0.5400013407657087 -0.1080475250292462 -0.7105865793178601
Ni 7.261343768132584 4.546172189298424 10.781533072542272 -1.199102093499451 -0.7462308108840309 -0.642976336368054
Ni 2.9463024332240875 5.545570041826502 5.33498969016659 -0.5409755317535199 -0.22606733077985583 -0.7652981119281272
Ni 6.4332204802966615 8.609196445242171 9.695345950945732 0.3847894993458341 0.36559184337146067 -0.3345164621228949
Ni 2.8440624361158076 7.799354481392496 3.734385483781899 -0.07487695181454847 -0.6297940333498251 0.28276941145759044
Ni 4.184899749185404 0.2313951060380819 3.8067405943182133 0.698997331818364 1.325338116512266 0.7267799012482709
Ni 2.7396219092684433 3.759924794317832 10.418337519900861 0.7671202527385305 -0.06701477545765233 -0.061223879807488106
Ni 4.72075695257245 3.8912983005358845 5.379350112752974 0.008005386802979762 -0.3564675124726893 0.6659920805369369
Ni 7.023291589435107 4.055830216412121 8.524938725770983 0.47927419808898103 -0.32218468003041933 -1.4740818337092936
Ni 3.0476114369812146 5.106216411868923 7.8722522011849865 0.4472799045705716 1.1861835856655703 0.9406686876840638
Ni 2.831009721253198 1.8630023314134434 2.033360949111635 0.3856773012674261 0.5427575633546072 0.3204435289695965
Ni 4.761043573949553 0.8815641869866716 10.217223207708315 -0.5741278501357725 -0.5504724155003616 0.5878002054165425
Ni 1.6469554501068204 9.333443444625368 1.4565400382739215 1.3938754992620317 -0.7552371281476994 1.3270581845271663
Ni 7.765424945928307 7.8030502428773705 3.589151461399582 -0.9205058395829436 -1.263572762379011 1.1181843348074614
Ni 4.132726505627942 2.5284744980219207 12.614578106789773 -1.4311554666594126 0.3301178188345669 -0.3365877428296267
Ni 4.600978545364194 8.937009548553199 8.030727017894792 0.5651248753062139 -0.6853602006509035 0.1491455806211367
Ni 5.405751767635379 0.4233913257732898 12.742897202498188 0.021192574917215115 -1.0572934128593596 0.2225084097840039
Ni 5.627977059363279 6.295790815309502 7.482120847980917 0.012574494230900925 -0.21680287475879437 1.290378055497313
Ni 5.49546567238271 7.423402439045662 2.709570572370061 -0.9035581559850115 -0.7107760696208468 -0.3843408418441897
Ni 4.199551139499486 9.139430072629333 1.3900887421401618 -1.249824302444667 -1.2225649525080817 -1.594432601585925
P 5.994985923155113 9.377397615567615 2.488456830279595 2.6184667381715228 1.5610002900694084 1.6997221042540596
P 1.4841632692807147 6.085198238484373 12.041335407771383 0.7882719471154811 0.5681189249375312 -0.811855647972692
P 4.835297346683822 5.7884840746911035 3.835300461060105 -1.3734123463116734 -1.0588113921657831 1.7317865888887725
P 8.738849024356579 2.192677421426775 4.92659394012811 0.46012822128814956 -0.6153040672637662 0.05242093680387746
P 7.145449201874083 4.5443102025961215 1.3927180930591718 0.38885081389940124 0.5928010010652436 1.5396647618164259
P 6.909400069477568 1.5998133322348738 9.674122123731452 -0.2803260921234204 -0.4326454424868484 -0.576280377702401
P 2.97952667069498 2.4444876129801587 4.592412466136276 0.18469699536318515 -1.1697277541023918 -0.6031725741075548
P 7.708399252176963 5.848754139211612 4.577836307608146 0.0503015764680295 -0.5470369074562513 1.1687371080543485
Ni 2.564247212241926 8.233902681022414 13.227433162303672 0.45338730301989016 -1.3575566102263394 -0.14558254586022668
Ni 6.449263658650849 2.2839805976523344 11.78107856745028 0.38755934878148735 0.36222421245080844 -0.8105770383705847
Ni 8.091216194991883 7.734927860698161 7.927843789016627 0.5173116124776769 -1.9026739320623747 0.8354825433630128
Ni 7.874586267344136 5.643916794011783 6.857581355711402 1.29302680597407 0.5182423518220624 -0.5641668822683187
Ni 8.139223478402275 3.487435265600991 12.993725619244902 0.6305455668038689 -0.08818729577020941 0.38580277110169686
Ni 5.2447839576185995 1.790723393060405 1.6993036075666204 0.8271557686648722 1.5893251051560306 -0.1369564947541125
Ni 0.9319647815876486 1.3768639345671878 6.503524584268468 -1.028635639913351 -0.06776039537442524 0.5093735885775228
Ni 6.8359174225493025 7.90609898168463 6.055861603552531 -0.3034737338844773 -0.4186660974886209 -1.1882091007360311
Ni 7.97120268845253 2.9890622995643503 2.7592019219596824 0.9401778640905744 -0.20154234905529808 -0.4224710730570079
Ni 1.126746458197716 3.3008040126014597 13.007902108910164 0.1883829288552046 1.3048765062238044 -0.05181929866413656
Ni 7.405722969347027 3.6923854584797473 5.754561122008185 -0.4417643740689811 -0.501464103922459 -0.7737272165320869
Ni 9.353379867902552 8.006110237134092 1.3343927702055136 0.03576841584886098 -0.06528750835390047 1.7798199381479154
Ni 9.19133060096272 6.982412517743635 10.381644156700274 -0.3786795297933543 1.7633833898584468 -1.6405921308611229
Ni 8.59759194225913 0.7597216076513683 10.963144484624179 -0.544208693978837 -0.39895576354388707 -0.7723020540497859
Ni 4.7119736415625955 7.37513184438444 11.286521733756036 0.44425243059815744 0.39494792793607464 0.25370386155020175
Ni 8.472810621285092 0.34122316915690826 3.137496494041586 1.7210038964509715 2.538150360508958 -1.3135804617557054
Ni 8.289545990706896 0.41114076982838954 8.297425579888005 2.281702874775348 1.10588083484976 1.3651511347441456
Ni 4.807574433560642 5.366753490592697 9.770481816370285 0.7915637304928755 0.3975097751259799 -0.6388967669820416
Ni 0.7840515672281287 4.137522531982358 1.6865997801113617 -0.09126156382015896 -1.4388307238164832 -1.5092640380373814
Ni 1.5640406180148687 1.8354769017283867 11.095468732537196 -0.47818636434144096 0.3237522816278553 -0.8716384244582795
Ni 1.9387043160272814 1.1765499004977018 13.282680564714584 0.2959162332521936 -0.19637134637731987 0.5965010756246502
Ni 2.4336260238833907 -0.07313281912358949 8.569850221189464 0.6832873772822748 1.4826310088308854 -1.3277647236758876
Ni 8.8298230615186 1.0681503009146323 13.222038102853615 -0.009690744925202666 0.06571199748582877 1.5180957773963983
Ni 5.813131888563509 3.806577905581093 3.2421279215458023 0.27782620851970213 0.06853584008786907 0.24066322631615972
P 1.0536211622527216 5.547432028528804 7.011087112959102 -0.2291683383026827 0.6339692477734372 0.02696701550714711
P 0.6964356889115241 8.190964139190516 3.66011666469044 -1.1116444768064144 -2.0405799352139504 -0.3946483944177848
P 6.820457290536241 1.7801063072679795 13.93901489052191 0.19664131220925488 -0.2396316997278518 -0.7035571832749045
P 8.38509035886548 6.467375711118706 0.3109198057755876 -0.8281060483932835 -0.5454842182571509 -0.0023281339125443778
P 3.7639120789732696 7.018796490224497 9.113817411102097 -0.47881962705006564 1.6580226676327445 -1.5864097312814487
P 5.321050180627076 7.729040973447445 13.41142566041095 -1.2376591278370426 -0.04736691931973778 0.7405916103203826
P 7.003947616472291 6.514461405151188 9.556332656864294 0.7882873737344488 -0.2499158552626793 -0.15217613991734436
P 3.047677264793922 3.9138302204284003 1.076697572196063 -0.264197561992674 -0.01176793916920554 -1.7280692879381852
