# total energy = -381169.0765451781 ev
CRYSTAL
PRIMVEC
9.22431928915315 0.00000000000000 0.00000000000000

0.00000000000000 9.22431928915315 0.00000000000000

0.00000000000000 0.00000000000000 13.50072368815547

PRIMCOORD
 96 1
Ni 1.9845569233492573 4.688121852984094 4.374707160570465 1.5227229917557645 -0.1854711545250483 -0.5628548483251146
Ni 2.259543102103788 7.302625981039815 8.300284988085867 -0.8209488685232119 -0.8214762017815916 1.4084235722795357
Ni 4.046173809038434 9.034814756237544 10.170648529847469 -0.4526095443136012 0.7743771914112598 0.42052011997822414
Ni 1.5915363565049958 2.504993010878378 -0.008977107415514713 -1.5067572124551276 0.3050490487913972 -0.25130476519040595
Ni 9.093472201834809 4.851161694300599 3.4845363775079394 -0.43323525355204745 0.9747067511053795 -1.4489611273822658
Ni 6.56916346661602 6.904947133015082 6.387705427214272 -0.7769416097043265 1.172897152969309 0.2018385401394782
Ni 1.682672629897192 5.855173489958514 6.477606564269705 -0.3123928907509781 1.1835867714726713 -0.9019532733917369
Ni 0.025930483616680444 2.3089854528509712 3.515102081507168 -0.0004036631963218854 1.81536029714637 0.33257656478770464
Ni 1.7213317515355213 0.712283477611195 10.8642619854601 0.6055040504542087 0.13195492777446308 0.3519673106094906
Ni 8.028044889148022 3.969261435805223 13.013968351919871 -0.7250122678248868 -0.4111404785355371 -2.31183877492878
Ni 8.170708209419653 7.479742133408596 10.127108820936689 2.303811276638613 0.8456006056336212 0.053922203939752306
Ni 1.195637802079928 3.805668135338563 7.4112358822343225 -0.5219218575561785 -1.059355180484395 0.2942478444108352
Ni 8.348137988640188 5.508551248535582 6.495062665865595 1.629743103961761 -1.0683260165244375 -0.22263645072143595
Ni 5.178274500680564 7.769644036259805 4.565027003398112 -0.5921368851186833 -0.9531863605351004 1.52137444814767
Ni 8.635945971039979 0.8829813487020117 5.427884577400485 0.8375587091657513 -1.402791313694423 -0.08788930491381637
Ni 2.804672692048992 2.468344790818945 9.41487792194476 0.7486530471722783 -0.5959146069935608 -1.423506177644271
Ni 2.955361169997871 5.909052738226107 1.8775723471923715 -1.8360455934098638 -1.1383176152222267 0.14545193381963337
Ni 6.9762049985975425 5.991370562492499 3.867322562233917 0.3004082075852762 2.000187390329516 0.271743492660732
Ni 5.995207879266908 5.5489722151352385 12.07695094152439 -0.6332010021488449 -0.8251454231030627 0.25712008632060235
Ni 3.8465964394925276 6.780880040188661 10.17405045875709 -1.0807755551417 -1.034559975817586 -0.42271429941606553
Ni 1.5973384532624544 0.2564471420881706 4.130708237201198 -0.219417429563506 0.14707558546598543 0.5743129695633851
Ni 5.929106408100058 8.266327501928105 2.5893171245640825 1.2541360424461434 0.6480126132403807 -2.0241588135434494
Ni 1.4162927409275725 8.856785396271007 6.479604551801765 -1.4026126220247135 -0.4549613323752294 -1.0291316057131632
Ni 9.196184995784414 3.6274542889886408 5.298399119494047 0.7202909510898176 -0.4344231032125615 2.466514798449843
P 6.34353661973615 -0.16626835302574258 10.307248705129151 0.9748671879426437 1.7542989110586755 0.8035643544981773
Ni 5.97216552998212 8.065790803188596 12.415144000090459 -1.4689612246532764 -1.1810979436125466 -0.7310242783469216
P 0.5438741601062694 5.7269646778251 11.515144704953096 -0.024466874793112704 -0.8409289111895647 -0.5686717121172077
Ni 5.289861089670989 0.822292708023678 0.0806869646372691 -1.904833915828171 0.05149405411423389 0.9219723968261412
P 1.6602114127200667 4.081475278499156 2.2025755517783296 0.42006991981468306 -0.5903160298598608 -0.20949502824347147
P 6.4506309652911495 6.317302656018802 0.5487261519892953 -1.2546728887862197 0.8750554205596285 1.0822338848547814
P 4.518505072099913 4.471710100954304 4.232665559410842 -0.11496327831247297 -0.3707865001985227 -0.12740047563456122
Ni 9.014825656597777 0.9131596312961321 0.7527773163322884 0.6491179304894176 0.02746709507201721 -1.1131431728391281
Ni 5.107579318567427 2.3703825212415035 4.998427027405768 -2.0483724346751755 1.6146928944968582 1.7609814652851736
Ni 8.942350180884976 2.006197176120319 7.869490834243524 1.8230126714853057 -0.7824265440782977 -0.748650218958801
Ni 7.089396619123417 0.8578736743552284 12.379258631226323 1.5796893818384794 1.9391041498649508 -2.1879290860562968
Ni 5.217191903255632 5.599420016671871 2.2393381533954613 -0.03058687164792152 0.3539460316024163 0.9925180682551875
Ni 7.125150080223432 5.513043491971008 8.403147216006015 -0.8773588718818245 1.3690741239476356 -1.211686357922365
Ni 9.212696527097373 8.78954010952717 12.206179963357922 -0.2155116667511966 -1.2789934678094554 -0.3763177144293971
Ni 3.4490098346594875 3.9138970721513804 6.353926892848394 0.7425271367801987 -1.7355787089413528 -1.384528510829493
Ni 2.642509161053566 0.4039098756235619 13.26627008497338 0.5657177716952063 -0.5287949305269279 0.37793185299405235
Ni 4.2725570500901835 5.934105989089791 5.83822564834885 -1.0460942017094306 2.2310999650168153 0.2235733607134085
Ni 0.41226157419940146 5.590389408205174 9.125233377598372 0.7320889721660101 1.2857210163412758 -0.8551075166827917
Ni 6.470278765121654 3.1488966104879177 10.964288657667622 -0.5692849202211744 -0.7802030540644176 1.138075931525066
Ni 3.4085427464639846 8.17381680497969 2.8171827137063303 -0.9781785117040637 0.49469104686468357 0.5521413185623523
Ni 9.036825657816442 6.497213777095865 1.5724696887821548 -1.1692405300533282 1.6803105324966674 0.8368357149567974
Ni 0.7941280943042052 5.079380574867028 0.28739934506059106 1.8253009532988502 -1.1551627118040233 -1.5009470335312538
Ni 7.438232697146968 0.10555388425373495 8.30380867800852 0.15462125902372725 -1.5031255292398111 -0.9870878983785517
Ni 3.489052604173204 2.7738450173853564 0.9493429456694348 1.3310577926048626 0.22223818684175276 1.182807984325118
Ni 4.137466895856508 1.889777043885207 11.674682994712954 -0.35841435178641495 -0.9659027796605043 0.06551607942493878
Ni 4.676692921533392 1.085554777114091 2.352096230920381 0.276318256515608 -0.22348028677896997 -0.008536833826417555
Ni 0.2805152356645793 3.4208664368741033 9.820008174994413 -0.6904234741064239 -0.10858925646532912 -0.7223131237261688
Ni 7.5020557614790135 8.564706554095855 0.5274788552148433 -0.759367348265989 -1.7583478843170686 1.6232775508420754
Ni 1.77144747758206 3.03635991662306 11.38772549454057 -0.13315794694362876 -1.4857060482117832 1.278264560063231
Ni 8.100040700264023 6.410145428457309 12.820624777268543 1.5061090373481676 0.916743544327034 -1.411733353379059
Ni 6.039530732875157 7.046854059114834 10.15060039456502 -0.41728310109816524 -0.761664886050914 -0.9178997694186644
Ni 6.9776532167071155 3.8882534648608638 4.589705746903524 1.8099496676537603 -1.171021276102835 -3.961270358458404
P 0.06451581070165582 1.650027764357214 12.037798318810506 -0.478302321094015 1.13621676682914 -0.3801021211724938
Ni 2.6505435430499835 4.736060639706689 10.502941713872886 0.1276249329405415 2.0528368982044323 0.5030502174626562
P 2.5617041251309307 7.6369245320526264 4.909551634641955 1.083386767512302 -0.6396827532184467 0.7236896923587214
Ni 7.381309423553523 4.725074475576111 1.7069777884762505 -0.24290471405216874 0.2565729555678807 0.46312458491231207
P 7.16925155017162 8.55996525404286 4.28084971302334 0.8913006787738973 -0.2495142489488864 1.7177239401481192
P -0.03213291582608457 7.497517396447742 7.3313514333647785 -0.3819970242023615 -0.8473903505441922 1.7943579838630905
P 4.876205720845114 6.7490930363314225 7.9981525604481485 -0.16577881830244354 -0.22393125827345953 0.2693559662651619
Ni 5.7355248460141635 3.6047809124706225 13.740226673072481 -0.7346101959259671 -0.05490642222989254 -1.508017824335106
Ni 9.026263812367649 3.1897972416843756 1.291059694158158 0.6758566320358425 -0.47355297933448764 1.9721667367468743
Ni 3.988484916953941 1.398904899293535 7.0967096593607994 0.6596296286540189 1.7986249866695603 -0.02327542558817282
Ni 1.5598784931161276 1.3698390695912261 2.0819196121806978 1.8499133525308915 -0.5181770458017656 -0.38535488493100084
Ni 7.680324953743951 5.125492946394112 10.455986239573733 1.337148993104265 -0.40390076625398824 2.0179411147685116
Ni 0.7200226813941963 9.192273884456652 8.907413072031439 -0.3544322272102154 -0.5876276843944203 -0.6900473217139277
Ni 6.700038106989348 1.5169669603407736 3.9771242454650917 2.0892493753951955 -1.7228566333889943 -1.8426515287621554
Ni 2.0385560877660507 2.267485240908513 5.571397457467604 -1.6156233767309272 -0.9579647557603501 1.0427214285824558
Ni 3.698287835889316 5.689135744912003 12.949597363029172 -0.46146133827727626 -0.26671261510504385 -0.3482027013607358
Ni 1.6234986224264492 7.4065748337581 10.683811241711636 -0.6290790095606714 0.3712246161772058 -0.12541429844246788
Ni 7.399748837572854 2.4431900724443985 6.297588441090278 -1.8488800261703706 0.43920509798223717 0.8535044338617302
Ni 3.1385745973375263 2.248031151780563 3.652039866870444 -0.25401959301840765 2.1379931204578018 -1.7290761319361445
Ni 8.772641156809103 9.500864257944762 3.0684310295107107 -1.3016777967808486 -2.9757940275413457 -1.1988763506418902
Ni 1.6787153969735835 7.339394117248447 13.255699015205419 -0.45598591698500174 -1.733367560222647 -1.1824004644740538
Ni 5.263728593464502 4.897181822635989 9.840501844892739 -0.9348392254864805 -1.4431020974983277 -1.0263278177157809
Ni 5.93252863051185 0.30106056175025125 6.3674543569101 0.6071223027839222 -0.24820067234378548 -0.8255542285057073
Ni 8.967846199068784 7.373625565685536 5.169670055759488 -0.8425317369003104 0.6335748405484959 -0.8341656243238021
Ni 3.869306713287223 0.3783677358439069 4.682995898821741 0.3125358440867456 0.277677855867296 1.1485207810074736
Ni 8.13392162457268 1.512345576436979 9.97383476632467 0.08343409735594018 -0.8721696143714012 2.4006256519562013
Ni 6.037796560871338 4.476008633687175 6.287583744519309 -1.4597471622541764 0.4554716963527446 3.5941258258878426
Ni 1.2230893759276178 7.150701444322257 3.2775435777818718 0.14351435047728833 -0.6641372867163853 0.4480275813698736
Ni 3.590806068929208 8.410125413457553 6.9271943459874805 2.817363679184174 -1.2593854637705408 -0.7615111340818691
Ni 4.456545320240056 7.364548835622994 1.0768073552458906 0.8300947966885383 1.4256785027052414 -3.685930920916298
Ni 7.178411299106686 3.180692838664325 8.658661779426174 -1.102183588503831 0.8885035756447343 -0.5062453273611862
Ni 5.516696322362032 3.4092068974441707 2.5522307493441105 -0.6593390939967936 -1.483378428519871 1.29855364932957
P 1.2648847660834925 8.31292876237116 1.449950436712334 -0.515388427313035 2.232818233259503 2.085485537477389
Ni 5.478018752085363 1.320627326823274 9.005751693830987 -0.03032384779452197 1.195756831176302 -0.09664031163356905
P 4.348879066896563 3.9254551440704515 11.723123584398358 0.5739460731422696 1.1570743270044395 0.23191196248609094
Ni 6.95236013354503 1.8908101676321631 1.4285112740991617 0.19297260510841605 -0.43815068857579376 0.32599454069481276
P 3.3611389702532053 7.816060810319474 12.076694505451485 1.4320808066871593 0.8879160785723804 -0.23905654395067216
P 1.9914105924920105 1.2706591898834436 7.611708010739647 -1.0789652414058386 1.6676643044875665 1.621639758128336
P 4.9625453482693 3.366692010393095 8.043717929848496 -0.26645036258259275 0.048929121600535086 0.01716159938095109
Ni 3.0559615948577177 4.828672804165966 8.265952994569833 1.1696534492210309 1.7926127190372094 1.4301514508749307
