# total energy = -340884.06062989717 ev
CRYSTAL
PRIMVEC
9.10019894116475 0.00000000000000 0.00000000000000

0.00000000000000 9.10019894116475 0.00000000000000

0.00000000000000 0.00000000000000 13.31906101260558

PRIMCOORD
 96 1
Ni 6.633635611249231 1.915082292560903 11.241434047166647 -0.5231865832012151 -0.33906217251204834 -0.6591416332740068
Ni 4.752970271561612 0.5475435075530412 6.084067309403672 0.61398817666582 -0.12420536573603126 -0.14719514176298523
Ni 2.8163478078079365 1.8882731061080489 4.599218768236577 2.022218401987627 -0.6504276504397767 -0.4722831114831285
Ni 3.9298299653090627 4.4749136890541585 4.685339412131768 -1.117987645415623 1.2743744809802053 0.26574973697114235
Ni 3.776528011817963 3.113806014727299 2.610082695743989 0.3170738411664152 -0.3845005073505055 -0.31358665394876317
Ni 5.22834647044966 4.9128607691775805 2.3624817494557373 0.33085289722837863 0.9455967211133005 0.7004949994098129
Ni 5.190689846708347 3.5102652873019897 0.457943857554346 1.6406489522409873 -2.2183907449802636 -1.644392735554136
Ni 5.996357770751295 8.677567622406862 12.382544409036703 -1.8842681758616775 -2.492407092835572 -0.9789729825809009
Ni 2.0919082606414894 6.873553259464792 0.26297573261279233 -1.32762974075992 -0.03297491226412386 -1.3136683934838214
Ni 0.5975718519266205 0.41378150149967685 0.29908896259225803 0.019542955128934086 -0.2932967933514755 0.26929605956150393
Ni 8.140455673044896 8.899830884431474 7.069557897080134 0.6010773821414229 0.7112468386096783 -1.1632593727692289
Ni 8.903980575206255 2.687015778660631 1.2978294401110009 -1.1595335871782095 0.40021791808576235 -0.035576354442712926
Ni 6.8903522269433966 1.031070754745849 4.4524689580740775 1.3593646099693557 -0.20837402726515084 1.5036531196085072
Ni 0.6703634342476439 7.775182782674525 2.239852926941552 0.886875038902376 1.0907149257425988 -0.5218480668954496
Ni 8.449198126807957 4.168837593617875 3.641697642394074 -2.4338399339246406 0.018753369348103188 0.040773325262620105
Ni 7.43744709468241 3.5656217982295906 12.65626474668849 -0.06057416203863116 1.922021483351051 0.9758557771081582
Ni 8.45836202726893 7.4243428080252105 9.056308807397132 -0.9543166174848017 -2.3145101511133555 0.31123023790144466
Ni 6.903820521563296 1.1362326551698754 0.25509223016061733 0.7261209275080334 1.4442038152029384 0.975713852213655
Ni 2.1957324318025933 6.509217689598375 9.262261782633065 -1.5153680940525902 0.23079533238314445 -0.7173352108956033
Ni 9.078922802079868 5.358888826072943 1.286823659358767 1.1219456016221065 -0.7688704026604178 -0.23891410483553693
Ni 6.735712544189375 2.111355386048736 7.01467004640451 -0.2283224453626197 -0.973298557903943 -0.7454283695873937
Ni 3.6698827789459343 4.961874441355134 0.46439680871311 -1.1663999752807395 1.4736663434384298 -0.5994051366453226
Ni 6.176823818458883 5.811660130477322 4.544969751535492 0.046939344864015936 0.8442898572419977 0.09773945823501877
Ni 5.740887882329377 3.1718743849770146 8.98742303051588 1.5658434770943226 -0.006204329038498993 0.7517149739270537
P 0.44044326472763734 5.832499586341897 12.454334059440393 -0.7035263300369691 1.7420182939191096 -1.0837953158046303
P 4.2156217170238905 6.7255476218309775 12.526243832471776 0.8243578942047609 -0.9550866628816068 -0.01739299866546682
P 2.42685928771895 -0.3588126590523517 1.1567617942462478 0.24054881222548252 1.6049934078209067 0.7836835564138503
P 6.432857919222985 7.974468042053701 5.842739130332647 0.574017035589521 0.12695336079481362 -1.7665723291093898
P 4.688568162760916 1.4081375031076984 12.792851454532407 1.2995980314336844 -0.06504968131148152 0.5590475587638823
P 4.56418664190633 5.885271640734327 8.203103263465376 0.13440081821179434 1.1557450666700546 -0.26913202317981394
P 5.074143597250878 1.5142822250310146 3.63899397325112 -1.9563631940557147 -0.34973739283770733 -0.11678516201256015
P 0.3885093386693234 6.166686196697687 3.5819220747992957 0.19518709626123157 -0.507492826615042 1.0906064251891927
Ni 1.1041999544522765 0.21170612108640585 4.321875641336017 -1.6990718722645706 0.04143666987823186 0.2393491354904265
Ni 2.325219164334046 6.692914307974924 4.814493987397256 -0.07945737209637929 0.4481759340222797 -0.15801614363788913
Ni 6.671747244943919 5.688907545255819 9.103298595302071 -0.7476426036298931 -1.025366482243776 -0.29091826581696995
Ni 9.0595939792605 2.2843410701228377 10.002947915194719 0.16649564186381002 0.13309958290186755 0.4001184163934206
Ni 2.621903854332671 5.363093118042128 7.20176285907305 0.03475642964457885 -0.19383649577060813 -0.9430312743789695
Ni 0.710129484132804 -0.054180765208079615 9.178405268265868 1.3461262569022108 2.0101704696841574 -0.6168737257437312
Ni 1.5900049814716795 1.073413981006925 11.423025789498883 -0.007244083156923008 1.5895241085407141 0.025137161387259938
Ni 4.064949721063297 7.231909998543863 1.443014016033891 2.1236108835942007 0.17405957025399701 0.3160142895536493
Ni 6.205662349303789 7.7913174356212025 7.927425472994169 -1.6304139047765407 -0.028478309945350957 1.0920053624192485
Ni 5.726154660039095 3.1886733524556186 4.959724974335391 -0.9984362335118352 -1.9259629844973023 -1.477410126751578
Ni 0.8394733435388972 7.362952865115858 6.79286816447262 0.6948069478861001 1.250987983735465 0.41051955712208654
Ni 5.685949980558882 4.674153447437996 6.811540862939222 -1.0501701715510172 -0.024417766722732142 1.1203193788725931
Ni 1.21497667770095 7.897198251771562 11.478007372224903 -0.8892877621089266 -1.4841042509423021 -0.4907675434405612
Ni 4.838930751953213 0.023362941065991932 10.291998448195617 -0.36398927477103116 0.8144318933403006 -0.9949863272900219
Ni 8.219372599358254 7.993569359896384 4.368492321079191 -0.38758171737899055 -0.65577297391209 1.469098007341457
Ni 7.755253346716702 6.051068167545104 6.932943888639016 -1.3774106688377892 0.9571342894392549 -0.9867454274374683
Ni 2.2792631590431727 5.8742968006589225 2.3582328665111216 -0.25527017759605714 -0.44707061677324295 1.7444875813952088
Ni 2.5255236460087818 5.696497111278113 11.497173301480963 -0.3445530204232905 -1.67660454439999 0.13392207880316293
Ni 1.5200335508416742 3.812109790171887 4.01548376899209 1.2508992806764005 0.08663357812984435 -1.216071631474254
Ni 1.742833724611269 1.843836834061448 2.2370427854695083 1.4042051633228139 -1.236883940233915 0.19762938715413705
Ni 1.1885952006042686 3.42935541739285 8.13857284185783 4.0824657337235175 0.9710642692567856 -0.20142639230272405
Ni 4.0940248570839595 2.789966330711255 7.161499028298897 -0.2103674035460958 -0.24385730777342515 0.12709605702026497
Ni 4.470263487330667 6.779193295333888 6.185158690784805 0.25622354264826197 0.7300534297932201 -0.3405876080176392
Ni 8.217852866113981 7.424078902252253 13.111856202783889 0.8069515258028553 0.6213410174864654 0.40321145349644755
P 0.38748010615478923 5.611310147807249 8.032512751785841 1.4168781308047922 -0.013098999275803248 1.0639942219183032
P 8.940890982624033 1.7707895361466284 7.809844530902725 0.10219569423415947 -2.3024581050448285 0.027424414759539866
P 2.1127386163069963 3.4726541645560136 10.971550353441716 1.118461242617932 -1.2299221642041012 -1.444436242928719
P 4.084733553836042 6.415603941791005 3.580722668562199 1.341020303134213 0.43620230660017134 0.2408429464271336
P 7.46376487038562 3.7657351757239086 10.400136113714716 -1.5081407230662156 1.5521374403621397 -0.6523410654124056
P 6.623425187895496 7.838338164202974 10.337230077640719 -0.4414530134761494 -0.9214167814329873 -0.9600864300890433
P 2.797692399719562 8.776941796223959 5.503116061053931 -0.11938377597767179 0.28872331504818016 0.36273843308306564
P 7.220279944135598 4.349385543117068 1.6925733251614683 0.1453280066472594 1.6970160181768064 -1.0113727390678453
Ni 2.9139292424087357 2.636109265077038 13.140252463954115 -0.11570941244987815 -0.24874497488302968 0.21698516597292955
Ni 1.9618027145734465 1.3937955893773188 6.801525183845532 -0.9934117837140505 0.08896531158681452 0.2427008255714788
Ni 7.243085042998752 0.6366135259660078 9.186795651806102 -0.37692346633419604 0.5885427400095219 -0.7873869734073665
Ni 2.43515866926851 1.7298568407410146 9.190458481930772 1.289393580096857 -0.19899927091847017 0.616427639345248
Ni 6.456836943765847 2.5330859114338744 2.1262014508074554 -0.27350675520874185 -1.7708084786779243 2.1865520032031114
Ni 4.30472176609378 6.66082700606292 10.215813401642324 1.434181140859614 0.5864681168686803 0.20079312959409934
Ni 7.250255999863942 6.040138828465037 11.294150590344765 1.4887078111525844 -0.07243131848753333 1.4131433463527083
Ni 8.207014529024589 3.743903798160977 7.875187600287001 -3.6096095233457377 1.9047506120857456 0.016837383272312937
Ni 3.332520199115586 8.738156747798275 12.254588329988403 0.8156613948720274 0.2728457245859753 0.7397850552586872
Ni 0.31826945216682717 4.92370820646604 10.262976093329547 0.051787159874620486 -0.12786533108612172 0.2285746705827418
Ni 8.860618126649618 2.216872194236395 5.5895433816576965 0.07476665148892929 0.6629700058811614 -0.32879498625808534
Ni 4.2351416440236775 2.388429147056899 11.000119518394225 -1.0515297709027052 0.5770799907855609 -1.0365510381056857
Ni 0.8538671284039614 3.8154131624333893 12.707849225102613 0.19556530553625673 -0.5868645809761506 -0.18903521772722282
Ni 2.992700565537013 8.411004591321662 7.552933170948514 0.33357158171112233 -0.6414997518225275 1.474672416105441
Ni 5.946907289018502 8.331796458638143 3.1447767222137206 -1.326464259696909 -0.8842723111722062 1.3554817299751816
Ni 3.106453053880759 8.694739698047234 3.285346587189481 0.5230140621790929 -0.8288259572784435 0.5745829353953201
Ni 3.7662447868716886 4.214138384575888 9.196558345365716 -2.2342436528521197 -0.06337872136696182 1.29130339552506
Ni 5.366451091498035 4.631582716200233 11.130579972225899 -0.14158062378968522 -0.7827746714463358 0.8052661676806325
Ni 7.936602113733835 0.25832098078976623 2.31240244396738 0.8248813708083986 0.8125719573134262 -0.2225264075061329
Ni 4.552238080530703 0.5484289569223089 1.7455028129977668 0.04798089875465285 1.534608687449757 -2.2999109131429423
Ni 6.374443741408705 5.976956146339386 0.35143694770814327 -0.9013976579985831 -0.28983377450353953 -0.35350971539594606
Ni 8.107185345254116 9.014220386709946 11.243298677955577 2.045364758197103 0.5111067692185456 0.7640303009592971
Ni 0.5950137859687465 5.350480242134574 5.737398866006897 -0.5033523220841074 -2.04429106551695 -1.1208341137254825
Ni 7.631727244574461 6.817605235597805 2.4157979957524045 -0.9996047998986397 -1.8142912324519076 0.2111104523597074
P 8.994773261302699 1.8472312083136255 3.3825085026132684 -0.4361760813479262 0.37972545455936535 0.5634418311768361
P 2.046188860526371 3.954081995823949 1.4943455089139364 -1.3437706121858408 -1.3862534639403998 -0.5394788926033354
P 5.246819874556684 1.159156056620907 8.420110250508602 -0.7845348486705521 -0.04350820769527991 -1.0457360470390635
P 8.696769042439286 1.8435729282884905 12.361154391128544 0.2857488058008885 -0.5488585340460225 -0.16240964471989447
P 6.5473657240893335 8.113701087786447 1.087448308008823 -0.7017916067340494 0.26451329346088 0.04578774775807598
P 2.3600001251700298 3.5121763291061647 5.952354668180307 -0.5413275157763 0.10307526862563537 1.214567536124902
P 7.3389283395776586 4.123982712414168 5.701490390506451 3.5616903310669565 0.5124527417234788 0.07248608298486871
P 2.7339728058489294 8.505191651670282 9.881757834153104 -0.3072152032047806 0.8391831321430515 0.7419324406189932
