# total energy = -340858.7756796259 ev
CRYSTAL
PRIMVEC
9.41594940472337 0.00000000000000 0.00000000000000
0.00000000000000 9.41594940472337 0.00000000000000
0.00000000000000 0.00000000000000 13.78119373256462
PRIMCOORD
 96 1
Ni 8.170690250244302 8.547111666705282 0.3980357287276891 -1.160668215003285 -0.4230714256451682 0.6073089648734314
Ni 6.0913566879836285 2.6708717628842376 4.778408918929476 -0.8839239266938519 -1.2204278515604208 -0.12620465555424717
Ni 6.1945837432569535 5.639748914106109 6.095794425021876 -1.6960012037590468 -0.464724068188948 -0.5443963845096108
Ni 4.885154714561795 0.27051175715159154 12.005184120943193 -0.5795004273015956 -1.278660767060385 1.2254039646187733
Ni 9.668202871850587 -0.15605994838092657 12.32359858000097 -2.6239688989366745 3.3073292955487297 0.29607307054503207
Ni 0.5349624675569056 6.081168630535326 5.717776063511698 -0.9715126696481139 0.43307738781794447 -0.5874695615500012
Ni 8.809600093217597 4.200643427760286 9.107715648165346 0.6700155998740331 -3.1025566124815924 -1.5861497927518426
Ni 2.0940036117102623 1.2371427837500413 10.62049058244996 0.863519909116203 -0.2534997159591957 0.8716345678035375
Ni 3.9223927016468094 7.022057392570085 11.385677725274626 0.4248089771615651 0.09187939990981596 0.18766687662478648
Ni 1.6130086591856532 5.456938252961202 0.1437721341757191 1.4920471599384624 1.0326874413852214 0.41333440086306233
Ni 0.6440613089898998 5.268346198772619 11.700453861413713 0.5095391676211096 0.44570716076681305 -1.1819849742031903
Ni 7.029646647933608 6.773598730935747 7.729871271398451 0.5502034781096912 0.9149987937217855 2.1560456070841383
Ni 2.1159427742375674 1.4747071917173864 5.565672697145351 -0.3041435062579923 -0.44111825584454994 -0.14074244415910597
Ni 2.360070099063939 9.188441408721289 7.943838368117006 -0.19558458880996638 -0.27059729487143075 -1.0723155972998049
Ni 5.161880056842901 5.023258447088828 1.5187700693838149 -1.5498761551317888 -0.008744836072165585 1.0602905478144706
Ni 5.9184233579508 2.0548991730939967 2.3045602514900234 0.4344876379019098 -0.009289909942358194 -0.431710846487721
Ni 8.700186759068547 1.8714953071253897 4.905044024864983 0.11182010469780096 1.99724707675427 0.5119112673977119
Ni 3.8943990835379343 4.409272622660502 7.434402539878351 -0.01418297636860138 -1.6659853741232469 -1.0943540651570831
Ni 5.562717030571394 6.390313087229098 3.7581587674332844 -0.7361988805693256 0.18325923447539408 0.4657630509764237
Ni 4.477914895117179 8.043819745569232 7.261049258494142 -0.07871509461371604 -0.5399128948169605 0.5324968048585474
Ni 7.611034454907199 8.394931089552362 2.6679151547153217 -1.155731696933616 -1.4794528682132198 -0.3676109306840185
Ni 3.5054356222330165 1.3602374926425147 1.6230667765297164 -1.5519785461867721 -0.26834783671562173 -2.4742463627661455
Ni 8.963287222303725 4.529551962627798 -0.03939539145836604 1.6430639894403833 2.673454921481944 2.238994023052912
Ni 6.415406592866552 7.2773237857525945 12.442103013471957 -0.3998127122275437 1.7337640243301173 -0.4539125793957408
P 7.933107010377792 2.4514330578632713 7.425500701143023 2.6475119763639374 0.9617828439548597 -1.395597109938829
P 5.523000555232264 7.637163714998733 1.9683957858742103 -0.26929374556865876 -0.8270084444537306 -1.015085154922426
P 3.701212045953074 3.01211519170487 5.412619261466129 0.07023173973305323 0.21393352363079932 1.8992227402889805
P 9.068162068753994 2.6058640469664196 0.987284912007739 1.7254773588412928 0.5922620978426381 0.6812675186387687
P 3.7562953510109005 7.344836144259367 5.320340130772416 1.338488537851295 0.371798743513121 -1.3750218568906383
P 3.1053613404207088 3.9885303315145313 2.1656872358820975 -0.5463928461143492 0.6157570956407847 -0.2931360994038952
P 5.685472765278897 4.664962733574226 8.452777975812662 1.8638836986680545 2.87648105417162 1.552929340135816
P 0.8708096156717876 3.7753344010667855 4.261930901998045 -1.226303079394275 -0.009613611830364088 2.6338306222221024
Ni 2.3352496559643785 8.693812161201171 12.308728912420232 1.9018614634634086 -0.6279472099490733 0.7008588105071348
Ni 0.9785148965665665 7.711926354684056 3.003460050848604 -0.208644250207402 0.8633587009479906 0.19104839150250968
Ni 1.5048570622806616 2.0655297801726777 8.170608331482933 0.16112949245589026 0.5670290343074622 -0.15429627158414072
Ni 0.46150864486355414 9.569900358208928 9.338770810186286 -1.5772640602264385 -1.057961899681294 0.5575596613644461
Ni 7.635798402309264 4.215746610890671 5.169974007104049 2.6681751611402436 0.2072550831693592 -0.0035650916434390215
Ni 5.843011017744281 2.2348191377170656 11.312485665979668 1.3605588873877728 -0.0026790894940599023 1.2050860789970277
Ni 5.886249058227279 6.306831278230348 10.338624131696792 0.821288768361134 0.3809279595078988 -0.30355369519279335
Ni 7.4098626920763495 1.7618559901863582 9.306591802487974 0.04461121095147155 -0.6870337316985845 1.54913490609039
Ni 1.8250464278347471 4.109610027196342 6.517499026215183 -1.0058890902454547 -1.1897692461342995 -1.3221949428975937
Ni 4.298192665435343 1.1916449153672346 7.518578304361335 -0.960483922637778 -0.15954749268075102 -1.0590147664258407
Ni 7.847299461832154 1.3032804136177636 13.844449574242525 -1.6066905930176716 0.8103782920962173 0.14006907224116522
Ni 8.327889528524715 4.2819501524054715 2.2397191978798165 1.4413601751065561 0.06719115313451654 0.9406568606095218
Ni 3.6178997240468087 3.183683209048231 11.20649502950387 0.6599186206493474 -0.5022570321373996 0.8359821087072505
Ni 5.175128297905528 4.833875453135312 12.847918199744736 -0.28742927882710495 -0.01701170406664812 -1.0197265103491795
Ni 4.361270111688741 0.14541521737787136 5.168857275483559 0.481707490120822 -1.0856010015548012 0.6256126482786257
Ni 6.457251072811336 8.099995300778632 5.716563289205467 -0.17889452974879516 0.16689493418475773 -0.4072462856874535
Ni 0.9354679998600935 2.0663866315846886 12.929130764894097 -1.4135051005675012 0.3528376290295859 0.3165357092747581
Ni 4.702306389618558 0.9455214092293657 9.788519875616213 0.37937552741911434 0.7821689195415368 -1.2245477872660653
Ni 4.131699844916969 6.1258567272540345 8.988135913252034 0.12686157241195573 1.1872585638973037 -0.2323243674331612
Ni 2.0871393844645945 7.3794209270760165 9.52338368408129 -1.5270437306183056 0.6464725224467706 0.46995806289437775
Ni 7.005814879540212 6.091610918622357 0.5895184794381104 0.2914605114736851 1.9474221828123428 0.7808435158618939
Ni 1.9909837073277523 5.332111009345542 8.763337649728689 -0.4962468213875777 -3.2385126909956483 1.209953177281342
Ni 6.700822856612338 4.218609059563761 10.755408899233224 0.21166838174570643 -0.10734484253526673 -1.029785180136762
Ni 1.0190223116706298 5.2713310547902825 2.8019097668445374 0.9505512369050985 0.23834023460993795 -1.081403418533686
P 2.858343319072499 1.3981743535105462 12.87167652373139 2.6201703511261907 -0.6932390891783481 0.22824736915031013
P 7.29502577096776 0.24234206078552312 12.154723524238214 -1.9385755310549906 -1.6646103481525913 -1.4467929160863535
P 2.2278795828747375 0.29483597970815284 3.174705101121284 0.9516686383389934 0.11728935534248833 0.9658580424654978
P 1.3374697265519462 8.439732177666059 5.600856334355451 -1.0163398532651335 0.2696945805515033 0.5813961016624116
P 0.23360500116788938 5.798774886605534 7.837048317521649 -1.4293464384751318 0.3517397679797168 -0.4525573509194271
P 3.3817947882647563 8.825757862701227 10.221359778785825 0.36590937461187956 0.11520419067868545 0.5830089546754863
P 9.26185756761631 1.792222427590032 10.753947543858015 0.3510491696705954 0.26075408352876384 -0.5556675865480559
P 3.2545853094047157 2.990693906404604 9.097021012629503 -0.21642337993218855 -0.6845513315963629 -0.5807906068679288
Ni -0.1674739624648749 7.940818673085888 7.32564173103537 0.18747970031464486 -1.828811794665586 0.411116310165821
Ni 8.22053828733424 6.000718757302152 9.945267188316663 0.28992530577608133 3.331684327354327 1.3900018752392385
Ni 7.87949259345484 6.524961166259341 4.377748023458176 0.5778081272008371 0.017358031662473333 -0.19275149023654545
Ni 9.269974116156455 0.6459473236912815 6.977486995221158 0.21530315028481628 2.2695230448797044 -0.48995841727570455
Ni 5.8632741412458955 2.8462626557581077 7.5283219289893415 -0.5005696171326476 1.880214574617594 0.23218475653150333
Ni 8.55690425427112 9.0706384634942 4.717274924669914 0.9896947398737793 -1.8604386775422472 0.9648324294144608
Ni 4.5568864642658955 3.9909313986580774 3.6931811825541305 -1.4698361710590622 1.697694789411386 -0.00979744570639603
Ni 6.835386192096339 3.860878303024111 0.48250997881243907 -0.8303344235031701 -3.120804502948187 -0.5747490286595393
Ni 3.9627682934567168 1.7380336377425458 3.636995269800189 -0.6941461743736497 0.04757080780042775 2.006951448526227
Ni 1.3146831285622127 3.4512374164359483 10.341408427988348 -0.18225007648458935 0.19555553534424386 0.2031310336986566
Ni 0.9106296664563259 0.47429173801680297 1.546622448248952 -0.3701167278250077 -2.756314120171021 -3.4569883254711753
Ni 2.5598953811044862 5.618497115898329 4.589261323715524 1.0597045934040137 -0.3738864792800851 -0.6671562760483671
Ni 2.726341121874948 3.445785581627661 0.15428504188461886 -0.1954992281850117 0.33800622044370815 -0.36559621424683486
Ni 8.317550815883092 1.1901854431819419 2.601310493748306 -0.7412259014702718 0.5686375164451626 -0.6203110335600542
Ni 5.334653315732827 0.05049585442121595 0.817440013437982 0.6456433416772558 -0.23885496946282736 -0.38082305849891834
Ni 8.461944402731259 3.2277781009432402 12.224966508123922 -1.825800775753404 -1.7775707371024227 -3.365885141605752
Ni 4.7125226949156085 2.4194753249801493 13.748228927053564 2.0653178042802622 -0.45489782612714563 -1.2097747427219487
Ni 3.3289713111067383 6.909414387714224 2.4553265530156496 0.12760950632157378 -0.3912437396116101 0.23739715397037822
Ni 4.265509904434365 6.858003302993586 0.12257871485535048 -0.22020547268244012 0.9825766407717592 0.08621217432170958
Ni 0.984654095694379 2.1427405667494606 2.859969453565403 0.9813209139877875 2.780397643482786 1.6796201912978623
Ni 2.6941291583530975 6.369211944214639 6.8788276170903195 -0.3206898406524477 1.4750295423345436 0.539384018896684
Ni 6.586287245890389 1.1555441646677973 6.3998486193713315 1.1486027991983185 -3.4174434732990173 -1.284711344129839
Ni 0.03272419117914036 7.124399348582652 13.057819489433554 0.4454143121167426 -1.924516996079395 0.8090359191357099
Ni 7.314008325326149 8.552186863530268 9.99634024044729 0.05118912127930539 0.30654723060347855 -0.05436237680096444
P 6.699523455569948 0.5873932996173324 3.9508618252096017 -1.0026011635228023 0.4178718837220997 1.0993654023287454
P 7.631862535383766 5.528273486998484 12.259860134086878 0.29471064297986665 -0.5859132728064748 -0.855907643986584
P 0.3140209769825669 7.73411974785009 10.992031712242314 -0.16644113447679076 -1.9254469640928324 -2.5202657669190534
P 6.166128743618534 9.165579483134895 8.00115419482085 0.48349980613455434 -0.45044416123116615 0.9795399108279647
P 3.097932156200089 5.107041566474221 11.990466050150733 -1.1469169268554633 0.13842562310047127 0.9387691566685058
P 8.887969041593031 6.541486157776689 1.6722924193522484 0.3442576006700587 0.1783736242483186 0.13018678013044677
P 2.023694716177477 7.5640676983895165 0.7613652088891144 0.1868235547878847 0.28444448516716814 -0.4228315417202202
P 6.5690560581543505 4.316544351171703 3.2462295957451746 -0.7555310052390343 0.40011790217278836 0.561564154538149
