# total energy = -340893.84509372554 ev
CRYSTAL
PRIMVEC
9.06003952641531 0.00000000000000 0.00000000000000

0.00000000000000 9.06003952641531 0.00000000000000

0.00000000000000 0.00000000000000 13.26028364974245

PRIMCOORD
 96 1
Ni 6.439413858206875 2.0481487197895167 11.533276888751374 0.7363708873708157 0.0017244388902744497 -0.17952033625825212
Ni 4.664805844358532 0.23118955232690297 6.107619817707214 -0.18033100508500557 -0.5672123539628617 -0.5314675922630846
Ni 2.8327662415143897 1.6027028285499945 4.744410067484225 0.3673311946600706 -0.637699918460463 0.28208395535479164
Ni 3.596926194545067 4.071980294151566 5.006168192341781 -0.13895321346916714 0.44398092210432566 -0.3603807314841665
Ni 5.021173429397285 4.714128698198746 2.077422612707062 0.06345122647611008 -0.3596466815316193 0.92282985973043
Ni 7.145779820670557 5.998597647039423 2.608960621200671 0.8250742035454951 -0.5311050667173434 -0.23298436961466323
Ni 5.2352259174261055 4.646441144738011 11.550541699603304 -0.354529414909712 -0.20362982771194607 -0.42989153389079515
Ni 5.573863005593937 8.025545874913787 12.441606528832596 -0.6924505318387816 0.39180141188729295 0.9346564200517129
Ni 1.8462366843958706 6.448274576622697 0.49634337990659694 0.3957012611623314 0.08251338531388369 -0.6171963991904725
Ni 2.670808979345458 1.6749294616899992 0.3144929894906119 -0.15811024601359222 -0.7366747917644797 0.44330497908322364
Ni 0.45562393936665246 9.140854830357949 4.753466482748493 1.5746885861897784 -0.9018727978627887 0.4656360384802561
Ni 8.40046842039794 2.1860968778665004 1.3644835917457545 2.265459673443608 1.4324124789949655 0.9812671779317164
Ni 6.975713823346044 0.5473205969193353 4.873100677424924 -0.8587571976202372 -0.32778659959822903 -0.6528773975318498
Ni 0.8205360474503559 7.276543367598517 2.6919569230327887 -0.0791660661082056 0.20465569787329912 -0.45566221509699584
Ni 7.384457495462364 3.6257461794946853 3.8288541400732887 1.1858783957203254 -0.09882472087939755 0.06576856175537706
Ni 7.726908860167067 4.181190007632451 12.676141047661668 0.5031502333756301 -0.9873594068723833 0.048367592670110246
Ni 8.143552886535533 8.867395664770296 6.934093814901668 -0.2584532033097291 0.08178910555334946 0.2230239159678417
Ni 7.087279147039723 0.815366389037199 0.34049892623986794 -2.0985590828318954 -2.1662456875455915 -0.4945411515503805
Ni 1.8478131312305874 6.61902913693249 9.01131710674457 0.13598564620041098 -0.49001832397936257 0.4062823791122874
Ni 9.213063343419394 4.8695083718504115 1.4351075039371308 -0.2648336529147762 -0.7731124657662233 0.14242008897184505
Ni 6.311649184280591 1.7221141462601377 7.095352548042114 0.5161528162828852 0.867454725394235 -0.09082319073115971
Ni 3.4733291386875726 4.141851317078776 0.2722750184537586 -0.9951508778923441 1.4184984400170344 0.03732727569554862
Ni 6.276378451363627 5.68866276331057 4.854284787848259 -0.9299862682695532 -0.4984402294944706 0.48336559454953526
Ni 5.327520537571266 3.062202676240617 9.572505905789772 0.33561638005529293 -0.8695622586555412 -0.2999911746525156
P 0.2055487351606301 5.79574336756066 12.44640653764313 0.3158325125601464 -0.07212201477723064 0.25266385032146166
P 3.980310816716723 6.1712819957158525 12.615754073852742 -0.11679493220457304 0.16451460687803923 0.27726853624401926
P 2.1769099980366 8.543752941610833 1.3072839397555256 0.33193250344580255 -0.6777661903537295 0.013606535039841083
P 6.536736800152426 7.7470946276828645 6.006377502769142 -1.5796158482880664 -0.2729169441435429 -0.8298759958095128
P 4.6348986546953155 1.0384345221535274 12.755146402190952 0.7667669831641698 0.8411567109296546 0.9456951943643777
P 3.9617739763498827 6.1474359723309435 8.233813527862338 0.2626633847363347 0.06490004310749467 -0.9818438763707927
P 4.891388366711564 0.760562211432597 3.8125705314753797 -0.6589950803938135 -0.3569393099027853 -0.5040789158374867
P 0.09663981498384024 5.413047308374282 3.6424673879898175 -0.026831518370547335 -0.27922771685291914 0.1876697048382639
Ni 1.740125504348739 1.0425115398295188 2.7152684041001787 -1.239817568940942 1.396601639943943 -0.9333502996457798
Ni 1.7146577339327138 6.4673550193463365 4.8139069107891705 0.5723584169401755 -0.25512233916428323 0.09815392006461805
Ni 5.9366179183250765 5.534515255000982 9.299927376020134 0.344873894097819 0.8005175972520536 0.08626153950240628
Ni 8.771060267106263 2.4509671262167307 10.264161988478477 -0.06169233480347439 0.08340195856642411 -0.8849179151760052
Ni 2.318744912964695 5.175067256607034 6.883054989621827 0.9306429280169456 0.8664026299806368 0.7666255724902991
Ni 0.6637339476317331 0.030808663571573764 8.912713981248759 0.45238020191161443 -0.6614530550160028 0.823460579201472
Ni 1.5623131734398412 1.1645321488522964 11.413550281674286 0.12068578261854698 0.23454117257882187 -0.8526891370492863
Ni 3.9549789468898973 6.901249360503883 1.621534120193434 0.38466865749725365 0.02840811882904785 -0.4100235913222745
Ni 5.71634118331091 8.001074708818559 8.12444254568227 -0.5297385253871201 -0.3444141808525811 0.10898880589659293
Ni 5.3884493017291355 2.4445616784457846 4.9701925883688345 -0.6582569166762082 0.8038746866497446 -0.26872810287317594
Ni 0.8300490886943356 7.346586531272045 6.92690648574086 0.01198828271012774 -0.10144261811821885 -0.21486246320297187
Ni 5.079429481967559 4.256959116130928 7.402804981008252 0.4429887333943855 0.7757275347915672 -0.8139426124087078
Ni 8.07974302988663 7.329381516679363 9.199666263336086 0.05164600631106589 -0.30855500506212663 -0.1452840407832014
Ni 4.564583689843387 0.5097096558563522 10.723113680272666 -0.28821063707781974 -0.5033811184395137 -1.666333758601601
Ni 8.240051364906606 7.156987089259893 4.689962855427253 -0.09538047108453897 -0.22285910825520328 0.5090236614372717
Ni 7.233653141647089 6.047757420172598 7.135345373431805 0.10750065138684067 -0.7692781796217978 0.15714582521779388
Ni 2.38627844575767 5.0243535031845585 2.7052171965229683 0.25781711238762695 1.0773487888483382 0.343342287944641
Ni 2.273218215582793 5.571009093220743 11.29325289212256 0.366224334749137 -0.5381989974496474 0.8991307163412774
Ni 1.0708785228151376 3.340672043550098 3.97898623897399 -0.2455568069630352 -0.22326997054037678 -0.7408065545446662
Ni 3.7909016355294503 2.6989675814276377 2.6487151675572975 -0.696150092177556 -0.11521164687785318 0.3300885082585283
Ni 1.1218684238828682 3.5804097429376625 8.178040832058707 -0.9239819710570022 -0.8409638781925581 0.5583320207540965
Ni 3.6611165728437287 2.4980793304726294 6.925726868626606 0.4740610293191578 -0.5434749011366059 0.7136955572604871
Ni 4.080052789150028 6.815487028679588 5.820017930803512 0.1428044688944573 0.016120816821262558 0.5935471352026488
Ni 0.7677477285855494 7.622926789350732 11.257450334899861 -0.2826598824629196 -1.152198744079693 -0.517627858166515
P 0.11739545897034762 5.524875373207082 7.996799276282336 -0.009484285341351407 0.7009362007122896 0.273509069201587
P 8.574221853709407 1.5595045612630474 8.068086383349007 -0.5474372282184636 1.8611153918942982 -0.46334081468817623
P 1.7674596428564402 3.3122778804466386 10.461660878738845 -0.06585855036602206 0.9046429044087583 0.024863081790266854
P 4.180220583429493 5.808599563298952 3.8401248289375842 -0.1827748386398078 0.723518971108812 -0.6200575227883515
P 7.1549938806182976 3.9911013234991795 10.540559324804626 -1.0668304058155174 0.6930907365259418 -0.6004975983785529
P 6.264908441635171 7.859321334243983 10.359503499833496 -0.1316196559222314 0.36701057809585824 -1.1683275313207557
P 2.4298753547729364 8.513148128923058 5.829061662012789 0.4349468369265154 -0.6119963430467719 -0.9590639023617998
P 7.042658453585819 3.907948282987518 1.592520250403224 -0.5283452445840191 1.366855261919446 -0.43739375580511125
Ni 5.436213828813193 3.0134506048750413 0.2242948624348378 0.679230947824714 -0.5000402269917388 0.22628458899698448
Ni 1.5914140196071387 1.110298753722333 6.9000942054956855 -0.874800624236345 0.5721846103664726 0.44050890439532525
Ni 6.8090453407515215 0.8943826156136211 9.244074951870838 0.3648698776037716 -0.420435787794534 1.402249839368656
Ni 2.616466863744135 1.8422774472305192 9.120104622395008 0.6320450341675308 -1.3845369954699254 0.2960388748729869
Ni 6.0705434189617495 2.123410466088315 2.4037045253087843 0.7553523135693249 -0.9725333976031445 0.6378554702017208
Ni 4.144931730433969 7.003220102600063 10.321897088790154 0.050103601524610485 0.23130338236781456 0.15314364603693625
Ni 8.448622529171036 7.274069976875081 0.73212184212881 -1.668950370288842 -1.5675211219070617 -0.10253302296892018
Ni 7.610351454830119 3.7022853913319604 8.338994241875415 -0.0319338725941192 -0.0457653791605728 -0.6548414632367561
Ni 2.962578484317951 8.382339281798698 12.357417019827306 0.4072658260714792 -0.41955467074116126 0.5437471809613861
Ni 0.1762413200977491 5.102867803584869 10.21149235612824 -0.8482043618050554 -0.7964372565350929 0.005795009415222278
Ni 8.622611523503782 2.1526109726876923 5.72215682252473 -0.17196180718470383 1.0575289259089335 0.7014529924477081
Ni 3.593184398322435 2.7690107451011667 11.489968994989137 0.48345095517448994 -0.09473923795611426 -0.18006900967287054
Ni 1.1819636644269789 3.5303530259157703 12.635936217352826 -0.5878313157647941 0.2330892706236437 -0.03832974881813399
Ni 3.168341036405588 8.431979237013712 7.955599653660553 0.426504105475801 -0.0020537972052351726 0.5808615693151803
Ni 5.503339659838569 7.655126168951782 3.5245437287294465 -0.07819830287829757 0.7280271433918107 0.2748848665031911
Ni 2.873581718470702 8.194642448035342 3.588603642462477 1.4682428584300131 0.1578395088507088 0.5930408849901916
Ni 3.3589370827385387 4.295120001578206 9.338408986857923 -0.023832069422591216 0.7921144607900229 -0.31306394867607373
Ni 7.253521807788086 6.3579369249620115 11.500551120868156 1.1478322395808813 -0.8166378998526839 -0.4594471360607249
Ni 0.41853938658583617 -0.10045952754428002 -0.10495874305071834 1.6025189781384852 1.720011450630715 1.2084524243660995
Ni 4.366386270554533 0.3677352163233454 1.6762458853973803 0.04768290789825981 -0.6439417856051168 -0.375147862491012
Ni 6.109990829986784 5.795960808503379 0.20074510233438442 -0.6318354892598861 0.0588792908347115 1.0951567635640365
Ni 7.906814060149641 8.896233769798474 11.409585608485367 -0.7629242123793119 0.6490233138930822 -0.7348439092033279
Ni 0.1114946553872963 4.802310060510796 5.832800740223636 -0.8720965950416206 -0.4287569060657197 0.16197332851342428
Ni 7.829033622931009 8.642371469173419 2.7343098886549133 -0.4391881287013726 0.14298933121175375 -0.8093318531095739
P 8.620681735137147 1.4667659991931667 3.4761431868879344 -0.3525051853908316 1.3440588328502208 -0.07680322230298385
P 1.9030340706420688 3.2780762321647123 1.6185896074274402 -0.5712047629517065 -0.7240727867297531 -0.14131605727438887
P 4.695184156064306 1.137841273133474 8.567521954661862 -0.07749742015653105 0.2565230761665518 -1.5826862596832743
P 8.679046508178782 1.818204922863611 12.311575939082386 -0.7600643743330135 -0.67577178563152 1.4216138457175644
P 6.258566414139184 7.6428407556881295 1.3233945016031867 0.3433690274175183 0.9681733208622357 0.5948069757516788
P 1.780977221462171 3.2109232210214973 6.099464876351303 -0.1956370393144566 -0.581606932121637 -1.1040170421681437
P 6.729298875009133 3.7738778217223667 5.985611892739428 0.9690248702292537 0.6293039810872839 0.8662311373997791
P 2.368955650654347 8.471625968902908 10.130299908116765 0.8388416896432328 0.8378230185707313 0.3273091457411782
