# total energy = -381170.65604464867 ev
CRYSTAL
PRIMVEC
9.25401566912061 0.00000000000000 0.00000000000000

0.00000000000000 9.25401566912061 0.00000000000000

0.00000000000000 0.00000000000000 13.54418734199460

PRIMCOORD
 96 1
Ni 6.558219016071128 4.482932000037185 2.1423379110003458 -0.10382114565272442 0.10796293573523986 0.2918428345137684
Ni 5.016971982594341 6.145397383017795 3.5019711879802737 1.4681359005385037 -0.999551320952885 0.36255151388324014
Ni 2.21389366072959 0.9431507553806214 7.736195968082733 0.5939145458443965 -2.215416235732972 1.2281576161045107
Ni 7.915579506835456 4.56989198402737 4.4031068620251235 0.3502217886732936 1.238749018467112 1.502897472389405
Ni 7.6694782176756195 0.724881843346344 8.426705621524347 0.6686868537602807 0.7822139138468593 -0.829750525975242
Ni 3.1180202325956206 2.73530191208034 9.068794564076288 -0.14868895269969232 1.2225837215611588 1.1750612505001634
Ni 7.413752752358521 1.6492599028109827 10.827792284717347 -0.2670232043669273 -1.2255875413844892 0.7909291822326702
Ni 2.4869704051763684 4.463035866635153 10.809994962038841 0.32068289867391225 0.1757816951514263 1.4237807714618964
Ni 6.077556195124633 8.420719198874218 7.332132335332508 0.19848582161716138 -0.498093130567697 0.9177406181329807
Ni 2.3348714058294826 2.838188056807687 6.731907633663103 -0.834503210168879 0.9875393840936735 -0.6487872866228761
Ni 7.557791504173699 9.052722189893661 5.555934176015006 -0.06956428135238342 -0.5630201702583851 1.4042648129161557
Ni 5.0392001279114025 4.9101158652021235 5.591527895970464 -0.0611850561497527 -0.926292878578366 -0.9025775372392972
Ni 0.15522778199954945 5.133887214874005 12.397278872003268 0.2910789597645503 -0.22465990890936793 -0.7292977825741181
Ni 9.050140319559164 3.4161105810357446 10.375808583317939 2.3882882134367707 0.11812753497306752 0.1277707144897864
Ni 3.278197987505285 7.239073955104212 2.640412162177503 -0.7543716948236104 1.3485266388135873 -0.2168545539323362
Ni 8.894543302339736 8.38725667869666 10.565603814950025 0.7399583476117579 0.849923401378691 0.9073163374758632
Ni 7.202511339722151 0.5082185030075329 3.3915319157725827 1.1932469202702547 1.1027515451921588 -0.9666967363167095
Ni 2.2188538130567945 5.300505764596607 2.919828832667877 -0.17303524275454069 -1.1258907023127835 -0.10216946898191437
Ni 2.2252853538541952 3.7194109402225406 13.45422625642798 0.3130387518650931 0.3711197151682254 -0.06559784050546767
Ni 5.642441638645488 6.493265081025144 11.232735974345028 1.6617826488958092 -1.2187098404280496 0.48042193854017906
Ni 0.02334047798446794 1.259129115851503 12.624604689042462 -0.4536467273288639 0.7732813872439198 -2.0818633673437694
Ni 4.664171894306397 1.0707728836352395 6.593107580042757 1.0824650270289808 -0.22827590839540043 -0.298258508232125
Ni 2.081357650225447 2.6284272866570504 2.5683705766326272 -0.6801210637391513 0.10995322669239127 -0.11511960138467915
Ni 9.183518445477068 3.290441050059187 0.5225011505855314 -0.14550464143443972 0.6229818955239981 0.626718736858611
P 4.051500541741301 8.578268813371707 8.261954532136876 -0.2458285725671831 0.07783526311192401 0.9513979011761099
Ni 4.883010853697681 1.470157686130548 3.65151330283461 -1.7239254409731406 0.5763099453887558 1.2915255388381952
P 5.046251687749705 3.692648327292923 3.4725267613483726 -1.220106206554944 0.44165175975051685 -0.2640245267499195
Ni 6.565187289769607 8.500997783647536 9.9352711737348 -0.08793815587388082 -0.9607106939366035 0.7255773962997376
P 2.2041584363858977 2.532574193736934 11.623756997599054 -0.44318130902116576 -1.6627241868734717 0.23353509991181073
P 6.872651955947526 2.1179480276541147 6.656128351243306 -0.9499511414272543 -1.2549366839705678 1.4574136290249933
P 7.3562112837567355 9.042727853114966 12.0973432728653 0.007221714559419821 -0.17139256494479516 0.29337366933599796
Ni 4.843995924198626 8.713904919080354 11.939390183290449 0.922815975773359 0.8708334120584809 0.47893301269947836
Ni 6.114192842630981 1.9744830248021576 1.781615460012177 1.7789982135775686 -0.23657851472382485 0.07764243037482757
Ni 8.689844478687197 5.071135735525548 8.595371159483474 -0.0697915668718411 -0.8308972379851755 -0.7570127319908834
Ni 4.204802563107844 5.519353978003426 1.2662611856249666 0.5199066268983626 -1.2905001828974743 -0.4937937318613947
Ni 6.949256696553118 2.424098623625946 13.202223681560945 0.017095264919389914 0.22915419723529565 -0.024772064738357337
Ni 3.94232166644959 7.482306499447942 10.276773959856605 -1.2614567444772726 0.28543153167078583 -1.9999621616925878
Ni 4.545729749463321 6.5431904948409425 7.3682405785517595 -1.0316024358511586 0.042827379578171405 -0.16158020684006366
Ni 2.835532154348904 0.29292753317268516 2.9222395037149616 -0.7939183467679811 0.18607510665763438 -0.3678415586375859
Ni 3.0366034039113967 8.275403392915095 6.387980295470911 -0.47714455334048794 -0.38737294380229415 1.5222751055850687
Ni 4.884139843593052 3.1390175938464164 7.775812408591616 0.9165429982804538 0.7816757819552023 -0.940701083583896
Ni 9.110532024945986 8.265372040074258 2.2831164731422517 0.2548896543281868 -0.7460521192143217 -0.12524357719255852
Ni 1.440702154680004 7.952151376233053 4.572558065903243 -0.7134608155418616 0.7139182147942543 -0.25420934043171056
Ni 8.07708983998228 2.868282115330203 2.8783699176658097 1.7343458649755161 -1.6434349996265567 -1.409801940684301
Ni 4.938470168803905 8.090406368338337 5.125215276915379 0.5310482453374791 0.035075503546894427 0.5026900059097601
Ni 7.968216347203252 6.309026885722324 10.732820174076242 -1.5848853242171221 -0.35610575825789637 -0.06718523959724558
Ni 8.974969951361626 2.7872632093140197 6.6502502005749475 -0.0944823847503018 1.5300953729604359 1.7987591982545794
Ni 3.0940245703112157 0.8226681001118956 10.133868824944566 1.6937031517534893 -2.0135499276793514 0.222536691918778
Ni 2.01396990909354 0.18690612798179937 12.105062972625287 0.387804632023074 -1.7831194348347936 -0.11549883910096884
Ni 4.348387868161767 1.7988140478855155 12.048299766730068 -0.2205309743426589 0.5896753109520683 0.32120971771165974
Ni 3.6745844889669845 6.334567968601213 12.489013928009943 -1.7923728351122614 1.893199931133669 -0.9320979152959173
Ni 6.444394624980432 6.000562785866536 8.558558685681945 1.3710106788487162 0.7999249579733773 0.43524688466543754
Ni 3.173303721406663 6.45029868689229 4.968630856238278 -0.02946329956643958 -1.2115138369002425 0.5437957748111344
Ni 8.367656673791775 7.494216417442554 8.38861979518509 0.41330560450765597 0.4431124034564433 -0.8045148913369049
Ni 1.1684490176159146 5.146916868748452 5.123156258458658 -0.1354894232902828 0.9855395800548253 0.5922135039928897
Ni 7.198448826901923 4.151814070149687 11.419361705656092 -0.8559737213378291 0.7866166709002452 1.555590946128379
P 6.253558316600565 4.7559717284218195 13.625452380485871 0.8464392994848325 0.4833283135536966 -0.7796991178448056
Ni 7.184003308650493 7.02935020101572 13.358970047509924 -0.12720661445620027 -2.0969295176482725 -2.840372224264205
P 3.3516193467665523 4.688907877833667 6.81450064772193 0.2635064494629204 0.8788223438012285 -0.7521669738628077
Ni 6.635397505639943 2.8182919234056545 4.612310540440504 -0.7645715181747477 -1.6906455958740882 1.4018929702498695
P 0.8822852443983669 8.948716309286478 6.688945866538017 -1.199710416507411 -1.4900640680701627 -1.0885292309451897
P 0.9484810683292589 2.5328055441253294 8.610527386128053 -0.7551995900415445 1.9148573615024442 -1.388713495445118
P 1.934672249967021 7.220667718203448 11.221697784613891 1.3560008357034452 1.936176948915827 2.085369323614499
Ni 2.2547501393202753 1.4544443677507104 0.4738648211338748 -0.5449864526851259 -0.29568637662957464 0.11523967190231121
Ni 4.457520473375799 0.6704108570993472 0.8531582304993451 -0.6647288975537972 -0.4338464047734851 -0.41052161400461556
Ni 3.1682417749085645 3.6219291405681178 4.744203396864906 0.36564557942753156 0.09106795975211412 -1.4006531843054975
Ni 8.899762567101943 6.349624251878006 3.508066808013724 0.375139892071212 0.8682715648685755 0.10822775936085233
Ni 8.752558941973511 0.9792969400635696 1.1792669617772986 -1.77552208210351 1.0121119312267148 -0.6258931556335221
Ni 2.2447187864794365 4.873377423524882 8.551786597112827 -0.9789241316208366 0.39137563720378404 -0.2552164415399863
Ni 2.3969010719661448 8.156322721000048 0.740314765055446 -0.3364386188462722 1.5638783829481517 -0.40777336183551705
Ni 0.0964444245128564 8.126783903409683 13.39037910164008 0.18029346697885076 0.05523449499327261 -0.3961704874892661
Ni 6.613308170555918 8.941248318749064 0.7165671103874016 0.8298533701016934 2.295073639655299 0.11956401030927793
Ni 7.1072690118274 3.1743956952398906 9.169455118067269 -1.486613133407085 0.515200479671945 -1.6089400511734806
Ni 1.7707836348274892 7.893906602450545 9.09016763835784 0.26931919948995553 1.3661443518953504 -0.5144484319972689
Ni 0.8256404899020039 5.983498381218467 10.165603620421583 -0.522128831360662 -0.9488854191669013 -1.0014241124955656
Ni 4.1039060317207 2.8452488706615244 1.418983905618967 -0.6181407653816128 1.896991794075933 -0.199916640526417
Ni 1.3426558600778957 6.632084568078115 7.126829224465482 -0.6883755904384596 0.08961811467946502 -0.6524207696104054
Ni 4.6765445130778005 5.029233553179314 9.468469942659421 -0.9434619341584848 -1.2029800883976187 0.967853732739288
Ni 6.73277751112347 6.327331328452194 5.993911924900936 0.9992800695693693 3.0063261346919323 -0.9831723653742295
Ni 1.9526620561686727 6.002996591952459 0.4671380772408807 -0.31631716550604877 -0.44636793427926347 0.4342035310025877
Ni 5.20844681804618 8.647072418880597 2.9050113029919085 -0.5016073143685426 -0.6892086278627162 -2.494718771687884
Ni 4.472789599009917 4.349609398212497 12.524526212628686 0.8673287413393321 -2.081278441374577 -0.36247155257492414
Ni 6.926565850459266 6.8673401510299605 2.0098759326204894 -0.38829108474118934 0.048293030678432956 1.0515068880845697
Ni 0.7517860427136597 3.0849278730394962 4.438958769014032 0.8250546631614695 1.1984577750472327 -1.0649591569347336
Ni 0.8468220060619629 1.117986870899039 10.086667793302516 -0.9595038181126958 -0.3540468188463386 0.802539769888405
Ni 0.05417948475761813 1.2337175891901166 5.110195084299176 0.12560841673114498 -3.6715731095327286 0.2072129170775141
Ni 5.277130121353102 0.9793432101412488 8.935736627095926 -0.0722737098637465 0.8729941671552256 0.7784613887829626
Ni 2.8817929780125136 0.9035222846515409 5.210109764637968 -1.2784936453549012 1.5031808079577789 -1.5425580242038208
P 6.797527857827666 7.716812507141384 3.9785918549407184 1.066781554855453 -1.156941143860685 1.1025862232588883
Ni 4.67962610025123 7.688125058980314 0.4662450647416732 0.38996358734760583 -0.6897704139034572 1.2707602812663856
P 0.40907283135976796 0.9605020345103008 2.9738704325940115 1.9365646712725486 0.6178887972718068 1.7474795741439968
Ni 6.877427027964014 4.302284362762267 6.874541625919942 1.0311144404711468 -1.4182559849889251 0.6881647599792342
P 5.354669517527815 3.278780990484042 10.745782273637275 -0.07133165766545135 -0.64922668815314 -1.2596109495177856
P 8.757250727850177 5.523129616342046 6.443891206535282 -0.5237797367005238 0.021535302968614525 0.038737525779513934
P 0.29650698638194384 4.459685913011183 2.5525915547424853 -0.19722726661971193 -0.5222568722980941 -0.17840576303783467
Ni 8.950687414595611 5.8993053478734945 0.9839054398004125 -0.4087676074279864 -0.09492795692815265 0.7209980044591712
