# total energy = -340896.6452308412 ev
CRYSTAL
PRIMVEC
9.03307779790268 0.00000000000000 0.00000000000000
0.00000000000000 9.03307779790268 0.00000000000000
0.00000000000000 0.00000000000000 13.22082243473330
PRIMCOORD
 96 1
Ni 6.275848162929174 2.1826173995560523 11.365134725028781 0.43971571907006857 -0.9580097500656727 0.16159537634871526
Ni 4.4462434399366 0.1726257281012974 5.915326288872675 1.0043191746551736 -0.03133943354322989 0.3600673140088057
Ni 2.746462109665887 1.5271411492450937 4.862975446604449 -0.47781355438305456 0.09903323734577783 -0.49874104856434104
Ni 3.5287808370573055 4.343537346473786 5.15064735561619 0.31789325174391697 0.13942835333337278 -1.3199861081717332
Ni 5.190270950952568 4.513512769577548 2.767725974574547 -0.06729605414349701 -0.14228690582809045 -0.4716539625395619
Ni 7.1293294764507635 6.1182570893537775 2.5039447494669793 0.608663422018797 -0.08934712040626548 0.5788082863305773
Ni 5.027802015418517 4.478916081981895 11.538539104427922 0.32273592454819905 0.6750449347678245 0.0007289077462245512
Ni 5.570960977592569 7.85073816090289 12.20604470431359 0.24180556745071907 1.3017546727653708 1.1110898898545252
Ni 1.961352161264793 6.38616010781641 0.5397634282661657 0.22670522147417085 0.41155108371039445 -0.535737166172716
Ni 2.753408546418121 1.63068731893412 0.33423471463819304 -0.167407355044802 0.2952040376765174 0.07755706974987288
Ni 0.45080929229568184 -0.04000479121537046 4.7937640052577395 0.4101904559174419 0.4589545126950225 -0.12250972320116321
Ni 8.802725186756227 2.2096714672711912 1.4000186467558962 -0.6068608215924194 1.2347735787591316 -0.1358498919534951
Ni 6.873657245195576 0.5497043302763528 4.765974645017723 -0.5972029867876812 -0.22834172863632932 -0.03518863208599102
Ni 0.7901766016837052 7.386898654023205 2.5933433128603633 0.6239959386108092 -0.09120062867523648 -0.24685084318411035
Ni 7.535944436093251 3.7271562564536858 3.751672932642553 -0.053175812692031 1.0981395003414443 0.5130605505108068
Ni 7.622878775889744 3.914348725655963 12.462634696263217 0.9604229874928556 -0.24193797926352528 0.8361831689744631
Ni 8.095787492781447 8.723622525326688 6.9331581280134795 -0.3411434805211092 0.08231952413552274 0.2648663059249245
Ni 6.900503552123587 0.8697851154645122 0.4595596346648487 -0.4369386705455636 -0.5522202514294037 -0.6363688583538654
Ni 1.8246003979461007 6.513273577227906 9.161329338416758 0.2839701166339109 0.275492418180203 -0.19168165421113442
Ni -0.016348967331428862 5.021334331784447 1.351828983835455 0.2874277361652082 -0.9252803781534517 -0.18475664495652697
Ni 6.474458442345786 1.7084711510192818 6.890335919863099 0.22596885752877854 0.7148630952060269 -0.07134399896062553
Ni 3.510913409364302 4.092833307954268 0.3119754045668593 -0.7771714663269454 1.2716162015087777 0.3893899742323229
Ni 5.904317677078205 5.699348110959937 4.808994677569759 0.622706016154792 0.1667607225997386 0.41975238857426417
Ni 5.1614915653964974 2.9186145044956406 9.17926993403914 0.49980702793501014 -0.21807762770615993 0.2731118337631684
P 0.3344045364989759 5.616505755362095 12.321238124390563 0.7204387895215916 -0.21902147967666796 0.2981188973304672
P 4.234742958640354 6.23181190913575 12.743484824995003 -2.2644458874671125 -1.279890525702428 -0.9611398110542221
P 2.5065796982324238 8.60787266766332 1.329076467721635 0.024207193373822825 -1.222031962822747 0.7718551963203546
P 6.379114307209463 7.735331560192168 5.883133303253315 -0.5537122625938979 -0.48951927285575697 -0.30151969548190005
P 4.727181189522085 1.0880613083444395 12.516416737588484 -0.13686599192283525 0.27317328312872313 0.8128354953874581
P 3.9450792559954957 6.108871721622217 8.342642536892479 -0.0025878153318342526 0.4494067211055873 -0.8991374012094968
P 4.732266812267868 0.8465348767693552 3.8155160159114296 -0.2443429891605921 0.26481719785454394 -0.4008138997985484
P 0.08081171973060881 5.548179555630105 3.495307864327683 0.8827669302712731 -0.13272934404664236 0.8631861799258683
Ni 1.3626578373836715 0.9406595464160146 2.6070275222699335 0.5054187176948328 0.4696855259592814 0.7000160028908654
Ni 2.0157312890261068 6.3806318642632665 4.840725169610817 -0.7801806854669144 -0.20791097158580324 -0.5330593622302369
Ni 6.080553023028908 5.7257066316920815 9.198175262360015 -0.5914969375418393 -0.5115384574393255 1.0140078626978473
Ni 8.652785129993761 2.1605676568873866 10.090475323994804 0.020361594375487513 1.2330247143888249 0.6471723767272725
Ni 2.258639781489477 5.035714991484782 7.0703109599821055 0.13476231531627111 0.4866193256001425 0.3581490139401703
Ni 0.5913603680955053 0.014159349296654371 9.0944321715771 0.11084488526872524 -0.2670792544158433 0.22116500838223202
Ni 1.4275605006669005 1.0805819200078335 11.36840018261777 -0.026091554880729256 0.6597113897345478 0.1705250747381773
Ni 4.180553525510766 6.869989815648883 1.657401742927693 -0.26241064529558034 0.08788544825907445 -0.4248840533738747
Ni 5.615259190639327 7.95699425390228 7.952998923635033 -0.08396348749684894 -0.015635906765044037 0.4930411699660864
Ni 5.258262926809612 2.670475860043267 4.9760000247253595 0.012524357719255851 0.48386001768745057 0.0952989671143262
Ni 0.8956964988504472 7.240138240611566 6.886369495444496 -0.1895342688508284 0.1080279846452204 0.19021329719572402
Ni 5.12983062805374 4.621458048107066 7.094174544653176 -0.24404345564230231 -0.7376464116491297 0.19371436837044703
Ni 8.170409747671185 7.064607474721559 9.084767681744571 0.609489260354202 0.7534455834649153 -0.06152032800198437
Ni 4.622207793556266 0.4682973307252339 10.43765443897884 -0.2386297408258987 -0.3861298154238124 -0.5948257448047563
Ni 8.03833711860172 7.158696012057413 4.498834018313073 -0.15611172752632466 0.07834639842038765 0.9149170326412567
Ni 7.1421835460195915 6.035432799911338 7.109457608815861 0.9721922122136418 -0.0622716043457121 -1.055987806674059
Ni 2.431442557913718 5.095242973535788 2.6154093150688906 -0.46254197293596466 0.3482844624412647 0.3285191068888794
Ni 2.4523902651028355 5.618438833990155 11.342262068981535 -0.381016405456647 -0.847963706549159 1.202815023574664
Ni 0.8886597313212008 3.238150595098417 3.7870383351505796 0.7171968855455261 0.36948217956480234 -0.16376127365178247
Ni 3.742115033126898 2.6704126284993586 2.821601056600133 -0.8630015747188878 -0.25095432382952265 -0.47862422320980796
Ni 0.9754730278764968 3.2240499608068207 8.131599129327913 -0.22956274552762398 0.09677683721143332 -0.016081221832578756
Ni 3.56807472505759 2.7555403527556077 7.027355965589518 -0.293973507703526 -0.27377980636447036 0.17921951718838167
Ni 4.063069316928765 6.731097212915002 6.237729478337816 0.09270241003174357 0.27861322319737175 -0.4215048524889967
Ni 0.753363196820174 7.55095741123267 11.243595567866702 0.005220882079307138 -0.3897915805461158 0.1567935840846977
P 0.22739689143484387 5.384870543869841 7.942065286385482 -0.359876023933606 0.584022226431349 0.1869503101737361
P 8.48554672943347 1.6278689986913413 7.950540119884762 -0.1308580951658585 -0.8149453426416094 -0.0532945976580824
P 1.6239305768136114 3.3752094830589505 10.392372523770417 0.13174332598428923 -0.16054122405258803 0.06981624946218945
P 3.992204822362734 6.096496405171552 3.8127925429845133 0.18188138029126097 0.44299953202766285 -0.04952844574743084
P 6.901081669096465 3.996197442706671 10.404258247409675 -0.5874428220771237 0.730551195365245 -0.2654404332608396
P 6.440485037111516 7.7143386876145446 10.200049266433851 -0.6279312691094734 0.5938104161663644 -0.9421038774686936
P 2.3895019781469773 8.408359080476588 5.707680221831538 -0.1980857579652653 -0.03223134922987997 0.48657818794956204
P 7.039676180266205 3.9665237824581796 1.5640096558826024 -0.5193240149220153 0.04159299295043805 -0.22315709911159634
Ni 5.450134530261119 2.9173950390059766 0.48278187081913204 0.1324542360083848 -0.33965892555578275 0.004613844622927538
Ni 1.4983436975336204 0.921970108652201 7.016025776228885 -0.35659195386569553 0.9458389190310936 -0.38931001292400697
Ni 6.795783082333403 0.7815111702449298 9.173981067045078 -0.021241682987595677 -0.45053492117275956 0.25861646836047075
Ni 2.8572799069043917 1.8267954358274958 9.259480954102619 -0.6481241991175807 -1.3517088931963106 -0.9892869629123995
Ni 6.202887994336461 2.02720329770665 2.749256943906643 0.9223657756098179 -0.34536908856668264 -0.9606227622084875
Ni 4.218465352622765 7.022802391120336 10.29313693876041 -0.2518326126694179 0.10344190793643476 0.07855928576214212
Ni 8.436018364397707 7.243670173992741 0.23437223403572202 0.04480918589489057 0.0610259048640691 1.1071527595836481
Ni 7.289567241792614 3.6498873097974935 8.306378343153181 1.320662051192835 0.19347422733518294 -0.7764042491436177
Ni 3.0129108026186233 8.261011517014369 12.3529812627404 0.6796423243305199 -0.03165310812890678 0.1921025437986369
Ni 8.943017916533796 4.999356853737392 10.137832137151193 0.43169002055211464 -1.066805209004537 0.2773528684277094
Ni 8.611838188774154 2.2777357077498457 5.794659727016536 0.5449990510906162 0.466099608380236 -0.15270141629319509
Ni 3.484970410206413 2.648995201269778 11.336643494651378 0.3062404979963371 0.3202355267238485 1.0971426836458138
Ni 1.1583115536267878 3.518672823109646 12.818247995896877 -0.17888244556393706 -0.15214425823814443 -0.9114663550884947
Ni 3.1462841948770612 8.42681365822017 8.005631054168932 0.07681864892195157 -0.08507883204821477 0.612152666118978
Ni 5.595061228899411 7.827830275852608 3.3354016129374666 0.31384710669900145 0.39137769408631307 0.6062000480799689
Ni 3.1092937416905864 8.248320042844163 3.5676655266377253 0.07797487401358183 0.29154690053990434 -0.12193276765177065
Ni 3.407367239675276 4.351314826374533 9.434484188254876 -0.7139318416410091 0.20157525917576252 -0.22670213615037732
Ni 7.354244078133314 6.258441422198933 11.657486671597521 -0.3464119280089002 -0.6859232722432251 -1.8666226948657725
Ni 0.6990183947541249 0.0791505367413554 0.35265225676320017 -0.5510843380527477 0.4440459710143062 -0.39111209912975226
Ni 4.514858698155028 0.4709196331818966 1.5028241040734232 0.8814201864353917 -0.5922942366321542 0.20281607356139908
Ni 6.103424775768384 5.7333395823496085 0.46285941794910257 -0.21821106796023063 -0.7174755931282095 -0.8184924365629195
Ni 7.841325693938223 8.916704561190157 11.406185546641952 -0.05657018308556064 0.0753333226256767 -0.03845161910797894
Ni -0.05573860595534659 4.895060938599165 5.728860079117576 0.1890223622114164 -0.23405317719880983 -0.32736159624566846
Ni 7.882642991343581 8.743992115542929 2.538067200483319 0.09334004361574248 0.602157502579479 -0.13268434974131987
P 8.35841519386657 1.6559257380313148 3.590511083451868 0.2342313546478869 -1.1253728821361006 -0.16615882734968157
P 1.8057483647836652 3.2543378703389942 1.7694091964994476 0.6630795348758323 -1.1037090240094216 -1.4211515613691652
P 4.752744799416523 1.167236234395588 8.00777279689189 -0.6855404349825097 -1.2449299504668432 0.7292895550440021
P 8.507226115916385 1.6973062669805803 12.380572798578761 0.07575446932349535 0.6857859753344125 0.2602881996359388
P 6.530788714890562 7.8154459263242435 1.0597543527521422 -0.8257987404163456 0.14350380895432707 1.2940886715796809
P 1.7133851452887425 3.2700734916945104 5.833780179924958 0.12002166667198685 -0.6402203708894716 0.6461256806303131
P 6.910105713719979 3.9623956659487245 5.969888788111324 -0.45723110224601254 -0.25653567457204207 0.07205696586725009
P 2.4670057848234013 8.529917207101835 10.220475765039609 -0.041957061158076125 0.2186083033986493 -0.7921620261985066
