# total energy = -381168.48461621697 ev
CRYSTAL
PRIMVEC
9.26414994545674 0.00000000000000 0.00000000000000
0.00000000000000 9.26414994545674 0.00000000000000
0.00000000000000 0.00000000000000 13.55901987979903
PRIMCOORD
 96 1
Ni 5.98273236146028 7.626979990230101 8.73831388616817 -0.09995343516720205 0.6575233809442934 -0.21553043580427395
Ni 7.017584215823933 1.1402871433347168 10.237643345897883 -0.04212932506988228 0.8380662449297889 -1.3029636054718077
Ni 9.151358784627144 8.250957536434921 2.5800916612995786 -0.21403431087472172 -0.4517225137229575 -0.5553269153791855
Ni 3.17546336572557 0.6945518394463251 0.20545290313409065 0.6585546504222852 -0.4172391352341072 0.20957627510336813
Ni 2.4555277558038284 1.151978500393102 11.604473229405846 0.14406970876012606 2.0307930310305156 -0.6099242910090915
Ni 9.235088170596784 5.891221089651461 2.726393894321083 0.4110258073345438 0.8396703561921153 -0.4732107655037205
Ni 2.4564726990843 5.997212227611038 10.413788184697657 -1.4237985120737093 2.496123879565527 2.0839145934458436
Ni 2.623486791832771 0.13949215649724173 9.384007525939202 3.6146517137553356 2.5791136902951965 -2.634677029382798
Ni 0.3213140662996928 7.005661255020334 5.239191697826363 -0.505597152254226 0.7878983658261463 -0.14145052596972413
Ni 2.6803130867583933 8.243083009097658 11.809445323164873 0.029300034515697924 -1.3092617797756936 0.24646646326149813
Ni 8.552524141002717 3.7620508033030977 13.412229396636585 0.8676226184306671 -0.003110520604523675 1.1504881891464895
Ni 0.5757076200423712 2.5688468362619656 11.432884499481915 -0.9919835359079562 0.8575636915327682 0.43236082136689413
Ni 1.3806269818178305 2.1640683386771564 0.21954738065281282 -0.8883271979678702 0.28254752525477145 -0.2596937605850495
Ni 3.055714965300302 2.83454265277107 4.3230765987288855 0.15146188745913913 0.7287840761624933 -0.7484612428764464
Ni 7.592684107638863 8.128800457059432 0.03196502249940779 1.5147749405532815 -2.2998435502401167 0.44981295540507055
Ni 4.114848156312154 7.630259499262326 5.017257872182869 -0.6293304634498451 -0.06348156549341324 1.0789791253629095
Ni 1.584475334205081 3.9921908128470025 2.2867154915775187 -0.7515182845352154 -1.4821147313160992 0.038430536062056396
Ni 6.078671896877585 5.1396576722833425 10.532782483328509 -1.3579685009527773 -0.4833224000164256 -0.5743991015192882
Ni 8.239136481279216 5.154665594973187 11.466402193489234 -0.48874742768673884 -0.018004664107536737 -0.22745752625916313
Ni 3.5919517486683814 2.376282218341524 1.9442958391839962 -1.3321001178264478 1.0726974061192558 -1.300930634202179
Ni 6.930075056732405 5.059615417937504 1.4622320982363715 1.2463384007785954 0.7645087832576124 0.49914728286382415
Ni 7.131134900027283 2.878389873814919 11.76661252652506 -0.4424462306273541 0.28644711741949375 0.42427393059370155
Ni 7.802757968697457 5.252532073550669 8.919787463937817 0.34220740300924934 0.1874223647141482 -0.8267305082019956
Ni 2.985576087099799 3.6751530780989343 11.195804715316429 -0.05145111669144042 -0.6269843318151718 -0.44096553231676955
P 9.21643943703218 9.073984605426165 6.194383907231269 -1.4043681712632394 -1.6402445177137168 1.2594880507866761
Ni 3.5208123422885556 0.6836961087006708 5.717187550593055 1.4299218513626277 -0.7408631188142144 -1.201153319601525
P 8.100535535993556 3.1628270653867134 9.818818544373357 0.561564154538149 0.32349182887761707 -0.12323066052758777
Ni 5.451989218928669 4.629832980019429 13.01942481267932 0.37794702250270396 -1.198805902415271 -0.2670622851349788
P 6.076485557522767 6.6207358304752395 3.7819492706768743 -1.9765998328175636 -1.618919530983696 -0.2203543395554786
P 4.056363578570802 8.637050243855894 7.747637203751587 0.2996628447788194 0.44308103599787557 -0.2802528156833238
P 9.303337162236343 5.388187019197212 6.754425849947389 -0.570697484297985 -0.2233681866811379 0.23485741826766005
Ni 8.347758637784422 7.77088002920625 9.76851421091295 0.036159223529376436 -1.7892538298673055 -0.3868294125939983
Ni 2.157750188507728 4.963953807014455 7.200598421706744 -1.4097613172543526 -2.7147278120888023 -0.8095653092766186
Ni 8.146467190744328 1.5762024484260495 6.032624440254206 -0.5678967816243962 1.3427090036905458 1.4386538319189868
Ni 3.3641185124268045 3.6277484235286037 -0.11589451410491287 -1.1569647980097688 0.3187926236297349 1.6105801578800651
Ni -0.0028700336106876104 3.249243054800832 7.844476288115302 0.5270460661566213 -0.4348864160022253 0.05295624048205718
Ni 5.061329285652085 2.7498961159703836 10.169101607124373 -0.14900699816074336 0.15108933461106883 -0.41255432816392823
Ni 2.1369799646369674 6.939802414031378 3.688216455743966 -0.7249397627157386 -0.5101510901734956 0.682865716363824
Ni 0.8303457473399953 8.759327757178895 0.06433025627054477 -0.7442024676000925 0.7639606240636262 -0.7160902827449087
Ni 8.841259898085676 0.0746143889730119 11.366295643488046 -0.5511465587492509 -0.5166336125740457 3.2056537354840984
Ni 1.242702319468195 5.0484799098676305 12.193124719560718 0.3899067659677414 -2.2724070512957186 0.3829462754895082
Ni 3.448876219025194 4.72935774141264 9.123308791836827 2.908147789147282 -0.4319237338294755 -1.6201330916758228
Ni 3.543314962173514 5.1343678427426624 5.208195705396929 -0.2521185193409529 0.23352738660232686 -0.39623836461272405
Ni 4.147031812747044 7.567152110766511 2.8067307486308337 1.041565974821774 -0.4170797268381075 -2.083436368257844
Ni 2.564159176458841 2.643923506310424 8.948098705752736 -0.9594770786398186 -0.4858248547233052 -0.24331711899923902
Ni 5.703733225826102 4.383842010153101 4.8202853717835215 0.13907791197248953 -0.10719623277254442 -1.806095841125309
Ni 6.42758757111686 0.5341412326813861 12.917840630783669 -0.5156473374013764 2.1749002778967963 0.2433844819020647
Ni 8.663860693401826 3.698054056425661 2.5673868062521388 -1.70207440653632 -1.30877455572663 0.5650605977271818
Ni 0.8930686736187573 4.427077797309587 9.808757677681275 -0.480515783805566 -0.6468342766615633 -0.24367964454498037
Ni 7.76361693575635 5.477085800760021 4.564020459779516 0.8163193401710005 -0.7923962536964998 -0.08290882098008948
Ni 6.468396151023506 2.8844115711904745 0.7668585287020283 -0.583900356141504 -0.7851413719062995 -0.48232969708585327
Ni 6.805481505957268 2.3197060554607325 8.145743660644282 -0.08223262084867128 0.0732000783327578 -0.005078185853855771
Ni 5.319067197475648 2.021196620329757 3.3456198580891 1.2530147843575066 2.234772014551764 1.635831476247686
Ni 3.359542022421383 5.135368370921986 2.618057073629982 0.668371636512707 1.182146696592035 1.149951085696097
Ni 7.853516245498482 7.32883185694166 7.166158944793473 1.6747116982526513 -1.5199677976081307 0.3426303494792809
Ni 5.782886121790322 6.533791784522034 6.312089562623753 0.11983011948647104 -1.9238019722902415 -0.02130878878010524
P 3.4998568354216233 7.840889209309434 0.3869227752438169 -0.10804212571260748 -1.0285672485692607 0.2507974865366842
Ni 3.5699771853225095 6.6232649433729724 7.092736851900821 1.1742904337724098 0.16131641165571572 1.3529062559385217
P 8.99537829430065 5.966344080448962 13.640238651724522 -2.2385998729382863 0.19770472047676274 -0.05875664921391816
Ni 0.4398257027255199 0.9700213340034463 9.670008505998677 0.37511520948086363 2.033726402627227 -2.87048138494476
P 1.2574508459634004 8.247029536916099 9.910830080271838 -3.718588816160634 -3.789924587591144 2.2580021887242983
P 7.359440607909096 2.859787460999359 4.271023193784626 0.41406022328549336 -0.050996288542208945 -0.09486033691501082
P 2.7561679453907697 0.9471296198265285 3.22144689971527 0.15255563474395017 -0.762030754030765 0.1712501258296599
Ni 1.130179955893593 6.6015405120719315 8.53824993897771 -0.8950017817745682 -0.02460597147413827 -0.6006199828890301
Ni 7.275739014388881 7.801118214181344 4.973679311483467 0.9415899139467525 -1.4427943364499218 0.5624241885455992
Ni 8.04571029742658 0.2542601499854354 4.077292219403288 1.3114523596691092 2.645302113196812 -0.10630534552715887
Ni 0.5609359331726443 2.5241287851361127 4.623965067530695 -0.1018082289877537 0.54918146460308 -0.3551310530494529
Ni 6.717731478970718 8.089261065676556 2.4256675481409222 2.292666315765387 -0.8708172141085648 -2.6613630233144168
Ni 4.438065078982522 1.5292239447469116 7.9697340784317126 0.2174785606695803 -0.43287375644757065 -0.17029213279176478
Ni 4.455296397626419 7.077745604680632 10.530937991101627 1.0312566224759658 0.09727151745966474 0.6368211153999355
Ni 6.5271030683602635 8.490658148581245 11.115088030864527 -0.6465931071850347 -3.3799526754424116 0.445595060668981
Ni 5.667186154831388 -0.1841620340440898 3.8947875417599476 -2.1849936575770568 2.5330901723772308 2.3479208653633177
Ni 1.1896372693648423 4.909045191099202 4.763758308896715 -0.19879306844493508 -0.7035957498223238 -0.23219966892983882
Ni 0.6368732427383166 1.4919727983667472 2.3984142722341413 0.8336022956211644 -0.20723759966786245 0.07191992606875355
Ni 7.793845856581636 0.033090616701146144 8.200265035097539 0.15513496543535218 2.175511429118234 -0.9014467660689636
Ni 4.945536677195065 3.6605898345999 6.80687205484353 -1.161174465215742 0.5659134326457802 1.801501279776091
Ni 1.6118879534885693 5.857305037202374 0.7975608475825312 1.9817518093321482 1.064154144534935 1.2543504724497945
Ni 2.04418097600476 8.491658676760569 1.9634818934374951 1.5124578623843308 0.6480113276888001 0.33623858702032416
Ni 7.569690487814052 1.4652086695698574 2.1761821409668114 0.008919156866500768 -0.6151184336155212 -0.16859391915373545
Ni 0.41449473790401203 7.070501039530349 11.767289735876062 -0.07435501787280742 1.242230292147493 -0.2286821426948836
Ni 7.403436055349882 4.10480581791969 6.602469706297729 0.04742348358928607 0.23357957999650095 -0.5105051310788046
Ni 1.6499543450518857 0.965166919503768 7.067774600241694 -1.7413238389552463 3.688208146986248 1.8527310244853445
Ni 1.2766461643667082 0.17927426860510082 4.609605635327449 0.4530000948838005 -0.6475338738317493 -1.4466857010845278
Ni 5.8309207385476345 1.7721762734760353 5.624891605295452 -0.20156651742501414 1.0781082927221821 0.2110806275630365
Ni 5.934188216463498 8.90661847498497 6.440981678910056 -0.9497459673949836 0.4509280428461202 1.4520598209122477
Ni 4.785405847754345 2.0445237495476767 12.521144177491836 -0.46146236671854074 0.5477907549031404 -0.5058321510831676
Ni 1.9271191790239706 8.195724675276368 6.666482202229841 0.9734199139731559 -2.820756506915807 -0.27506947171017143
Ni 5.297629954818672 0.8486841318860124 1.5446431956882558 -0.00083303742425663 -2.2901530624252304 -1.9573461267942742
P 8.468868868231546 1.2024125319508274 13.199637539660028 0.8670520906391779 0.8567733344209889 0.7276162811066372
Ni 3.395079301086966 5.892555127223892 12.67512083221474 0.6704555156249292 1.1287613389923594 -0.08033823203943583
P 6.050305070163816 6.447551813954277 12.254669245983832 0.3561201564355996 2.1071105719463326 -0.8339067142354606
Ni 5.577972392175089 6.876065063348581 0.8212085163838263 -1.4955153209927212 0.27378366301921236 -1.1618979736453279
P 4.900151607282997 4.247093894829151 1.655515614181956 1.066887741416014 -0.6862845122373858 -1.172649041514245
P 5.384194170629728 5.616001727139171 8.33704835419076 -0.028048935717416207 -1.2584511248817294 0.19382029782069202
P 2.8362750487852684 2.617214962412385 6.355573628995106 0.2499065992912987 1.659645290837832 2.2213467422847937
Ni 4.563279327794833 0.32922287099124864 10.490965963922694 0.9475317333524843 0.6570472126388232 0.5396123328574061
