# total energy = -381172.25754901307 ev
CRYSTAL
PRIMVEC
9.16633856255001 0.00000000000000 0.00000000000000

0.00000000000000 9.16633856255001 0.00000000000000

0.00000000000000 0.00000000000000 13.41586303398825

PRIMCOORD
 96 1
Ni 2.683152208904314 3.279138357589225 6.1730411829800085 0.7766271637877011 -0.705713567496275 0.2873475177465761
Ni 3.569335461223787 2.263370580992871 2.3443955115929325 0.8944266259973886 0.07994253926291393 -0.8207634919852832
Ni 3.3268674810177967 0.19547216383988858 10.131444622437476 0.8375039446684157 -0.37677511368178984 0.6798958351022226
Ni 4.272127783557578 0.48734945728133683 4.906959040609226 -0.3762300398115972 -0.04614795931097214 -0.07452085402671037
Ni 9.022472601567246 6.063853594645753 11.658183510065008 0.456868062479639 -1.7665877557283574 -0.6612813053248289
Ni 6.961540601507737 1.721960810432354 13.001540634045142 1.7075174319287627 0.2530544008916609 0.7340108717790714
Ni 4.7755247492672614 1.7165710035231931 0.2385631200983325 -0.44649237567226974 -0.17019828752637786 0.17882151041901462
Ni 0.524679369930244 1.9799565676861643 12.97634512001247 -0.47313466085014644 -1.5782539349435334 0.8880957986833543
Ni 5.238259838362936 1.262653931853731 11.129624945774292 -1.560039468818036 1.3962789664972017 0.5534700646761049
Ni 6.197581303825595 5.501645402525907 12.257792195638524 1.8395124689125417 0.4797814767427028 -1.6392042493746608
Ni 4.10253219268463 8.29064131955961 8.244355894410276 -0.5237910495544335 -0.09335058513870374 -0.7635872998846075
Ni 1.9174329742722427 1.8568434782355878 3.886092030027215 0.2892858724198695 -0.8818940407480166 2.010841784719569
Ni 8.561433285053536 0.16818947458066025 7.8865148807980905 1.9288385062728846 1.7857501875894215 1.2468587920584397
Ni 8.35295408719307 3.478231225050063 0.8008519759950508 -0.5708409518543845 -0.17906139434396257 0.9772955948784783
Ni 4.619797828213294 6.3680201978203845 13.381773178809876 -1.112025771405233 1.4015605266111153 2.1137854128633466
Ni 6.539018238450309 2.7875201365704796 2.3525251370142497 0.49645250964048043 -0.16726517303998292 0.7816377296284152
Ni 7.2364024211983775 4.670762669055018 9.235318642984726 -0.7185827101494592 0.0931469537683299 0.7340828626675873
Ni 3.7638268268676205 4.183810114221243 12.414462332901596 -0.10382037432177603 -0.3086218537443201 0.07468951839409071
Ni 3.950985121886746 1.767059194774312 8.04727687146975 0.8493734424124921 -0.430802989961471 1.1914450911748253
Ni 7.901860247714121 5.704679795447526 0.4785681052082483 -0.025714374046968615 0.6113031736344892 -0.08351045911983038
Ni 3.8753719974077194 3.035423755377035 10.111334592883038 0.6578200862491058 -0.1853539122208937 1.2809953287308327
Ni 4.776395551403946 5.515229915858179 10.321869800419908 0.44739431866124885 -0.6539266647319706 0.24984849235985357
Ni 1.8189315031058444 1.9846497328859778 11.01282654676542 0.3590260172284849 1.3421346192443144 0.06568268690979011
Ni 6.131024521568084 5.206214319732959 2.7959733337331127 -0.2848031540581676 0.2546443710866002 -0.8201484841091037
P 8.713457005442026 7.0073906255887275 4.757801634201169 -0.29400307538988074 -0.1312378471027804 -0.09332564543803927
Ni 7.890649815996597 6.759138685927499 7.8186711446459425 0.6014432501212739 -0.23308284286574052 -0.02523100665264687
P 3.49196239979483 0.015649689346956236 2.8443770996591575 -0.3855325481594457 0.44121827175752404 0.9192143744650297
Ni 0.6012329607168894 3.715034408198466 5.5148449296503825 0.41316110850999166 -1.5165037503189303 -1.68701005600403
P 2.7460332895111907 2.3243358968990417 13.386495676292187 -0.762046694870365 0.42978483310960175 -0.2211495817632643
P 6.061974495298172 0.6855412736891642 6.992548490644318 -0.9283327918265302 1.078714044626981 0.35580262519518074
P 1.0086180327372631 2.160799255629759 6.955346906731343 -0.14616875738099985 0.850485187419432 2.4073745406442604
Ni 2.1938072397792285 3.6147546674055757 8.604397745843704 -0.22950643836839182 -0.17300618928881817 -0.6034535956830832
Ni 6.31197720557105 2.37254166991822 9.246453910728347 -0.21366227224728365 -0.48209726936007297 -0.5140357699398824
Ni 2.9489851853882816 6.759780329607161 11.556652564096778 0.5853165197627404 0.6258782432351866 0.19706837244434447
Ni 9.109928635105177 4.0341054774178176 7.945262859474115 0.09778702364350256 -1.0657268883386937 -0.23568094261021993
Ni 5.455437891251962 0.7889219867224779 2.7754599852943183 -0.5072897094653005 -0.24689352349658766 0.16408908930484645
Ni 4.061439498171419 5.112433512781217 6.910913081914749 -0.12109304535929469 0.5354805700772196 -0.8499714810078071
Ni 1.0244207999335102 7.91406064396598 12.454951882355925 0.5195826679000407 0.15799300370943758 0.43932105473481114
Ni 7.216199811627305 6.894791326146327 10.187053130252295 -0.5848537211937089 -0.6891291807750325 0.34424757336772965
Ni 2.4998254432865994 0.5743600067788167 6.7449051958449395 -0.059769663859464806 -1.2741646789622443 -1.879560485973363
Ni 2.0688975480255984 3.975981726378721 3.3203052994425106 -0.5445617064428816 2.2127590006157827 5.219977050994365
Ni 1.552502714633619 5.9093457965831435 4.448190226087691 -0.8857275555614939 1.3270103620083662 0.3035364688016127
Ni 0.8581975049141001 7.7108337579404616 6.4159482307896525 -0.5028314165836307 1.1807022508360245 -0.2482389817808886
Ni 8.101393099412443 6.718632637064265 2.621620413292385 -0.23584266499906478 -0.10475188499710991 0.41202545224365167
Ni 5.599120243804846 4.079194695421495 0.7108687829930797 0.10120890484085794 -0.009317677856500083 -0.044517108575768495
Ni 3.8272670541096305 8.476727152999871 0.8174274655083764 0.9624117357881102 -0.10430605570894294 0.673230250156589
Ni 2.1446939992702427 4.731141339311213 10.731187136549892 -0.397937863802334 -0.4680976126468713 -0.6367866626175742
Ni 6.9652804675263384 8.974413489960563 1.4041180305426408 1.156595330485492 0.41552986585248436 -1.147585670787714
Ni 5.34241694024864 7.819775688408789 6.273753574939756 1.451082801710959 -0.060584960671908564 -0.1346072777956456
Ni 3.647304334641001 4.758502859079657 4.652286080982237 1.7003741360157618 0.5461349644672723 0.37469611966557403
Ni 7.840033296009547 7.830170316019313 12.375502645306346 0.41701544925907535 -0.2066742709652247 1.033626665370039
Ni 1.8324885174232743 8.763285220336922 4.262004479560168 -0.05898573450558873 -0.11156967924989174 1.8040073340273963
Ni 2.8889823350016037 0.30363128901902803 12.430105605811757 -0.0942062482707797 0.5991806793393423 -0.04302304052874526
Ni 8.900908623286139 2.455992013627404 3.6323448705665955 -0.793472260369498 -2.4871533006358004 -1.3334615169503485
Ni 8.376291584456206 5.158567693348915 6.052123431547704 -0.24096841626140436 3.2991871260575696 -1.1709811668935188
Ni 6.2481611584595225 5.810422673855824 4.9807865623911365 -0.2989326514810142 0.07477230791588411 1.4627224428324164
P 5.844915604806798 3.3773831712837583 12.063691316005457 -3.0626381790200994 -1.6926155751162655 -0.40372953078344664
Ni 5.635629769177614 6.381467216078445 8.153812638139343 -0.27180057115091255 0.07450517029742652 0.7480542372460149
P 5.322049336588512 7.535747530437264 10.987551285589705 -0.7705606458786471 -0.010020874571111773 -0.2254045003848763
Ni 1.5121341608445984 5.67853739867044 7.033333196191291 1.0390990013385202 -1.0839971474027912 -0.6283038219575438
P 0.3375082420375256 0.491469726338595 11.42756485535472 -0.4473133289116683 0.6357574500221116 0.4331761181793379
P 8.730543059997597 1.1738687792650717 1.585285206861379 -2.4686855808489163 1.2085056462015382 -0.02248172604228386
P 5.7582662090375845 7.352888248071874 1.9293079655151302 -1.3506223450003512 -2.0189027073508323 -1.083444874443747
Ni 3.6685244077612515 4.8373333682952735 2.135819150546689 1.049821787072663 1.117699681861559 -1.563472662869301
Ni 2.041526861918874 7.760056994508818 2.3209975164971435 -0.12352993693556147 -2.8390180242291554 -1.1005877047716206
Ni 4.937347285278018 2.5888397543322808 6.1623348998679335 1.3975907433300898 0.08957620569793605 -1.0083164687400248
Ni 9.34508187736302 0.9414012741235281 5.592925632394623 -0.754828579855371 -0.774355337034389 -1.1999749830227078
Ni 1.4262272384761372 3.1835884473492717 1.6852606252233435 -2.0315813312597655 -2.5179458605366247 -5.091165296834574
Ni 7.252205188394625 0.45342850583909106 11.00323397375447 1.8225401027242614 -0.0212257421479957 -1.049525853098799
Ni 7.569937972224968 8.460172746064591 6.253710459654771 0.5240774704466007 -2.3939580101280384 -1.9976561392672303
Ni 9.08169631320005 8.311375576750972 9.942428310648815 0.6241918566716992 -0.6958310182752403 -0.8016486255327032
Ni 1.12769793334425 4.1603534545604575 12.704674102677407 0.1518976894449771 1.0437802088642734 0.8451010402893833
Ni 3.308534804456025 7.490245827210946 5.7634011917425365 -2.2672874706809663 -0.9685088498247837 0.6340191271747662
Ni 6.532180150092768 8.734952068710703 8.848096765280816 -0.854753989998115 0.1417631721141365 -0.22072663529323275
Ni 0.5798295608310213 6.06350527379108 9.202275826749789 0.30430779974999844 0.729115234249667 0.10791151367201414
Ni 9.283942401029512 8.070401709684766 1.2654863303825246 -0.5897416454136295 0.2343707084392286 -1.6701027387257301
Ni 8.636239771763845 8.977346718210445 3.4883251967649747 0.13744860389918262 0.22087678771785185 0.08440263191679657
Ni 1.6742775186951864 1.1204473597640694 8.818353830826998 -0.9376916073336109 -0.17006741837546838 0.07918817759539265
Ni 7.500823781587088 2.455717023478977 6.955870304647181 0.8738912250481982 -1.7524654573943623 -0.1048722126250581
Ni 6.970074462447243 3.480651138356217 4.738348831101473 -1.059339239644795 -0.5004757718672607 0.03165747900428096
Ni 0.8567043084081438 5.414656852240301 1.7287952322545825 0.36265667200253676 1.3792757470709858 -0.6175774366789751
Ni 3.8936313432632437 6.836924232579095 3.6131468916711085 1.1046004254754396 0.9129959043591438 -0.7687565027903728
Ni 6.53002606059676 4.459863557888399 6.911664721653782 -2.2492316416205203 0.48753695231840555 1.3788720838746638
Ni 1.541521441373118 0.8499844658144264 1.7044851864998452 2.212800652486995 -0.886955514431324 -0.5451916267173965
Ni 8.733962104176367 2.052902287725453 9.786697723059532 -0.1536918052309224 0.24013075085145744 -0.08867811936369889
Ni 6.408452915977372 7.807144474257728 3.842960741880335 -0.4417597460832908 0.8249657029920889 1.043701533107538
Ni 8.544878878118256 4.5564859297072156 3.424197494151898 0.17734286899095908 1.6528012713328053 -0.4065011799913128
Ni 5.835290949611868 8.76576013167276 12.653250944921638 -2.13183147173178 -0.6980051431084238 1.0249648759299832
P 4.7856260540527975 3.0868560794710844 3.9556269555921864 1.3460480953661076 -0.3187905667472058 -0.0675855603594578
Ni 3.0665526401789225 5.913598977545474 8.856508713921185 -0.28364667185622117 1.3233622237328175 -0.18591724092353143
P 9.220144686594548 4.189621572691325 10.137066337705143 0.788487405560397 -0.24256687109677574 0.7470713045074553
Ni 6.776307237527599 0.7522016355692497 4.775000434717596 -0.14754455468260397 2.521585514171741 -0.024561491389448024
P 2.0327546761840662 7.9605706444031945 8.997710655335261 -0.3505393199137124 -0.24826777813629497 -0.27549421795241585
P 2.5235662594340935 5.750227330365248 0.29312024891233635 -0.12013582365234794 0.18382924804625117 -0.3195151036180562
P 4.83439097370711 3.9137789548046302 8.436082692428595 0.9594094586266767 0.13712027402548643 0.17992399945457402
Ni 7.766766754130427 3.7640559853246427 11.726738554067753 2.9271197022640942 0.11024119024645532 -0.29496029709682753
