# total energy = -381165.22139590676 ev
CRYSTAL
PRIMVEC
9.28769367146576 0.00000000000000 0.00000000000000
0.00000000000000 9.28769367146576 0.00000000000000
0.00000000000000 0.00000000000000 13.59347850265049
PRIMCOORD
 96 1
Ni 7.617598974217474 7.1484125651271215 0.7588695672257952 -0.43509673224081846 -1.2441388220241154 0.3822024553449482
Ni 7.891864561256256 7.045699963465696 10.862697697566615 -0.5693229725479614 1.1506897636343345 -0.4165444231599278
Ni 4.904143611978995 2.0754744127199913 5.839458921481978 1.2319286531111688 0.8836225934033493 1.4741921340349127
Ni 0.5369642806776954 7.327850802228011 0.16842210392152263 0.31251450393050695 0.708804804827089 -1.830803371174318
Ni 7.802795581246032 2.5700069371855165 0.4415118689718481 0.11561428163291057 -1.588005872123975 -1.336922993136388
Ni 2.4504278842520826 4.3340557014464025 2.808603137599766 0.6728008759286542 -0.10268163273164253 -0.6061578819881238
Ni 9.164241410628588 7.4942119669770335 8.90005761480994 0.20237384381765794 1.0293768889547497 -0.14978372842576784
Ni 0.49934633597118755 1.0943317662862 6.308420568391284 0.3282162309364799 0.0781759342807944 -0.06161931547369388
Ni 8.909257075154063 5.44664707301937 12.333322220777761 0.11746444746777188 1.8579153968997615 -0.22681680735137064
Ni 4.317365716349596 6.555746271862009 12.68940309925659 0.13331375579520266 3.4531434978037883 -0.2177770657466056
Ni 1.9777307270445377 4.555093517427979 9.802012458275518 -0.5575748308730978 0.7564527457223553 1.3521472662853098
Ni 2.160623986102028 5.402465515364663 0.38657980616992216 -0.7259072688353305 0.48372657743337977 0.47052601958270573
Ni 2.9175895761743202 3.0650224217094917 0.6298514314577008 -0.7558318243089047 2.0144192176581823 0.49069992342741936
Ni 4.143007847555859 4.292521136419737 6.781948974160968 -0.00557595142588072 -1.6295716113809031 -0.2906722112444349
Ni 7.3021053160352745 2.1060866502709503 6.076719551580746 -0.6762587525702676 -1.2495093423074093 -0.5539074093238396
Ni 4.035019836025215 4.675527038157132 11.95453943324377 -2.6385192859470235 -2.032113806724468 -0.2658582375245486
Ni 7.622837233312966 3.5108874325927886 4.1358563236134325 0.9751800911973721 -0.9550928335291937 -0.9982066339995326
Ni 7.962748237527166 3.595024647390767 11.60607074830158 -0.9697488928794717 -0.9327694874416452 -0.2904240997893708
Ni 5.173904667703391 0.7743205740188097 0.6467708225822707 -1.2902207039838425 1.2173399566637164 -2.815848528091228
Ni 8.13181212106482 0.9733874224183025 7.8583489907385395 -0.07409019424719498 -0.41638501476392803 1.7734096637461971
Ni 0.1527416911007446 4.936994183646999 3.514987949242894 0.19134278281447692 -0.7290620124142283 -0.6165289408098027
Ni 2.896970896755895 7.823999385350655 0.7559207245612232 -0.12135915453648777 0.21426956681397938 0.01647768594004904
Ni 0.8901446124977983 6.752775400322583 2.2349041718609195 -0.09510510593596525 -0.6432396173317696 0.6231143073368043
Ni 4.845389663329915 2.6338505418351805 2.1381449816892286 -1.1561101633189572 1.9401390188873682 -2.1266213882857503
P 7.333646322929405 5.571120740391322 3.46402637538303 -0.23721460564592695 0.44765785673528063 -0.2686566262052922
Ni 9.013167789268179 8.896003536626994 1.9443563294669841 -0.23448820785369942 0.4850483815685969 -0.5010838377649047
P 3.1482215794708672 6.042341154343223 6.794468784906931 -1.7646388595321028 1.7275177863100895 -0.500712313358099
Ni 6.767384942090683 9.21077275472152 1.7369612063672655 0.827377397757375 -0.41217020535163207 2.401122646197278
P 3.661385216960429 3.0397784709620685 4.337338901074516 -0.6120374806973524 0.36561935417528646 -0.7571970800875475
P 2.8737516631765874 6.4277711440662975 2.9726897462273603 0.8700607955585145 0.6754352282277076 0.004185241725941179
P 4.341467280804918 8.38396371004267 8.899582084906235 -0.6373435635623088 0.0692521494286033 0.054991782854847224
Ni 2.8787763053231497 1.3708728382157538 2.585628837537675 0.5668395440044754 1.695935640628434 -0.1369112433384739
Ni 2.1907997020616965 2.9728142013193453 11.43706351969386 -0.7116430456068324 0.7158524557024898 -0.8772609128513795
Ni 7.881434481532431 9.207447760472963 13.266704761277602 -1.3385037073599466 -0.3996486758458537 -0.47626986404501853
Ni 0.5761165523391238 3.420416010874374 13.099232788394144 0.8881909295003219 -0.24911598506920318 0.5176509980949665
Ni 6.064473727791019 3.4416198149789983 8.06079655954718 -0.3366383935619041 -0.4268632885874326 0.7973188878090979
Ni 8.135350732262307 0.18446009293942195 10.213242731582575 -0.9704829428320189 0.40042592033151037 -0.9365088998794194
Ni 1.8253475409102577 8.356017040506615 7.479852264162246 0.5529162490551639 0.16357718266543442 -1.2514376696783738
Ni 0.8788257005125574 0.5536923453175718 0.13664426084488218 0.8013730032738134 -0.06443415921466968 1.0293982291109884
Ni 6.812523132168857 8.931789019419423 6.1292173099342175 -2.028566712803158 0.18492248111042991 -0.04744096709078281
Ni 6.1501341243118 1.3555852948271376 11.514097506555256 1.44367108262792 -0.5679582309899509 -0.20463230083453143
Ni 1.3382823219638376 1.1216097218951706 8.526835369333522 0.2664076822701154 1.2144945167951213 0.3522817565261159
Ni 5.3583211084836835 6.511109617229148 2.983876772965871 0.08561259306449771 0.8879515597960063 -0.07037032219344655
Ni 0.22814104391815865 8.560197692909615 11.683077800852026 0.44815048010098296 -1.3655123747383064 0.021119555587434596
Ni 4.8742465268222785 6.850667689092943 10.410361021900094 0.12332707689613599 0.4323096564139845 -0.40030302160040093
Ni 0.795474224578902 6.294613483335684 7.0911325734256545 1.7391335161721468 -1.646190450884507 0.8837565478780521
Ni 1.7814353263650713 8.805030579463265 2.8030295927713893 0.7767045539928559 -0.23276813983879913 1.2247002536835294
Ni 9.046083374790205 3.4380812037815116 6.026030107138431 1.8920326502984448 0.6575079543253257 -0.04673365661111307
Ni 1.9460411170554988 0.7424479964691656 11.72120749746662 1.7238066560070893 -0.3412764065545478 -0.49428815499930995
Ni 4.374410729407239 8.927804598937213 11.541325308619694 -0.20354986640363007 0.19178295567568907 0.05796732054340339
Ni 4.260367141759112 4.775332591774427 9.465016861029536 0.5719480688756343 -1.2836739040042604 -0.9379579736211201
Ni 9.15472152486107 5.068071401048907 0.9511898351164844 -0.3333388968750259 -0.1445852149439639 1.5701099656801605
Ni 8.62437565452282 5.886047849274187 5.481434128767889 -2.0698660857725772 -0.12767044146649623 -0.09191539535407396
Ni 4.281496644316282 5.409069065394618 1.016480462402811 1.3037372504130385 -1.4426354422745542 1.718223248382041
Ni 0.6399824474530242 2.307313816162662 1.848590922492488 -0.5065512886373793 0.3491858912096115 0.40209379495223657
Ni 1.8801449321574237 3.7385566616846155 7.839685370787492 -1.117801497546746 -0.17529318555078197 -1.9143577961582061
P 6.979868792421643 2.1639954188177435 9.431875584557119 1.0316679989817716 -0.7673138568065753 1.6709846271100512
Ni 5.277193106357583 7.55273372329032 0.7956330441365845 1.3053899555251132 0.25057997120923936 -0.5295397791127525
P 3.652190400463023 1.4061939363365967 10.29697778925496 -0.1451356881307952 0.24367501655929003 -0.07763651683755661
Ni 5.617187699812669 3.550211526582704 10.944897499514735 0.2309681105155829 -3.994696756437649 -2.844049930226108
P 5.601965170278075 3.9516999382492277 13.338002668675568 0.27758529615348965 -0.6236421548158163 0.35269416147318616
P 5.28672227981853 0.26195753570306224 4.723570418740749 -0.4578283695103793 -2.978432493605457 -0.35133970432782075
P 6.406558052268243 7.359949070728044 12.314562937584366 -0.7844469169424361 1.4667320782124418 1.2798712424287184
Ni 9.033396385562472 5.353584384833504 9.911331396274926 0.6923158060331303 -0.8565128816707507 0.5101780867566891
Ni 2.2798408189916253 7.297860840136976 11.707341899942401 -0.06625989956949879 -0.8463477682122909 0.7102261106546478
Ni 2.022098038567879 8.549619010090883 9.801754260398116 0.3948877641221006 0.5731513451551161 -0.07691275129765462
Ni 4.200136449854388 8.949463500019991 6.438877367871952 -0.1512204608722944 0.3810547148937502 1.9073104023931216
Ni 5.0604833555151885 6.196182508346284 5.640192387673703 0.5026349843021085 1.135553165103212 0.3592445609971942
Ni 8.92783246201751 1.5521500386161242 12.046024142315586 -0.010700417136639636 -0.4065148068380676 0.17540631408987856
Ni 6.5843709430185795 5.470627897460078 9.220144037394128 0.18255089555445977 0.569567998679232 -0.5461524479687692
Ni 1.7935929170671967 4.867290044441918 5.232210949529062 0.6020171203468728 0.10769991188184032 0.8440674568185463
Ni 5.604389258263754 0.9050987276922156 8.137681014544325 0.24165181548167414 -0.5332159424127592 0.14348658256314642
Ni 8.759149373910555 8.14894791544635 6.425528166102536 1.5922147679989995 -0.5816580970745467 0.2548690855028965
Ni 3.8226474380154363 2.462269693377529 8.239686822735598 -0.4461771584246961 -0.6594632782794837 1.68815368269017
Ni 3.4487899143082883 7.744561743429128 4.684108866888044 0.4614993906040632 -0.37405154410303965 -1.391978282239319
Ni 8.401684629110397 4.551239124653814 7.97462719742634 -0.2943581447364544 -0.25956957630235944 -1.2425786766258473
Ni 6.518437607346778 7.971943054024572 8.785179063522301 0.7628236822457056 0.4485968236097823 0.1086018548708194
Ni 2.939935766571046 6.518809115084047 8.89656451331027 -0.6104225708017488 1.310666373432704 -0.7608583309892187
Ni 7.028805649113391 4.316622700875058 1.4709226581703039 -1.9405977036913418 1.7042919830129295 1.5422721175322858
Ni 9.274495619356571 2.4471771915509795 10.084389916757567 0.07159905239422507 0.8501514582290971 -2.2432049758104657
Ni 6.402759385654668 5.319879345369782 11.571515884888854 1.2069182471097604 2.797901456694504 2.1171761837124503
Ni 8.920653074994787 0.7617106726465592 4.226157780542046 -0.3746475258158257 0.031743353849867914 -1.0900328120739098
Ni 7.858215247953122 7.700064404197743 3.558011331526665 -0.14062623029621585 -0.6354113795366025 0.7653353929239659
Ni 5.418839718884792 4.404363540724546 3.986355108751016 -1.30120882756423 -0.7351051332845147 -0.5831513937906214
Ni 2.735690100314024 1.9534898471877407 6.199849289713128 -1.5198158454112987 0.3004146353431794 0.44607945650456726
Ni 5.921238919686986 1.9114165959420353 3.7773829353065906 2.426437213702666 -0.15195553926610605 -0.026809921103992537
Ni 1.4826873794402675 2.625212986943678 4.154220879835979 -0.7267205087652453 -0.5548458619777089 0.6729934515554344
Ni 6.456126472113349 4.298901781807331 6.059918114162758 1.2790770286621973 1.4233933062154904 0.10145727340623818
P 2.097523396926902 0.18632134670313924 5.093272628406544 -0.7615471295261271 -0.6045838526327846 -0.46921449986013386
Ni 4.11293429622394 2.2667080204791685 12.363051198683364 1.4692877547547598 -1.1546592898050436 0.6771105590476016
P 7.721667579119931 1.7561077863767625 2.436508418105959 0.8559438965411582 0.13266352380571345 0.5931912945251268
Ni 1.1632093007758582 7.274056481871471 4.584740763631382 -1.1316695137780899 -0.0572443263344498 0.7747502584799624
P 1.733752308286605 5.115392199083535 12.00024138631325 -0.31482798255503197 -0.11337459366911443 -1.7851146108879514
P 3.042722669779925 1.06716526299841 0.3639391958914109 -0.38607068005110284 -2.2940251437861265 -0.3066575309290977
P 6.752738249548855 6.587185114128392 7.186382513414691 0.8166630966636645 -1.0185327471513943 -1.1726053327605033
Ni 4.511524947539766 8.822640046209813 2.4342385058312463 -0.8285043122729666 0.4231336463416713 2.9032184701664643
