# total energy = -340889.58418067923 ev
CRYSTAL
PRIMVEC
9.07705922805601 0.00000000000000 0.00000000000000

0.00000000000000 9.07705922805601 0.00000000000000

0.00000000000000 0.00000000000000 13.28519370346841

PRIMCOORD
 96 1
Ni 6.564937685828813 1.9696946166399971 11.271569887070594 0.026813520648418337 1.2430836412867237 -0.6916627458301636
Ni 4.610773917491193 0.22476523236624446 5.685066567232366 0.2016531636015495 -0.17128637838423402 0.7592441924245634
Ni 2.8613250654385074 1.7812911757492025 4.692038105449519 -0.7944225400979094 -1.455909790785957 1.2021339383472394
Ni 3.511632818172137 4.688809395489756 4.822923852972197 0.5353445587199877 -0.42449067459019796 -0.18575937518942848
Ni 3.7575031208994902 3.107086443455383 3.0054161186948503 0.5556092225062946 0.3704841384667555 -1.8841745877066067
Ni 5.271293361832171 4.967647577255236 2.283419567759866 -0.6800827543020481 -0.563259539962701 0.23008493657968113
Ni 5.389839755069489 4.792986804003132 11.7787587395889 -0.22157098557139907 -0.32456295045460876 -0.9415577751572365
Ni 5.562485421177743 8.151244552762485 12.302873584409628 0.03255813644167942 0.3231287891112435 -0.28091358919577425
Ni 1.826939706498856 6.527476662483452 0.2865945288574632 0.4122648219479675 0.2998903874085932 -0.33735290313042543
Ni 2.969106066456878 1.9730168203095881 0.22167177058865808 0.8512524046027597 -0.42510362558384857 0.03753604927224503
Ni 8.282090361224654 -0.10314171605791152 6.875539220875713 0.04754021167280845 -0.9757886713156486 0.16382735100302753
Ni 8.973626116874355 2.277579387866383 1.199172107186889 -0.6524102280874441 1.251725890342754 0.7075647617724008
Ni 7.789196969250717 0.7115325170816929 4.646602885591219 -3.1071056653048554 -0.5798200154245434 0.8726951478575679
Ni 0.8238683864099015 7.364417829562601 2.482963283414839 0.1109577566975057 1.1721865000555296 -0.7537348325705601
Ni 7.625909751184398 3.920182175998971 3.5944818606679236 1.2334867416269077 -1.2279856093030206 -0.0261288358765679
Ni 7.586388235399154 4.017515481870622 12.445091132645743 1.5651891313397752 -0.9371154231151667 0.1147889575181378
Ni 8.476784204145575 6.970010529979545 9.376902611008115 -0.45595609218833083 1.2753502146299132 -0.7636628903175493
Ni 7.104160387992892 0.9797868478123566 0.12923553815893135 -0.3082295034019079 -0.5411141142139132 0.22339749725717656
Ni 1.8062440115079612 6.479477173399306 9.028245505237825 1.0633347339574333 0.36236253780088556 1.0107556743091368
Ni 0.09408553408755374 4.847694239840905 1.4959129728254146 -0.5006176967617636 -0.5379578279731188 -1.2483032378144503
Ni 6.6372273853496395 1.5607004829120426 6.68755423241434 -1.710991763630608 0.6920144727426276 0.7316189745081271
Ni 3.3365908084333578 4.430621523419136 -0.03958051667008625 0.5169174623630517 0.2266471145427258 1.2691384293922463
Ni 6.246823068876664 5.505172869347695 4.509260625854933 -0.9335253917710632 1.0719841821023153 1.1472329154339855
Ni 5.470471272001121 2.9185014613804574 8.861941980397175 0.45066836142683026 -0.29003097811601014 0.17352658056866244
P 0.2631911471052597 5.531469109869021 12.234095799095808 -0.24632119593288546 1.3724656661276877 0.726164379151459
P 4.1647726133782035 6.358534436531463 12.447655401871588 -1.2493543047867839 0.7926402513865058 0.5043144288870605
P 2.603699971038693 8.699190308824042 1.32305762664949 -0.880596919203148 -0.4960038521388361 -0.5088439413262978
P 6.612419782538185 8.093233067373532 5.740279595267943 0.005895796659144685 -0.23721537697687536 -0.6118312782238172
P 4.882323220713828 1.339792093002654 12.427369082250909 -0.6487204379406827 -0.6164440944054803 0.09369974094800637
P 3.987461338837792 6.249282951921635 8.169596551066252 0.3279622059441448 1.2443828197141213 0.1201337667698189
P 4.656576758247358 1.1485566096394209 3.678298517675126 1.7519136986559505 1.1017251608101737 -1.2488102593578558
P 0.24948841852707782 5.568040581412142 3.483590151459474 0.596690823037953 -0.15862549508711393 0.6104907050355228
Ni 0.8047711615452771 -0.13372414393656182 4.446554485444364 0.6438710802681815 -0.09943818609368037 -0.6541410947356219
Ni 2.107783918348981 6.538822986491618 4.492361864730131 -0.6405571854036001 0.7583849297480616 0.6501353160103385
Ni 6.065109420621084 5.7680898892649175 8.975516868307077 -0.21304880703300083 -0.012593263283978312 1.1723777901307293
Ni 8.85551542247895 2.504896181575584 10.056346816088793 0.11242714215418056 -2.207894987655262 0.6614227159986996
Ni 2.458076710188288 5.0995917098813965 7.03227824843044 -1.0479502810815629 0.14559385871413633 -0.8620268695104445
Ni 0.6926059409301514 -0.023053007266831346 8.773408883426258 0.23254548230503178 -0.006215899002724778 1.3328285113520402
Ni 1.6071205636942512 1.3767175698548293 11.706115942464939 2.1865237210683377 -0.22302057353373206 -2.6574264072641713
Ni 3.983403893372472 7.008234026298255 1.438919025773516 1.0520689312356268 0.3076011257892896 -0.6213890971155814
Ni 5.8910658873950235 7.850076805348932 7.735702228522936 -1.0658742125498353 0.777538619858377 0.479964025067154
Ni 5.3354681704223585 2.91179351462683 4.863589985923386 -0.03410902586856707 -0.18115607208946222 -0.31445620103791005
Ni 0.9021861609497871 7.301350422195612 6.861629535347622 -0.0851305112217566 0.36123742305750695 -0.5601757588310546
Ni 5.20084630533027 4.8062937727999095 6.8366803304125465 -0.14898205846007892 0.2018655367226717 0.20796496475219023
Ni 0.9625676664975639 7.475693498375487 11.588900246107299 -0.1821760287135443 0.9730118799014597 -1.4838615388038767
Ni 4.305566878730734 0.7500936800028856 10.023333551754634 1.5702583183325667 -0.6504291931016734 1.1835967987750002
Ni 8.20321979377909 7.135539781669877 4.484722611701914 -0.0841159539143132 1.3592224279645364 1.2874554825338795
Ni 7.431052521197759 6.110984877850901 6.916856178972009 -0.5601659886390418 1.0389915292263785 -0.5418502210489894
Ni 2.381774950498173 5.481082354213557 2.31026860118687 0.8250513207273598 -1.3969582519524133 0.7890844157144474
Ni 2.406455474480736 5.44316747790787 11.280139538667482 -0.07842301729459397 -0.23239430143914816 -0.7334989651396593
Ni 1.381038250037139 3.535097016221024 3.683545965602423 -1.4059303735440367 0.30893347144746797 0.6306334985319848
Ni 1.9863873285208111 1.3670141935630458 2.4084197500930298 -0.643526295334253 -0.14636441833157374 0.7128383514665143
Ni 0.89154693985381 3.297468683253202 7.871504111311874 0.15633618483230494 1.0563709010450903 1.2859354463449273
Ni 3.7457664833454434 2.9774024985716485 6.8082364576829555 0.28280386423995163 -0.43946117985710126 -0.768774757622818
Ni 4.018813501337156 6.8331284771450305 6.01297170024468 0.26628581198027046 0.9132440158142079 -0.09923121228919685
Ni 0.6293833158507298 9.265498955660416 13.674449907929878 1.1863717904169762 -0.13521405814170906 -0.1224009655374408
P 0.2115526649852153 5.534863930012264 7.9174576312508655 0.39206546418195704 -0.5452481909869449 0.23906554281173664
P 8.363166654057405 1.7388740780770746 8.094097203409994 0.7712954671621427 -0.5835398874782918 -1.0529443918620447
P 2.054792046701242 3.5103711069424284 10.125084662342104 -1.7494464680623807 -0.6035284147850767 0.5303198518118867
P 4.406639932995477 6.490995961532397 3.7374301121701636 -1.136610916943765 -1.416800483489321 -0.4529774691759812
P 6.929708387102539 4.185168765415283 10.304580785033528 -0.9736741960758071 -1.0484596166178137 -0.5726808332766008
P 6.465807122234267 7.838912022524897 10.147762787063705 0.31653339528191293 0.2486837826277911 -0.45684517966150356
P 2.3652456256830767 8.531990878239709 5.735988869381015 1.4933129140247636 -0.07756452594904062 0.6635796144407023
P 7.0678430741075555 3.7685317478354277 1.4292746503665748 0.4868355553760067 0.5233467629281632 0.601305696102145
Ni 5.406232923996488 3.1146113255375982 0.31973850284419714 -0.4491814924686587 -0.3134976937793827 0.03695960794348473
Ni 1.3063249757081672 1.2247040593230243 6.778823155030106 0.8801559750109874 -1.179812906252536 -0.580519098374097
Ni 6.825621749181227 0.6878486542000074 9.225729636158835 -0.18987391157843428 -0.08531563064936919 -0.4315838339915534
Ni 2.8569045376049256 1.8912779021547603 8.651185373504374 -2.8064462609407212 0.2413430259920037 1.759684600850621
Ni 6.550641317578523 1.8422073200842441 2.488808001837925 -0.17009750028245546 0.4211222723385973 0.4520181905865054
Ni 4.332198970442701 7.276025427009385 10.272032266130743 -0.8618741459826641 -0.42443899541665614 -0.2046065898029186
Ni 8.4661186595779 7.374584135873918 0.2831407078293775 -0.1929453514149064 -0.9666486566875933 -0.2483387405835465
Ni 7.634351416246474 3.9514798761430963 8.079616570857812 -0.42054557389952085 -0.318041090175691 -0.0987568437559396
Ni 3.0528510146963495 8.697320434627498 12.305995185070755 1.1976255089539245 -0.7584705474833325 0.849359301345105
Ni -0.047809778546728895 4.6884009278254615 10.097159089693207 1.3633955855056197 2.1557023648121065 0.36426489702992104
Ni 8.648885246701438 2.5611013321824347 5.792570717944937 0.08161478475901428 1.218548889370153 -0.28570509704714664
Ni 3.9524601985374015 2.999868220107817 11.078536238278549 -0.27080169757275296 -0.5889253201599212 0.6856543348525547
Ni 1.0972712251225105 3.618823810342082 12.66994350478037 0.40231182450031355 0.31110451095685776 -0.21217643173037654
Ni 3.127219360775473 8.409795507201364 7.990831131640954 0.167863211635298 0.1671484449564605 -0.10451328662374258
Ni 5.766401556252502 8.16128378024491 3.4939398143667626 1.4079977975960267 0.5018932210400776 0.10647015323979729
Ni 3.3986052769323902 8.519382843001834 3.4924647922457015 -1.5656514156881745 -0.6626679012597103 0.0663419177603438
Ni 3.623498495833447 4.35492792669586 9.053594100777989 0.56977600092498 0.5155470643780864 -0.02061176271308063
Ni 7.383352575067429 6.31602656826727 11.38138596476307 0.09544372022230659 -0.24544676374773214 0.41624051876626383
Ni 8.01605990999959 -0.10046307588606368 2.3798832913595316 0.019669196294153223 -1.2150953836039138 -1.055588514353111
Ni 4.750297394554808 0.5177618110820753 1.436926611277682 -0.05818483587084818 -0.44484944075220806 -0.6200228128956741
Ni 6.600955456760334 5.7613456342744644 0.4109284550448669 -0.9706217824027286 0.5730382166160196 -0.5085678048467758
Ni 8.161583323198725 9.06772798966848 11.254910760308844 0.13298336903897742 -0.26658020329223764 0.07258507045657822
Ni 0.07554654836413116 5.171926794698257 5.630198467446637 0.7802850722552626 -1.5749492960503326 -0.23593291072002592
Ni 7.387500791124814 6.243800408160888 2.535081034260988 0.010937215737794067 0.8540734189913226 -0.7830952880105481
P 8.989392968716102 1.6062219348328044 3.300878934397096 0.8763540847663939 1.3442449807190977 -0.19908977374974746
P 1.9191898592148489 3.405966771948888 1.5586318211188737 1.1370593173350934 0.680780551700021 -1.1287281717615787
P 4.5387383756281485 1.137382749756179 7.799471292566592 2.549727523823596 -0.5985530730576725 -0.7987641048960566
P 8.903079212721181 1.9343848563265846 12.266724196119611 -4.508635338678036 -0.8047177513763303 0.6662790156497365
P 6.475083876743344 7.960862312964665 0.94384623188409 0.3918592617084219 -0.07551201429538608 2.026673352435187
P 1.7612581060803847 3.2163742363020376 5.886403909786549 0.2683393520751895 0.8801716587402713 -0.2837544010786791
P 6.895297255650573 3.9156073381588783 5.92211396841097 1.1582758035117084 -0.004263917482676527 -0.3374225800260963
P 2.358356137745319 8.924782461284002 10.242246804050428 -0.8478282094125592 -1.1420349161728136 -1.0541913768952682
