# total energy = -340868.1666555508 ev
CRYSTAL
PRIMVEC
9.29399432759074 0.00000000000000 0.00000000000000

0.00000000000000 9.29399432759074 0.00000000000000

0.00000000000000 0.00000000000000 13.60270014977016

PRIMCOORD
 96 1
Ni 8.60059730866468 7.53089573556215 2.778541843298686 1.3330951347498654 -2.640374079767575 -0.231658194604072
Ni 1.1943805072372566 9.218434170720155 13.078887107492061 -1.334275785321528 -0.598200317703944 1.4365684101448677
Ni 4.492893452141275 2.5091832991993477 1.3689486736151284 -0.15070289780592755 0.2673502486890427 -0.869382024323935
Ni 2.5031050268978854 0.3711919107352528 9.473070098377987 0.13442138703708462 0.1048920101194 -0.1235762167924646
Ni 8.612121861652161 5.8190627991869865 10.5289384902978 0.07634350905774594 -1.494327471332207 0.8139559821451465
Ni 2.3192419367758363 2.9031928954503785 7.262372721554402 0.820083178088807 0.7528683708052066 0.9794373238118292
Ni 8.760268131507363 0.19637187711063855 1.60305137956712 0.5233398209496277 0.3306379530040951 0.22614035010963635
Ni 4.540367175254222 4.015107790866731 6.056330110213363 0.21148917585536478 -2.717560396441591 0.4873464335741543
Ni 3.016114926739005 7.191925173820686 13.317152593511063 0.08614146898477423 -0.057911013384171234 0.43931411275627563
Ni 3.08823632285421 7.2447801196592385 3.3124204780414916 0.04461326783400058 0.2491347541222806 0.6882413788534405
Ni 4.376978754673641 6.025491707578071 5.27454254091945 -1.1038956860989313 1.8444430734449395 -0.6987705605195386
Ni 1.1861367342534697 9.080567058610239 3.578353255825359 0.14692234771757276 -0.09551596822113874 0.4679227776319038
Ni 1.7076320509313396 4.996497829705515 8.87868663105147 -0.06522914431213928 1.1796272726042911 -0.30461144703334636
Ni 5.225065032625777 5.79218456754199 13.534564215019328 -0.5403391837211017 0.22512836390535418 0.5711661964042873
Ni 8.672570000870369 8.350523802830683 11.298838111425352 0.3530574583498758 0.7241825728347399 -0.2861331857235007
Ni 2.4731133071474 1.5218822799573075 4.767338599345492 -1.49112619078609 -0.4076898009827753 0.2738322568689606
Ni 7.14407969093395 6.664388760818734 12.414409264216927 -0.21678307726445245 0.31736463293395667 -1.3072043830260325
Ni 1.810897622095778 8.098777378014631 11.14737202679021 -0.08477569898549915 0.1072132020534089 0.20841053693004105
Ni 7.08550893857338 4.5427929077782 6.514782404451972 -0.8795139705516143 0.0645125778610889 0.7352072060800178
Ni 7.048249315245305 1.9038654475262413 6.2407824395768685 -0.14615590186519345 1.2647328441253831 2.4584474480606757
Ni 7.205382877631874 7.767028249879033 9.575893275411616 -1.4453780380166978 0.41193597785363895 0.184060904441083
Ni 6.326970296132842 0.516569499675156 1.8957536492621496 -0.5998550796985477 -0.2928923588242052 -0.02865905849758935
Ni 1.174519241322541 7.214109938321587 6.964595930947143 0.3489159253776765 0.6835226332215324 0.4965396700376481
Ni 3.8938490466508706 0.5112486879127907 2.7162823045826885 -0.6753064159593273 0.2669352726388113 0.5799141178002465
P -0.2061212771782739 4.437993827546879 8.112459996488962 -0.47963723785535456 -0.0494076038988504 -1.09787879048089
P 3.2379532777536735 8.427171374191778 7.7085959780342 -0.28409815757134294 0.04140504530934804 0.6677489153270435
P 6.161026027107457 6.671480078503772 6.023778824420336 1.6547671368099246 0.6240625301826865 1.2880373231792783
P 8.802834625606286 7.74237128288243 13.395694280919615 0.2871215177786991 -0.27378469146047685 1.0993358346423907
P 5.314287378335309 3.6043318288177844 13.181655449959054 -1.3164279585068295 0.7359530831071067 1.2881311684446655
P 2.7369326306172725 2.5075754381777067 9.534622364124349 0.1698463035035978 0.6000772230116826 -0.773151546534275
P 5.780278960786374 3.5183159111571882 7.903413899290397 -0.3412404111102897 -0.9917559932781822 0.26923486730626534
P 9.39864472106472 3.6757097053854095 12.272410971620772 -0.17983066840981934 -0.4118932975411616 0.15521929761904235
Ni 7.024326573801937 2.61537647858238 1.1159680063500952 -1.1367348441161391 -0.41303332468287574 0.11723973305147552
Ni 4.846381233049228 6.635121972627138 8.105101011766793 0.6187334046602893 -0.19480914409652259 -0.8286956023481663
Ni 5.260586679011384 0.17875325203130943 10.480213795546053 -0.34498136620996067 -0.64279661625708 0.6639501104062436
Ni 7.83253232202078 2.793783994024065 8.520486795010735 -0.8135173519458313 -0.7489829197078713 -0.9041019443036237
Ni 6.873773159411446 7.281881745083452 1.0386940197701648 -0.09497320834379128 -0.08678167367193441 0.9411016614564244
Ni 8.855206283738912 1.144592579532469 4.882865737248951 0.3529859816819921 -0.33174738401818993 -0.40990223525306185
Ni 9.065092558026242 0.5742378051848512 9.171117516111634 0.4386427977208639 -0.5245634089440837 1.0131655693022101
Ni 7.804864100856482 8.115357863925652 6.515951588940541 -0.3813858729809238 1.8011369544581368 0.2577790600608399
Ni 5.135917038871003 8.535706640149685 6.698880632630943 0.8514722339230497 1.0176719418129956 -1.0634280650021877
Ni 4.444759855429852 4.595201741888205 9.357746498950679 -1.1728832690122382 -0.26565897702954894 -0.10451097263089744
Ni 8.106667979213318 3.9995589383279766 4.448776719785649 0.35295795665753404 -1.3417432973431664 -0.2990864034500591
Ni 1.7237013671533998 4.594709160187934 11.190682969836145 -0.834273610656576 -0.9828358079704171 -0.44666978179039846
Ni 2.8597062959113266 4.75373869742083 3.911987206014071 1.7626560247741192 -0.5912128306425174 -3.3648960382196047
Ni 7.276045116634954 9.247989072736438 13.20982740561684 1.060055034764897 1.2207934624299557 -0.46228203440635873
Ni 6.774457535843523 5.401009639566105 9.03194831539402 -1.164239477294311 -1.6833719450308104 0.2012189042776083
Ni 6.951080604371018 5.998808649814314 4.132854334619714 -0.7116114210379486 0.1310344728427227 -1.5302609520040227
Ni 2.93964394127046 8.077921654705028 5.537944564043244 -0.14376271904266855 0.5033674915927588 -0.5601078817075966
Ni 6.333076450417338 1.0700268629045966 4.398283377910095 -0.8566681763016925 0.7053243024776562 -1.1870320497087945
Ni 0.8089102329901754 6.280825614211193 12.430392146291581 -0.5714850131962868 0.35669711198499215 1.1485261803241122
Ni 2.000011819022607 3.4619106594789435 1.929311474642713 1.9661668104096979 -2.172362084855975 2.2153540150364686
Ni 0.3141453734472208 5.5303541588618925 3.1999538524757574 0.45092110086758475 -1.7329173600591061 -0.7481462827391889
Ni 8.584871870233375 6.088226169405085 5.704687187182842 1.8238264256358523 0.11841421297555088 -0.09693213184237501
Ni 9.144937263441928 1.9874184566854802 0.20925428267188673 -0.5360384994632187 0.9211290749892393 -0.514102875732392
Ni 5.0018325824593965 5.915348580598523 2.7472424585438957 0.17869038415778904 -0.11073124250899638 -1.1476419779469462
P 3.3165061179554405 5.782806927248144 11.723759532867 1.2672574103194498 0.967781741850772 -0.42657635347463313
P 3.282294924772442 5.043432501146467 7.510988929075145 0.5333840925595071 0.7442358919411892 -1.2744732113415986
P 6.034553352064195 3.751390701334651 4.294725975323232 0.7989530809784111 1.1280018351185155 0.4980656197638712
P 4.869421045029845 8.066146163870238 1.6114986910270566 -0.7244152576708363 -0.40228277103459104 -0.09362517895632907
P 8.761411292811767 0.822065881985159 7.133772651205629 0.02752648755504292 0.4224520468936144 -1.28155865743347
P 4.278620412523227 0.6437615298807007 4.900250153670791 1.4977640078175818 -1.4368316911085834 1.1419037899115883
P 2.4232231455048203 5.9345127969373825 1.805595398322102 -0.08638340979225123 -2.7105230299788348 -1.2595050200675406
P 3.074025805501098 0.5156977230056191 11.983570356575985 0.5001374146912355 0.20093505448860235 -0.6770668502938597
Ni 5.037447168788452 8.851219160165018 12.994360087725493 0.3841271831714868 -1.096685541503737 -1.054952423431009
Ni 2.987517306140231 4.675371737105957 13.56925126071278 0.2101977107374509 -0.09819891436994056 0.5685832661684594
Ni 3.2128223170454886 7.108576632537032 9.676036064476222 0.15039976474321196 -0.8392438101776578 -0.2240700978441689
Ni 7.413586938942805 4.290758369137461 13.161074828882057 0.8253223150005592 1.1305060895976078 0.12473629853883679
Ni 2.0796985265344325 2.3530813701850453 13.268862857694646 1.088763458443183 0.02760979129746858 -0.6949290752862612
Ni 0.2277102966416772 3.2093184811775206 6.111978830751945 -0.6100919269352073 -0.16340928962900245 1.3937685413705223
Ni 8.80685892515756 3.1174008771080133 2.4473438490277313 0.6296551937791156 -0.1533033115432521 0.18199579438193816
Ni 3.237693045912021 0.1411097867367972 0.5631612227247866 0.5630762203073013 0.27625937825321456 0.20745820031910078
Ni 0.5829211841011446 4.525217964472291 0.8184923411596053 -2.292460113291852 1.7845253140433848 -2.2226893723556174
Ni 1.813100298755482 5.1601000121560245 5.669619087721258 -0.9718104033941907 0.3000783350496832 3.3271321892072696
Ni 8.495956226337219 6.52153077374569 8.134237684037563 0.42702809630007094 -0.6720621979904168 -1.4767364977233213
Ni 1.8207213741181711 0.6382223092512339 6.770581010802331 -1.4007436871367749 -0.6316745382019895 1.326522109518038
Ni 3.5544416671752037 3.2141978282085106 11.429056266189546 1.5667256225889599 -0.6981666083869524 0.27790257028359233
Ni 4.540125531401259 1.2048362508750925 8.024001617114568 -2.1117930650236665 0.8721608726206528 -0.07858808211754853
Ni 5.193827917633096 8.182943790800623 3.9468917311751874 1.2668164661272892 -0.7578683951229593 0.46216864875694597
Ni 1.570025170663076 7.856501533435873 1.6717312095764667 -1.4659208951650562 0.1478723703356679 -1.8275432123658073
Ni 4.427324322039114 2.6248563528140174 3.8889306648436324 -1.0716555951183027 0.008700355987475338 -0.843236733387135
Ni 5.661157835269804 4.866326144913046 11.35645901756389 0.041432556113173806 0.47553915652658096 -0.05362035642861734
Ni 6.59799246521989 0.5510929710681379 8.471203531198865 1.9108942630896384 -0.17157357060734968 -0.24457953065143037
Ni 6.0269415706958505 1.844764937488021 12.395909568473716 0.47572401884387744 -0.6240165074360996 -1.0021185674594288
Ni 7.65250765156311 3.48535940721073 10.806433926445964 0.48111202262866826 -0.5672120968525457 0.931777298731705
Ni 5.661241481218907 2.4714125061823125 9.874499090314426 -0.33213639192649247 0.4484189032710213 -0.11009669424879102
Ni 0.5331750793709081 1.3673138600098882 11.414569717204396 -0.702064657889778 0.7599147361290268 -0.37066128747456806
Ni 0.5671111703213024 3.0843607272124522 9.719523593414706 0.4874474779283928 -0.6061396271556787 0.0684183406733983
P 7.604113823010034 9.008101784704278 3.5483866298596043 -0.2682413930447445 1.6670647232303546 0.6520908970748125
P 7.601455740627437 5.342736295024567 1.8404041953414678 0.5552986332444114 -0.7937052023159105 0.28222639446992687
P 0.4969963475851274 7.21856176161272 9.577199081617051 1.822585611250216 1.7445253766116793 0.30525345149271943
P 1.3897774443411317 3.184828806079123 4.3089002460984 -1.4015129612026314 1.580685941423794 -1.5109617374547784
P 1.6493865883728356 1.1235695643246604 1.5002421435250082 -1.4511941304778426 0.6360590404229304 1.4273324933688967
P 7.466674234639975 1.0554538797720396 10.72110390556801 -0.34989911522655226 -0.2924943520548382 -0.01596655063158541
P 1.0423307597572626 6.932790023500564 4.580790474257246 0.6323268270740078 2.129554759882461 1.0755400177743735
P 5.2809219386376824 7.240430530305899 10.669917231714338 1.1462286425391872 -0.45417791724198553 -0.49304554084146046
