# total energy = -340893.21682151227 ev
CRYSTAL
PRIMVEC
9.05369505269673 0.00000000000000 0.00000000000000

0.00000000000000 9.05369505269673 0.00000000000000

0.00000000000000 0.00000000000000 13.25099787114570

PRIMCOORD
 96 1
Ni 6.491961035109699 1.6947611622634715 11.429343794092507 0.009149527709751984 1.1700373149230108 0.28561536554681777
Ni 4.685386739912023 0.3244527399511454 5.8851126844721255 -0.29201972641126483 -0.34521996458332804 0.367899922679347
Ni 3.088133872523157 1.7873261396820395 4.715062941299208 -0.7571973371978636 -1.180726933426373 0.21988099946348583
Ni 3.5867661232398658 4.518608624788055 5.089628788303318 0.24498447939933288 -0.5386373705386465 -0.9892774498307028
Ni 5.119348447426381 4.673580721665366 2.882502730785923 1.0165339715538109 -1.0179802170820338 -1.168176607565188
Ni 7.3060059113455855 6.200604077137581 2.7817550238494655 0.2985989222906793 -0.7164504942978048 -0.6604428685839335
Ni 4.814945114996109 4.739183795450082 11.455447407442783 1.2284905739638972 0.05816272438366112 -1.3705329678813492
Ni 5.671361283712326 7.712308580713061 12.599419792980852 -1.0457735851452183 0.2923388003135804 -0.28217574373764953
Ni 2.0186118314988173 6.383026977177362 0.5634865839270401 -0.7317562714169398 0.9709128312805859 -1.1256361630998162
Ni 2.49971612874503 1.669772964134046 0.4680289509641418 1.2678441360608552 -0.46368945627684655 -0.7907062675885865
Ni 0.8301251438799704 9.104757814085355 4.534862723375648 -0.18428921840180518 -0.8321370239295476 1.246109315486925
Ni 8.828946050384333 2.3786591732419327 1.3965623269991772 -0.4639126280312462 0.2491920897227773 0.12020035834169622
Ni 6.954586740913101 0.7727265284810819 4.786459474498062 -0.5830912299766473 -0.5887944510090118 -1.1667758705629196
Ni 0.7471344488968618 7.598657547699047 2.4798179179302293 0.9222364491208052 -1.6041228322904955 0.7368082320185505
Ni 7.307825704035445 3.875769120518632 3.696021587343795 1.6774283258528657 0.12088632866512732 1.7876180940360955
Ni 7.8154482738617626 3.9358132255890492 12.46808870442077 -0.8857882335961003 -0.8362081086751276 0.8966102639122688
Ni 7.846520555014005 8.978187158342829 6.781476471524019 0.5954101565533165 -1.3523871502102578 0.3115526542378699
Ni 6.797197307477617 0.6516378850455736 0.4629326260630354 0.44383179812097107 -0.8289910221013981 -0.28051146866134913
Ni 1.517163881645061 6.729502830153807 9.20464632536874 1.78780707011845 -0.5324806069086314 -0.4780575520730605
Ni -0.034983477381195865 4.801699559248519 1.317413114793719 0.35912191937640087 0.4114590382172204 1.2342431601769583
Ni 6.315685593957555 1.9109633982528498 7.001880527351029 0.1575762278869931 0.017004762088112652 0.3762400671139262
Ni 3.6748042531712186 4.4240518344751125 0.5587985806692803 -0.9504216533057698 -0.7488944737591232 0.19508168103161885
Ni 6.094549094207113 5.698848301654693 4.887630894359322 -0.22076417339938753 -0.11237572009095485 -0.07534900635496056
Ni 5.223882409601144 3.048831782639158 9.077689076850804 0.40960347306572037 -1.490246102173982 1.3406258959092718
P 0.3610776522312053 5.455312960537513 12.5222859332767 -0.10530672905931543 1.009440812152455 -0.9308046504057904
P 3.767242478860145 6.221110696254664 12.503945863366999 0.8631234450087328 1.3126286393653976 1.5483738595546495
P 2.377780964829413 8.581499513038198 1.3716637604499984 0.5951062521596525 -0.167711259438466 -0.49764113063194293
P 6.239236193593472 7.73873631634342 5.783053097133873 1.6978598542343404 0.27706079110858733 0.7367809783250407
P 4.635464665823018 0.9992744217177407 12.540823373736846 -0.07766891273738882 -0.7111141696865559 0.13895681301359294
P 3.8819075257112954 6.2101647790305785 8.295362915588335 -0.2603249664111452 -0.146990739061663 -0.5331789185272366
P 4.881290591768729 1.0134615617426719 3.644527791807229 -0.020869387249841477 -0.28750949724573716 0.0544042857824934
P 0.12202570086536177 5.585405503625092 3.6558711662406917 1.172079285053704 0.40448903465729047 -0.6340479235301726
Ni 1.7711471867627337 1.303424250688728 2.7915746614187316 -0.23390456743608748 -0.7554973237876215 -1.5300742899145134
Ni 1.9444077474883927 6.450748615586096 4.88849190075139 0.22262950874290047 0.5935124253099714 -1.036279272501538
Ni 5.961333026353356 5.6681291146064545 9.334546024753362 -0.42383710016659903 -0.6327993958350521 0.16091043446654868
Ni 8.665762252165214 2.3534899012130186 10.314377636513514 -0.308911617070597 0.45989322245920794 -0.3486716705773544
Ni 2.318189544507718 5.017023586825378 6.995294869626629 0.0243822854991064 0.4113883328802851 0.9465763114177504
Ni 0.31166349043026614 -0.14928366032487686 8.836507696426976 1.231097415459125 0.12197467663329961 0.7941764855253742
Ni 1.3432242937963201 1.0801420252293457 11.513394676757121 0.6640030751313661 -0.2600711985291263 -0.7372370920258529
Ni 4.279871742007321 6.732997556413937 1.5404020005359296 0.40028476676795577 1.2328840750459025 -0.3065814262755236
Ni 5.44353410337578 7.816226891629563 8.124928918433694 0.5914470581405105 0.6697515475793692 0.033202969114529905
Ni 5.349294192386942 2.7800185251533702 4.838814276426695 0.12866854371370742 0.7334781392040529 -0.14166109931863347
Ni 0.930909970965823 7.3410165498117035 6.842537306540063 -0.7360312446432098 0.2778542335441602 0.48608299348069833
Ni 4.986168594352522 4.5067754454564755 7.239961017246116 0.41229464674463834 1.182938596365711 -0.6569184003704428
Ni 8.18847861419821 7.011480160132417 9.347704665029196 -0.5129476790820262 -0.7761623083361406 -0.7197497338743669
Ni 4.615220603860193 0.5191968134816279 10.387960637048693 -0.30818296643468857 -0.897054550538539 -0.2883492195382131
Ni 8.346664772791444 7.308975523297198 4.874843455577438 -0.6913570416642867 -0.3495700140219077 0.12101514093350772
Ni 7.09577911403933 6.045903591109503 7.0728126059976955 1.002568253402338 0.33374410273324456 0.07351529558033146
Ni 2.506759903435136 5.42162416153766 2.646820564689562 -2.6311224792623205 -1.9299847040621858 -0.3676644096297732
Ni 2.315428167540517 5.322966047401302 11.25121053473161 -0.8388987681334134 -0.6386201162818872 0.7582409479710296
Ni 0.9347577913299556 3.2764778890762156 3.7685706559128938 -0.0626176748312212 1.3054262080796872 -0.013825850139498769
Ni 3.704898735266223 2.8193387224273176 2.6905354255040974 0.30776901882572155 0.1058173501471468 -0.7440569431611638
Ni 0.9551195513274477 3.248266575535893 8.201930594191216 -0.56997988940567 0.09142045799552641 0.01980469343075299
Ni 3.7356360297044113 2.6160561091664505 6.858795931975144 -0.21404768061116042 -0.396352264482769 0.8132026489188897
Ni 4.2560333631396485 6.911364401105175 6.0127598245471106 -1.1381147551828013 -0.44638876021486995 0.16609712087381073
Ni 0.8593767269728549 7.3705949712931655 11.494988514874107 0.17331883543323057 -0.20963129671101963 -0.05944313375798149
P 0.18948116064184672 5.402638563176281 7.894494273944512 -0.4667336424198091 0.5749930263495452 0.4232061514508195
P 8.312867329451898 1.5498296131128029 8.111995715162722 1.0696213382970932 2.2592759132303994 -0.7118129955257935
P 1.8566502821012467 3.135665771138912 10.452983368985551 -0.8519149778874231 0.1514814278431649 -0.20722577259332056
P 4.021153354418022 6.196928276977962 3.706397121784491 0.8830088710787503 1.9184774747535347 2.531161330785634
P 6.7409648079914355 3.874166616508158 10.658333846178577 -0.135279878382638 0.16837691804692292 -1.7320668391333525
P 6.331692526672347 7.607367202264448 10.290857042339445 -1.2850340175765804 0.96109944473459 -0.14208661689182628
P 2.526487904784419 8.583237822473288 5.770570767872628 0.03887739379148788 -0.2778048683634635 -0.165677773948205
P 6.975772387153266 3.8219811186755464 1.6471649824133978 -0.5519824243869849 0.9598192924705857 -2.5600096224758944
Ni 5.369800811504025 2.6860502250137652 0.30263424043226755 0.33019006683339913 1.414536370045493 0.8802462207319484
Ni 1.4293339866981198 1.133341536899094 7.0175560948297555 -0.12604241894477003 -0.32557108000414897 -0.7051741500530372
Ni 6.976016836917576 0.5431411205805019 9.370363347441703 -1.3264807147571414 -0.5236614659551047 -0.2488503901126424
Ni 2.8232318112663224 1.6701622730179464 9.062927027194998 -0.7880359198452751 -0.17748222278230077 0.6941137784738175
Ni 6.525812800619091 1.9349466362401135 2.5218506022185156 -0.06685048196564616 -0.9659714281149108 0.21157685047316466
Ni 4.040501100578378 7.083185424329899 10.492127019207496 0.39595245794118905 -0.19426304178506543 -1.2588573591812127
Ni 8.40703481088094 7.164704893879662 0.27974197268942236 -0.7428557237642109 -0.09921064346390655 0.8318066371733223
Ni 7.328042604913346 3.8370193060280733 8.20462044696812 1.4527756160323495 -0.145211278563737 0.6784896987833154
Ni 2.962061170004225 8.451171573881284 12.212635984608747 0.8510811691322181 0.10809509043772995 1.347364757295002
Ni 0.21276907485507446 4.857135333576951 10.119336601787872 -0.6654372364747314 -0.5397545148622251 0.315177909695283
Ni 8.467567815479976 2.31339108617127 5.776375091720735 0.9171916876080463 0.5210512820257671 0.18213206284948633
Ni 3.697175933453034 2.8409498923312806 11.672472624305335 -1.0569756245086246 -1.3640990393305477 -0.4043928753990584
Ni 1.02737709091837 3.3381335518520805 12.607251239133731 1.0467796578122293 -0.19415248434913013 -0.21981646477413755
Ni 3.0587817934160566 8.449514747700963 7.945046485203737 -0.08855187819847976 -0.5013532893762075 0.17329955215952092
Ni 5.677762246059248 7.923286834702194 3.641943867261527 -0.78071161826972 0.039118049047384244 -0.34744319748689195
Ni 3.129681278760814 8.300825915135906 3.406606646943692 0.4071686383719827 0.050850249882647906 0.8307285736177951
Ni 3.332909569851835 4.3578150020421855 9.328119712060513 -0.21030981083528297 0.1270744597537102 -0.5948321725626594
Ni 7.2642774312084395 6.128237893206965 11.521755764066006 0.6874931878335063 -1.2567714231864613 0.12154144575062292
Ni 0.4800422988257124 9.310186153055161 0.7192789455690343 -0.3382129371378756 -0.946199387694306 -0.6373996136112249
Ni 4.500944865892943 0.4754294412362406 1.5250179620353788 -0.23804121531228037 -0.7275206360690373 -0.16095748565440024
Ni 5.881560919933657 5.306768987092047 0.24229589027518164 1.160806540353362 0.2053828058473108 1.2519048391227796
Ni 7.917410986663788 8.557561543525805 11.470500986076766 -0.23254625363598017 0.1954172099941667 -0.04465337704331664
Ni 0.28640187071261275 4.802079814437445 5.652000862379006 -0.8935794475057449 -0.4926817297441386 0.9284996564216977
Ni 7.847434978206422 8.724357766039722 2.5420584494014427 -0.5191990593083767 0.6741630463835034 0.5457912079746084
P 8.685481199819522 1.4875582990786764 3.515728116361999 -0.94171692644292 0.8046835557042851 -0.061903165262699844
P 1.8705929723618682 3.37845870926819 1.6110561307468805 -0.1726233520281027 0.4356544045165013 0.05430067032509358
P 4.690755581031859 1.0080021836730908 8.190229598806264 0.7816572700124408 0.24941397592559628 -0.3378650668801536
P 8.469613950544197 1.3195669888281356 12.397554082983481 -0.2921436535836388 1.8570749032763372 0.5102125395390503
P 6.387671522699245 7.5447880626011905 1.4217261668111065 -0.25774357883721416 0.6878891377203444 -1.1759819625422199
P 1.789317952576414 2.98134554029976 5.90504167784984 -0.9285567349118783 1.5516746417931084 0.3635773840445932
P 6.891600184975994 3.952508239121897 6.009419916471044 -0.29796283136857715 0.15025244053207026 0.11693068645148895
P 2.2841385977088877 8.613640130197423 10.058077490851886 -0.42319329593501315 0.6469548613998277 0.6889450897886844
