# total energy = -340869.979681213 ev
CRYSTAL
PRIMVEC
9.24358455450315 0.00000000000000 0.00000000000000

0.00000000000000 9.24358455450315 0.00000000000000

0.00000000000000 0.00000000000000 13.52892035136275

PRIMCOORD
 96 1
Ni 3.0801564355856446 6.080013853534548 3.674143622638298 -1.2190029461884362 0.5156583931449701 1.7225105629034851
Ni 0.9167139951753795 7.617868989280446 0.6730189092688812 -0.527744891995859 1.1169574043788957 1.8341560896966347
Ni 7.61663959255595 4.384823667806497 12.865543361635979 0.4451996250027752 -0.3369584959054842 -0.5077869608166932
Ni 5.32210463826008 3.228321849848258 7.330672670854059 -1.4259875493052279 0.12179212830884832 -1.2219309184685083
Ni 0.9696982209257882 6.200467001781857 7.945385822836505 1.8007723720298665 0.013279233607409388 -0.4182356948194217
Ni 2.848604646498461 3.2538341427776243 6.469773286970745 0.5132132740385872 2.291229326208544 0.7519160341942663
Ni 4.207023321974482 5.455868548035753 7.912808658354271 -1.942593136854816 0.034545342075037275 2.213335699054859
Ni 2.9642511308605273 2.6731244403495156 11.41524253291822 -0.48530523477440934 -1.48505144534692 -1.432961666630216
Ni 2.935975006197146 8.583999186629882 11.244927641729031 -0.9015460106509894 -0.26170359192622666 0.3989076839147711
Ni -0.019452199000202362 1.6058786733064796 8.351564635233004 1.468798216712851 -0.5083410335479502 0.5345110070750988
Ni 4.269001555340932 1.0072456607370512 10.293938435618113 0.9577901778556988 0.1792789096714074 -1.188648502266295
Ni 8.546368554559065 0.18259684177442378 5.372009826048614 -1.1218700111891649 -0.6090236335716931 -0.5500708091865688
Ni 3.210906936848647 7.679764030387344 6.619294735064061 0.060658494222321335 -0.013195929864983726 0.5239856820637427
Ni 8.447314304185483 5.989990585114586 4.054238888589838 -1.8018998007660902 0.7245571825653393 -0.8133846830227088
Ni 6.737510011529413 4.409300679283657 5.168886680767324 -0.3454580487360631 -0.5753504096889639 -0.12562949977706753
Ni -0.006598994899374864 7.920134198987069 9.384227379980157 -1.4853360664668742 0.5807227297444708 0.18290545068040115
Ni 6.0012400273229325 0.5104187136155076 4.219507707057961 0.3676852355653797 -0.5949743545674786 -0.0273213135227723
Ni 6.760850062126026 6.620218169145092 12.745636509226395 0.44026182138152564 -0.41161870372353626 -1.1063654877956626
Ni 5.9618346270483356 4.997996838628786 11.298230771141057 -0.9433886577183881 -0.25472150418143874 0.029893188015006584
Ni 3.6411495724998635 4.326515137444742 2.3910878907322495 -0.3798475819595265 0.4862573142750335 0.700625097229774
Ni 2.2649832149860223 9.089105612293755 2.2873212610342493 -0.793008433359202 -0.8241390933257354 -1.4984944582257032
Ni 2.2307911963100344 0.1420073383388656 4.911742179566541 -0.6349719780063386 -0.8737205037982888 -0.26633106339590906
Ni 5.614266610223298 6.123708276968285 3.564924202505866 1.258740116877058 -0.5096327557761803 -0.7642419027494708
Ni 7.806059123972101 2.0434607149670856 4.23635136654198 0.37333677742420224 1.4009239214683809 0.5151194899223646
P 2.1940664355098995 1.2237951123516402 6.840262620019315 -0.21942977085868018 -1.8462222768325494 0.0010322979192562867
P 7.407078290743754 7.7641949302485145 10.77506792772058 -0.25971098697623013 -1.891924921075987 0.06708753767711671
P 0.6320504188731405 3.8279716567011035 8.045540984111497 0.970139186339355 -0.7604996620982193 -0.16645733242670685
P 3.464911392430552 4.719071679518775 11.629946965087626 1.3279508715447645 0.7408710892340143 -0.3734676465751116
P 2.558984660243785 5.6717524615739245 6.146783961051209 -0.09351744973387119 -0.17992631344741913 -0.038246445075708325
P 1.1430801334171374 7.28787302638973 3.072390900335659 -0.34095810398318055 -0.4479442776274479 -0.09440216633166969
P 4.873310128728704 3.2238294678324353 4.508742235843378 0.14564759477020725 1.107684206607086 1.0180933456211305
P 8.196831654257958 3.6232170187741493 10.593861321039117 -0.3937564787311348 1.1025016339648819 0.439486890888714
Ni 4.958184720640821 2.423963622990432 2.5167442526353336 -0.41093813271674384 -0.1974200993568084 0.6366503941500261
Ni 4.931202697792698 0.5567706675627204 1.0453486399704357 0.24194183591826718 -1.093580420215852 -0.3608023924026173
Ni 0.7984959456347085 4.953609146365445 2.643672531751129 1.3355294552229708 -0.5351347567020267 -0.78516656871728
Ni 7.283010900998118 1.6566444388021608 13.024142933963326 -0.16179772216750846 0.5275790558419559 0.6903882499931142
Ni 8.25301416020893 5.997311503955187 1.3894743459668877 -0.4140239707309193 0.93214753758693 -0.9826825702220043
Ni 7.5209777376552225 8.82319542001148 0.4814613367822373 -0.36092117736866874 -1.5998769125299477 -1.3142486914673237
Ni 8.712327868781472 3.1252743710161655 0.953343547056249 1.5075701952747262 -0.7253922768721248 0.5538608723566203
Ni 4.472739398984469 7.907830988157726 4.644438054757544 0.5973495396678744 0.4176337995693646 0.8660318769047796
Ni 8.131562704846996 6.448490858260392 6.470558067285856 -1.3850028793627502 1.108074757177285 -0.5161985819191561
Ni 5.303617469470684 4.920452409141664 1.0820549136017812 1.4124360358730383 0.629461846821387 -0.776570856628469
Ni 5.3257835848491695 8.223527125989845 11.465786452388429 0.9116051946592043 -0.26356892726973963 -0.17902308490685942
Ni 8.86908057294676 7.321723032443113 12.37299526973074 -0.558456976367735 1.6082455962096174 -0.2512176047932383
Ni 0.7331659885667414 1.171587347690386 3.2940751630815024 -1.4121583567316196 0.6912292578371707 -1.3072262374029036
Ni 2.181744737511767 4.441717929755863 9.586863388363845 0.5410184691763134 1.4839733817913925 0.5446671216724943
Ni 0.8279903747213108 6.893745074968598 5.290484184762697 2.689448211586407 1.426401239803879 -0.8098833547376697
Ni 0.5964219471822167 8.435501003329058 6.947939285916273 -0.031408081997636235 0.7901915327356971 0.9503735736766535
Ni 8.240452129016537 5.158419245798769 8.311668400627049 -0.49570868949592045 -0.7060262136406873 1.507713662831126
Ni 6.293947370765438 4.217745879872332 9.134848414029358 -0.8657984207377347 0.21054995187054706 1.5032723392303204
Ni 6.585721112184078 2.271962121204019 10.915822760373965 -1.3474017811805246 0.3437508362369693 0.14820481397442217
Ni 4.661918597206358 5.698161382189577 5.7521180330183075 0.020704065316570798 -0.472831784897747 -2.844100066737753
Ni 6.278621507839028 -0.18397413584923378 9.213870892661191 1.4482923834500154 0.9495860447783515 0.6653462194228219
Ni 9.407935325235677 5.640767966682897 11.095473671801798 -2.008266310682909 -2.4057125795608054 -2.882651958869023
Ni 2.271564647075047 8.74102919832701 8.541659872668406 0.5230495434027186 0.9528868270168106 1.3067999484987625
Ni 1.9363645461701156 6.461764645451178 12.049546537666789 3.3204064404476625 0.6818313615620387 1.2056008138499172
P 4.036654817995804 0.286119440844404 3.2591168512591944 0.7692082456158107 1.5853725482661858 1.1683054198335685
P 9.078799015693667 3.7893427175156607 4.164756107971287 -1.4419085914108587 -0.1464901452761606 -0.8117366058963246
P 2.1901933736485213 2.9083829067789724 1.8262826996136576 -0.9310342499180934 -0.9132316745190336 0.6159802673951843
P 4.171232163198212 2.991057525605151 9.23983334815058 1.2660543911502842 0.5623349712659025 -0.013892441711376073
P 6.903367646323479 7.709648538735402 4.706170408779095 0.08162095540660137 -0.1310925797741678 -0.2591530575902311
P 1.7780127019045449 6.912223000173599 9.930051794902674 0.5754553106979444 -0.4425776139988959 -0.23171090221887838
P 6.174908490930517 5.299716676856121 7.2223729873688995 2.2761210098121962 0.5094368377152902 -0.29852307474742135
P 6.40067379618662 2.9942003442993483 0.952003227319018 0.36847584978747505 0.8816155902756495 -0.13283810171036475
Ni 8.210706274434399 0.38105752308702817 11.098895646744714 -0.246056372307273 1.0752975627462642 -0.3791050473665471
Ni 0.7372035862303454 0.24335677071765233 12.7362875479696 0.4298174861197501 0.3211505823389501 -0.7094347251016041
Ni 4.904895456605387 0.6666676424312843 7.570391166753959 -1.7563205694743944 -0.35642431793957974 1.0757536764470763
Ni 6.479521571073394 1.6060080834880055 6.277337573966605 1.5406155557654693 -0.9135273513825817 -0.672814502775409
Ni 7.00765376546446 2.077708195149442 8.686730534875675 -0.26464261994989263 -0.8207151552458511 -0.8040256104053121
Ni 6.496113805061877 6.782239716415357 9.045368668371802 -0.07155225831668967 -1.615988730490146 0.3529664412979663
Ni 5.96320267753875 7.625624356587598 6.82972400945092 -0.28491551126631576 0.6411066301491668 -0.3488236227741864
Ni 8.309252127666273 3.1641991049022384 6.597959617922658 -1.1675330604439182 -0.9304914900407458 0.7366866188390216
Ni 4.300161678335458 6.494070972910648 10.182379464275382 -1.3434373972161382 -1.4184071658548087 1.0897929281489618
Ni 4.036895151190066 1.4683618682665582 5.595141634110667 1.21819510557516 -0.2896023752190238 -0.8929251017511975
Ni 2.7178264144822744 3.9411963219517587 13.564907410788189 -0.07539220088807017 0.9448284754887083 0.2566143503287774
Ni 1.0123111449853457 2.4095251441659142 5.32982672866341 -2.2660849657324325 -1.8090605801805875 1.3028461060573369
Ni 4.808392435524741 3.056631513301139 12.764888122445234 1.8403138817679143 -0.11625834297481268 0.711998114953406
Ni 2.2728032873839363 2.2375482565025586 8.750465049277116 -0.6384280548757392 -1.0571412035522116 0.7650949947783856
Ni 7.012663788206387 1.2696525345337366 2.2478169544066287 1.1660816727093726 0.33938150352468 -1.6934077320002578
Ni 4.35795256797111 6.42503064106665 12.909227617126882 -1.2142348353758314 0.4485230329490533 -0.4373379628665113
Ni 2.7632031702758466 1.2602887835419074 0.0909420807087963 0.3723844408132619 1.1990095337856448 -0.10664627380634535
Ni 0.6118846151576673 4.664118570292295 5.934717647868049 1.3077198892098703 0.943228220881124 0.9881345944755112
Ni 4.200404915547878 7.635339363786426 2.3202506060819212 0.7295615777584661 -0.7164762053294177 -1.8692745306663228
Ni 2.6406609719553362 2.8122126547365354 3.9946436512803416 1.7182469025311247 -0.13504796487749 -1.510882804587727
Ni 8.015906976900535 8.35678263862381 2.654536516490217 0.9939252330153592 -0.8456335157540856 1.8985902489113045
Ni 2.5939623835933223 6.180963038709045 1.2218317750262062 0.23689707440550808 -0.6135274349793175 -0.15945544718757698
Ni 0.9548437808035086 3.488806058090846 12.070001665573816 -2.3952916413377974 0.04662387050612616 -0.17528058714529168
Ni 7.3778685640565085 4.205978796937881 2.6533727492149244 -0.842433263649233 -0.7042596086585677 0.5495627592018987
P 0.5948006224793867 5.481103533433279 -0.13603690717833022 -1.2059486841076392 -1.4766056285724118 0.9330011438364771
P 4.953988133325629 0.8362541391701707 12.374240380548708 0.09522646200517794 1.7544125538184046 0.06296554508894317
P 9.194611884574838 0.8330235064242237 1.071568991464436 -0.6406877974441934 0.6612285977100225 1.8416038042239316
P 7.852600571399406 0.09893038634269424 7.64940070436764 -0.5585495360815412 -0.00834631508216627 -1.180263363526393
P 5.81846663308657 7.3377698949523085 0.8166817735728373 -0.47150920943158153 0.5384478802356597 2.4951589445490967
P 2.9657485915324684 8.362864917155521 13.601706120263481 -0.26023086403544216 -1.280064075165815 -0.23013404465006174
P 4.367833959689042 8.080778452182525 8.849131069106123 -0.12683586138034283 0.705016027208618 -1.161702312694754
P 0.8447656316808085 1.434095900915413 10.867077642426963 1.3047785471933593 0.7986460912609535 -0.6744157858242579
