# total energy = -340858.7376474992 ev
CRYSTAL
PRIMVEC
9.35957160289419 0.00000000000000 0.00000000000000
0.00000000000000 9.35957160289419 0.00000000000000
0.00000000000000 0.00000000000000 13.69867912083363
PRIMCOORD
 96 1
Ni 6.2766971684270425 8.243714089556203 11.759138285388318 -1.650571867781654 -0.6253074583333811 0.44799544258035745
Ni 7.185623882920669 7.43761162835184 7.96768628454252 0.9917369671147886 -1.4666127790257582 1.1336873155390668
Ni 5.808756028116644 2.088710070707443 9.483335058743707 1.4514095889227585 -0.3779876459326522 -0.6439808663731683
Ni 6.010969571928272 2.879079092099385 2.646652851253555 1.063964140011316 -1.327805604216152 1.7836169432965026
Ni 8.122872660990966 4.8222946227211185 7.554602529172382 -0.701922732995275 0.28927327401437924 -0.14769213600406178
Ni 6.134188331672779 0.7230858692327824 1.7577874424672115 0.6417956857963915 0.7162406922798439 -1.8456545772545374
Ni 0.5833156431204676 0.6542920822219125 8.980826212746685 -2.2250876973844647 0.6872455905990744 0.6687369902719257
Ni 7.896202556661876 2.945859635265132 13.683007581570864 -0.8880402628550705 2.9051956484974935 -0.7512442049382223
Ni 8.685935127186927 6.871891043829451 1.306247079422313 0.43473703490855453 -0.5440217747790115 -0.858503172627902
Ni 2.3291293856757043 4.304289134072447 1.911582050622912 -2.6315649661163776 -0.747844435228054 -2.157211859478098
Ni 7.123083225677007 0.9728151500436462 13.002142739699075 0.8566869453547697 0.49141648987846986 0.7219855651834212
Ni 3.542728873978917 7.481620333883073 -0.4262442489574331 0.19065989781483939 0.6509511270434144 0.4958205324834364
Ni 7.746103107362775 1.1489529274558667 4.211987847101509 -0.49434266238632923 -0.7459901556281345 -1.3223085856573227
Ni 2.4796968135534017 5.567587947422628 3.640040339612312 0.7800369608001986 2.265341916918821 2.1818772234352615
Ni 1.425509548263364 8.3180478069805 7.794013818282346 -1.6457757319445916 -2.6890592036781045 0.3537750532421907
Ni 1.6053537160180702 0.712851177718873 1.7162936538173579 -1.0480299852795627 0.1896962483499894 -0.9147591669071536
Ni 1.5992699944963134 8.341296982765185 5.164387899632453 -0.8687934988103166 -0.3588599239642658 0.3997965142776276
Ni 5.825996358952146 6.2962212347260955 5.088593153085776 0.23629209383165756 0.7397611439992873 -0.23207497042651642
Ni 3.525816128148433 8.410969633546658 8.844196122896754 0.2914072896382465 0.8150343028109898 0.6423993808186614
Ni 1.8360671552662364 4.968434973245292 7.553382976996559 -0.8902699235165378 0.10965729271852727 -1.157627371294432
Ni 5.2374571389373825 4.661309991683859 6.694941791561943 0.4310883824123737 -0.6543894633010021 0.903764872679179
Ni 0.8477160523703373 3.982385388998931 5.309608204271105 -0.01452570442000079 1.4600947754015823 -0.4713801400528849
Ni 3.732166602594855 3.3062405790708675 11.801685961797173 -0.7682471672541221 -0.7858178291480337 -0.2010031887223764
Ni 7.999232720525723 8.364433843691005 13.195211982084924 2.262532472494484 -1.666435317176472 0.5900964576498869
P 5.08522370731988 0.9222612961121607 3.60776666491797 0.12047932303469573 0.14582500088833597 1.054580899024203
P 8.215186115404949 3.955102237866744 11.397575227693048 1.7136901363983779 -0.7280824221097784 0.8207861176931026
P 1.6533776777536622 6.336467392485411 1.436909506437979 -1.3462807802022039 0.6070778226992318 -0.4953024551964373
P 2.547338437303767 3.3602546666124975 0.02769029249556589 0.17668003859597958 -1.445896372414013 -0.7280723948074493
P 7.748555315114622 7.828036796903483 5.0064423214846 -0.9821248979463216 -0.36066046750811437 -0.8181844184041973
P 7.433128393568884 0.4991422081025961 10.806463061453158 -0.21938040567798348 1.7621896266606618 2.0231527408764385
P 8.341362499766188 1.455712885725994 1.4048408063610627 -0.555477582024437 -2.0094945266630555 1.4525982099142207
P 2.32804367537336 1.5163348307974085 11.507918024826045 0.03304433204947857 -1.3079276343453023 0.929588261500186
Ni 0.16936051163698332 2.590925962114262 3.138243757011915 0.12638617543743394 -1.0061459434512672 2.288027531441795
Ni 6.728287137201272 6.257510046704578 2.863599296676564 0.5755059614302217 -3.362717285400731 0.2988447197528982
Ni 0.6375936705804256 2.705412241582155 0.9671928554003856 1.8212303827739023 0.06606809527366687 -2.4279107129243993
Ni 3.8130426605479344 1.383971769627122 9.906459762496214 -2.1935055517028093 -0.12347208711443251 -0.7831413107571351
Ni 0.6488223485952744 5.771542371546636 10.679120474474056 -0.3094124679664155 -0.3097587955622407 0.24235064132091166
Ni 3.8685449199695014 3.337913369270291 8.300577230684329 -1.1314206309920771 -0.5473634375577348 -0.34239355087812645
Ni 4.8782742202928535 3.7416197698825084 4.5541531927139465 -2.59567545130862 0.04814699201887192 0.3198272355418363
Ni 2.616103209642764 1.0260243144300893 3.621300605410986 -1.5151284672379586 1.3815172348069948 5.322270961369286
Ni 2.583438304856715 2.6764350079954484 6.147419022046865 0.2662973819444962 -0.6045257457013395 -0.039421953441048235
Ni 4.473285558375283 4.589952618019436 2.315925838059177 0.9402292861538001 1.9903896875128044 0.9694419031620144
Ni 9.117327140508923 8.837869052514126 2.3814334794911414 -0.8067962311719138 1.228582362346755 0.10091117109478104
Ni 7.834766328863703 5.958920994416748 12.951196719718725 -1.2478157566550705 -0.1396196434085724 0.028900742194750226
Ni 3.4237780788712113 6.076430415502377 8.72326390648727 -0.5557071815367397 -1.4870941868085614 0.7745916214149111
Ni 3.694063786725513 5.122287610744738 13.424815376144657 0.12233231708303448 0.20072113870558334 0.6956258442429698
Ni 8.078873315031306 2.831785176946404 9.304978126911779 -0.3172839002946923 0.3152820393733151 0.19286101923121624
Ni 0.9419472829994087 3.447588828950211 9.255635401541703 0.6039747582938759 -0.37786731830470405 -0.2584909985262
Ni 5.577537172003593 6.607689057496906 0.8493511695239542 -0.02694104736521812 0.20852649368261508 -0.8404653412895848
Ni 8.04617097195897 1.800098321715295 6.379269649241021 0.07644686740482963 1.2753748972202614 1.1375714810848214
Ni 2.7814868393188323 0.29990875187947197 6.7883390843639555 0.9080185057492105 0.49634812285213226 -0.91904699564923
Ni 7.025135309176721 5.507209351212084 10.721394851393011 0.49915396773204357 1.4936862382037823 0.18338084765492288
Ni 9.129709853698591 6.681704549487757 6.274145749216532 1.1398772463998625 -0.5218236414154175 0.011984168945069682
Ni 4.819318278961244 6.986620672158214 7.281793480822287 0.690451756241198 0.4997741178145457 -0.6837964557082095
Ni 5.236362069063466 1.206111831045666 11.980220725488964 -0.5191674347394929 1.991226838702119 -0.32315501436348865
Ni 6.268535622016315 8.910433810911329 6.434598756588507 -0.29475872260898267 0.4020909667387591 -1.0382806192022829
P 5.561270236611573 8.979516808683771 8.55829116200321 0.39084393307003007 -0.3829192789063147 -0.4031150371278993
P 4.428883750838029 6.880558007105061 2.8521057427862293 0.4205260335154951 0.15487605534701068 0.7286706905130805
P 8.630563901767367 4.637826826609877 4.030836147198204 -1.3201146633297973 -0.625043148928401 0.19987987375121058
P 5.999401141465362 2.1036198682215335 7.243861945112712 0.28338030556871197 1.0008003628686375 0.8085196416209237
P 0.14952289969026983 3.236202904998088 7.19091578468744 0.3424645133253779 -0.5319769277993355 0.8010248759057753
P 2.5654117700091703 4.47555057469569 10.260406936803403 0.8199952463606911 1.214853699906753 -0.3645459186054496
P 6.445010344005126 4.482439219372633 1.4268545186982509 1.5977539526496742 1.190200163024131 -2.1423719662517877
P 5.34857397263938 9.012546736761125 13.733611041231681 -0.9336328638832049 -0.4302080366899494 -0.3682580773497141
Ni 1.9683459802923753 7.940931949204147 2.915476594028321 0.17390427562305535 -0.4353384159379793 -0.8248443469228761
Ni 3.5042235965319817 2.246699638841684 1.9001708609624104 -0.8311155246435686 -0.21872477437185558 0.5950738562598202
Ni 1.0837822306004923 8.390444093089409 0.06914945073060345 0.47633876960974086 -0.5930701955662302 1.0924457923907767
Ni 8.91745348959028 4.498500244190072 1.9513087521599843 -1.0918169005575262 1.5221552921777526 -1.0817083513686145
Ni 9.585043651101595 0.8370751554502059 11.941727615485073 -0.5299982068064099 -0.194080236350298 -0.14705424530974676
Ni 6.91003129798508 3.6283783134336822 5.0409903720709215 2.76315402591099 0.22918942134860526 0.5653557603700973
Ni 3.973081974856429 8.110330835084575 5.21485470954832 0.45666803065369094 -0.35263836853458624 -0.5961799448398055
Ni 7.7350962511941805 0.44614082620504986 8.80472961744938 -1.7774907757941065 0.13325153509869955 -1.9867088962271073
Ni 6.764854983332817 8.371771747803399 3.024147771678572 0.17118636247126 1.0901068598449548 1.788169081443559
Ni 3.840026305389819 9.02790579371067 11.41519181330574 -0.37924131583409526 -1.1734399128466566 0.4135490879770298
Ni 6.147918823168806 3.420848532969196 11.420602581631474 1.4591933466332354 -1.7646460586209545 2.5980717194549388
Ni 1.7442591177171385 8.862774872467043 10.465215889811926 -0.5379004923726219 0.6115620837228307 -0.16966915449578523
Ni 9.558181680690145 6.500025905704952 3.479314032750437 -0.7720097196203479 0.27871298200002964 1.2326655312771932
Ni 4.7520791167884715 1.1622341595164405 5.8577327942382595 -0.7684873082893862 0.8680203680897179 -1.8888015449556566
Ni 0.9255886238059831 3.334927665938845 11.777083391963187 1.1780653274338098 -2.200527491546597 -1.6841543317227898
Ni 8.667113028755768 9.000023629997878 6.562119175427474 1.5679183573454802 -0.29122654108600815 -0.015031440411825726
Ni 8.285429700052312 7.953071313532945 10.35524279575602 1.5071935286615978 -1.5268480696677316 -0.1412713200793825
Ni 2.9774201106056926 7.03224858357139 10.8636275807859 -0.05408006967385525 -2.5994894257380716 0.4210091437995007
Ni 3.167194783798221 0.48966002614307 13.706761238263274 0.5352980217527684 0.7974402438783105 -1.2939313200662104
Ni 5.371308371987606 6.963043911368513 9.90076165532322 -0.4547461310406297 1.3584030173870347 -0.10664807357855827
Ni 5.015242190676532 4.473257479660567 9.983104358141622 -3.1608869727913693 0.5145052533771333 -0.26967144062305165
Ni 0.42807591711406057 4.8251680111937025 13.17114290783054 0.33848316008012674 1.86209549641938 2.6278700337632936
Ni 3.729218337549696 9.158799402144162 2.3041861274365005 3.3619258998476877 -2.129683572150842 -2.03099794795247
Ni 5.015120516246097 2.97019452135216 0.5001717609755088 1.5506150901803424 0.27928942332879 -2.573444922045194
P -0.19305239515701914 6.316484707179333 8.734346575185597 0.10360414454591188 1.0700620253789377 -0.8590474751671463
P 2.825289634275482 3.43645093877961 3.9158631700085693 -0.44636690583799904 -1.1803741780726447 0.32701603998079165
P 0.6491967314581517 7.69496240829373 11.8618090417038 -0.48577626087355696 -0.6887597132507557 -0.11594441127881967
P 6.268947443165481 5.35142864196882 8.65222288634198 0.24282115319942696 0.8707776191198809 -2.604660685526366
P 2.191478166567275 6.2205678177101555 5.73874643275858 -0.40027551079657514 0.543925101300147 0.481985426372557
P 5.108828546824297 6.155163131565483 12.177687094599307 0.6248320613588594 0.47689644188542385 -1.0474532868404864
P 0.7299352037091236 1.0277839138856129 5.135757906151065 -0.5068971020125722 0.21125417702642327 -0.2803608020160978
P 2.1068208416991347 1.6715820444610732 8.26113880395167 3.082576055594607 1.930462415029553 -0.45517550526856443
