# total energy = -340872.08236375696 ev
CRYSTAL
PRIMVEC
9.21472211772716 0.00000000000000 0.00000000000000

0.00000000000000 9.21472211772716 0.00000000000000

0.00000000000000 0.00000000000000 13.48667725767885

PRIMCOORD
 96 1
Ni 0.38321448723249113 2.5999798891265473 7.342146749020086 1.212152756035822 2.3015556478352166 -0.7106521424484729
Ni 2.100357661668443 0.8232054841382229 2.9453421412806096 2.2991781487419756 1.0011148087852628 -0.9535015777826741
Ni 2.1630822744000424 7.425305929284166 11.165417844048019 2.2343989474830614 -1.010208543556415 0.2011217165781117
Ni 4.549520195634408 2.4596488876149376 12.87475983482912 -1.2935469401435982 0.40489501184645754 -1.395505578666287
Ni -0.0637216456532328 4.389405185964323 0.0904286744588732 -0.8484285620007195 1.8722343846255949 -0.5371762126120878
Ni 7.464975307543243 1.1969094567827483 2.721840901838507 -1.146341771078284 1.193617416235796 -0.39768846679568925
Ni 6.750161676952916 2.3570245285739766 10.20903659004004 -1.5538389964342787 1.390824885361166 -1.4703007694003067
Ni 6.792899557641789 8.184313366641167 11.657492292706586 1.814155992425624 -2.761671270717876 1.4039133431140078
Ni 5.218905246708533 0.641685596707857 6.647138320448861 0.11176405464888493 0.7366835335152281 -0.050636848320261184
Ni 4.775594185462094 5.923057443931669 4.248680715822826 -0.5580833950784002 0.17946428620933608 0.4252249816530612
Ni 0.9908682726078459 8.563692686572514 4.487219460115333 -0.21880036480479736 0.8682782497367949 -0.4531237649458584
Ni 7.44803864848629 8.717219170004448 0.8533155097826735 -0.6666112021781746 -1.0216676932359503 0.25040385064269133
Ni 0.05691380903121053 8.21830647614122 10.070299735436402 -0.6611465795191775 0.706661533231841 -0.21084434318251427
Ni 8.627136047621002 5.5272943482640535 2.478528010071894 1.9118774529385136 -0.43778662036815574 -0.7693517131722106
Ni 0.8480188875705208 3.375278954999703 1.9768905229098965 1.0778439833172018 -0.1407792109343124 1.4732721933238044
Ni 7.067332408585302 5.524428569718509 5.106096776900573 -0.137779247765724 -0.19332433202087995 0.21832162539616595
Ni 3.218508889419756 9.24052323303185 5.282704296026661 0.9841010478360859 -2.0208384909209647 -0.4595522941800214
Ni 7.542084101334638 5.5685486587090915 11.820438986450775 -0.03365908281534203 -0.38722459114988794 0.013464610145338103
Ni 4.3224878747175355 7.9384092950449485 7.468476901907575 -0.19098668502663882 0.3017356681474481 1.0690819208538556
Ni 3.4258954230083227 8.029017656583044 3.026733937862903 1.6663288735055948 0.10746105639815685 1.9421869025553322
Ni 0.14598976229881022 0.6540176591757135 8.337746781380787 -0.16238959011523646 -1.509144995961014 0.7080224181351097
Ni 7.982842684583919 8.6759556448374 6.604290784568053 0.22671602010744826 -0.28380710869348547 -1.806315927555915
Ni 5.110070165031888 7.167404289629105 0.7856812931634002 0.012019135948063172 -0.8143691584231653 0.9818595601000769
Ni 4.336835196889286 5.746899603239737 6.804271446076058 -0.0762828310231396 1.6661668940064336 1.0246969669805772
P 1.2546581196281916 5.339194227845348 12.120867489660647 1.0868826964807023 -0.2548171492190386 0.08423011089467429
P 5.2060046358925725 0.5982188315078824 8.884982398943995 -0.19630115526101677 0.8167669692313804 0.3034482799631806
P 2.8627929756136847 3.104384557308568 7.462528798849216 -0.08789676111298411 1.1491684418938013 0.34840324740731615
P 2.730617003082164 6.716048776066714 4.793866057738498 0.08399588339668115 0.5091056796281167 0.40158908740167615
P 5.990417061835004 7.19910293334832 6.044809722923895 -0.667843789033695 0.43508413383532807 0.08780034474443588
P 2.006054196603776 1.8413226112059797 0.6487486811295949 0.30078487419840455 -1.2114043079055719 1.1563222793297634
P 1.8126740404725372 0.16937580529154211 10.485878169317331 0.3067207800668653 1.7053538486185404 -1.7084944511300513
P 7.8546566866833345 3.4958535925188716 1.8752014581530927 -0.11786399689903573 -0.920292438020557 0.17312805957866315
Ni 0.05297635831573934 3.5054461181327383 11.322914951194667 -0.3907603722172883 0.31986811608210075 -0.21116650240862342
Ni 6.528215882586337 5.942786163758077 7.736429960332671 0.19584195623641112 -0.17054975732852562 -0.15964390904929926
Ni 6.573414094052254 2.0136010539311124 5.005296932817869 -2.1178585544914554 0.19320580416514468 -1.105419064721993
Ni 8.217108562279739 7.730211865919379 3.475274353850812 -0.7998079727795386 0.07626971839701703 -0.08621345987329024
Ni 8.36929891102002 3.246014834623785 5.384218281065249 1.0498760373493659 2.3727278971046686 0.44153708854952345
Ni 1.825316639072178 7.823289772956529 8.580467166522066 1.042400040687295 1.2463103757541374 0.3110859990140965
Ni 5.867575602701031 8.917519582366248 4.671097394908416 0.38865900960356936 -1.4735393309422622 -1.0353909563593136
Ni 2.506496534320895 3.993540728354582 0.28663867171981305 0.01988619740096575 1.5542267187910006 0.12757711042174155
Ni 5.111959183044226 0.11743518172988412 13.407806623439177 0.21161078903489366 0.15751812095554807 1.6776761801976139
Ni 0.1880780050858794 7.421739831865754 12.22708927617486 -0.09414119936079916 -0.32139175181547874 0.9125963549278799
Ni 3.8959844664198906 2.74744308547498 1.7626546864502561 -1.052292874320975 0.02267712988254159 -0.7042356973991678
Ni 3.1615803368333273 3.5919447136537497 3.797753686833965 -0.43691681616869266 0.7059580794069132 0.30787623382754714
Ni 2.848961677874573 1.1141059647883085 8.368159049907211 0.2488606745252875 -1.2822235447109789 -0.3387654672072359
Ni 0.45619139967397404 1.8669763972857172 4.028996214237845 -1.432713812285468 0.007372638314987303 -0.6961485495156592
Ni 2.690293379560278 8.557435890326772 1.0584140278958096 -0.280223247996969 2.0545443678138424 -2.2070470378326696
Ni 7.055749503016973 8.511841445814367 8.683694168382573 -1.122216595895306 0.750647709004804 1.402195846202269
Ni 6.82272761279269 3.345119169856391 12.39694056112219 0.5419669491325118 -0.5013378627572398 -0.04097335708856815
Ni 2.156576680659994 2.002276160579102 5.564468379802444 -0.0321596154516801 2.2771754192186395 0.5056434321111292
Ni 5.583826667803993 5.681115702800353 9.976755563465474 -0.6995879142145113 0.18757740223477373 0.6200667787597322
Ni 2.773271951272934 6.4166163843062725 0.04418182762805924 -0.9777290828714711 0.24166055723242255 -0.32074743336326045
Ni 4.748290964142316 5.314692282017035 12.771977904041766 0.4088126017333088 -1.1131123196011927 -1.3666799126838463
Ni 1.1329316418575985 7.235851244729783 6.343107782404732 1.0174870794956994 0.6117099221546045 1.0606155352540572
Ni 5.57354303803927 0.5850380931427759 11.266742927285373 -1.1561749551186218 2.926811684105372 -1.708496765122896
Ni 7.999217245598176 4.708879598099559 9.267518682636448 -1.287320756728228 -1.2925940893120256 -0.5118307918687637
P 4.21653700103046 1.9006562062373837 4.66953273511088 1.1377136630896407 -0.6526128310165535 -0.13167956262588934
P 4.453419859777518 4.865069136192787 1.4142395968938168 -0.5115186599449835 0.3460866834589975 0.9067131566742256
P 7.961796259509881 6.794576637047864 0.016673118007427035 -1.6428318188249191 -1.3451564367897737 2.138286997549137
P 1.4300603531151894 0.28468330770899397 6.563655703442181 -0.8870742993973756 -0.9153340655740172 1.0638612958848646
P 8.08046344957269 0.44442143524881295 4.589367418028305 0.5981897761809827 -0.266982838047295 1.1795182578302525
P 3.5094729516517202 6.400029884685753 8.922097456261511 1.0660706448313575 -0.6134032506966275 0.09094069014563048
P 7.215514353250624 0.9836070716628628 12.877268082160622 -0.29496466797220167 1.5751927795197065 -1.1569208321457107
P 1.2351597678520694 7.227723859915729 1.8781280538639133 -1.6678638220928823 0.8470923596877992 -0.03313277799822681
Ni 9.018430003113089 2.1116549108544196 0.3436151408607011 -1.6061131232476469 -1.3890659936885303 -0.6059151698496984
Ni 6.535642948527526 6.218896094107665 2.728529868546582 -1.4847755659777138 0.39886166116818406 0.15726743839732268
Ni 1.7075893506545325 2.911419063667842 9.589324419440567 -0.6757460745999072 -0.23571308139973599 -1.2278868789416273
Ni 5.0743539025157025 2.6466893150023334 7.84916471236454 -0.948524950503689 0.43139974300520545 1.534852428029447
Ni 3.79356283126318 2.0556201863030963 10.422221026718178 1.6973075812752965 0.3631418391690714 -0.7744838921924533
Ni 1.6979599661526197 5.447393493703205 8.216974027338374 0.7620263831553908 -1.3183593712015875 1.3186290799232063
Ni 2.358544957705858 4.813660202091186 6.072053048550599 -1.2437804102434322 -0.8966619430858106 -1.718009332599022
Ni 4.765421132361507 0.9580822916912849 2.765443123452049 0.6126974828788545 -1.0499829952408755 0.3277300353286807
Ni 8.70235582340006 6.861669028012867 8.19681129410523 0.2902952875209904 0.060865982247437105 -0.5626923546053212
Ni 3.194338673583854 0.4395127528333402 12.12415898836312 2.422819157334105 -1.4354769768529019 -0.22163012094410864
Ni 1.0517775851031994 0.5064346714411322 12.512278472122281 -1.9484297981412508 -0.8393618238127608 1.1271466862070718
Ni 8.43998504356947 1.0157019484285688 10.977035753135764 0.30739286643322544 0.14018888564848114 0.4449227171923047
Ni 5.8889814019335125 3.7842191031436205 2.9932199939074415 -0.1230367993492268 -0.19470861396291628 0.25718693500279577
Ni 4.590645499971286 3.8596231733629063 5.843790562245205 0.5388374023645947 -2.3633477414413493 -1.5560892259210362
Ni 6.639760092534333 4.927351442267839 0.7589300336921051 0.6729492285810603 0.7434275371072809 -0.3194315427653144
Ni 4.336752264391183 8.12390164913443 10.084325463809954 -0.24542079560580313 -0.40505956244877983 -0.32770972361370654
Ni 2.2120032335585647 2.5233594756017568 12.064587653503821 -1.1581960993137086 0.8556888431075585 -0.9332258582527735
Ni 0.34574558458973675 5.842732712158297 4.697396211528951 -0.5191926315504737 0.5253095430814889 -0.3020372585482669
Ni 2.6135531746493395 5.94004017659868 2.729959993402751 0.41042416919480285 -2.816120293695376 -0.3911828044666876
Ni 6.1030946825904016 2.3186359966744843 0.9461040745486662 1.6594090064573097 -0.7696643593166228 1.130660355787285
Ni 3.0215165622600484 4.524833955365867 10.565894207903323 0.290440554849603 1.4342135367594462 0.5143057357718175
Ni 7.249175732758268 1.8250217679678131 7.18537760491234 1.0351356458153977 -0.42927138380829294 1.8074387283064484
Ni 0.09771475515328713 0.10154623656562724 1.987990577044829 2.43916160324787 -0.5537971089982204 -0.25124614403832857
Ni 0.43510535129528755 5.901706933031256 10.177532376955263 1.3505043313652483 -0.5763153447053946 1.4769509277269726
P 5.053556274935972 3.832504246483356 11.184595523498146 0.23863462592190515 -0.8080812685319245 -1.1287466837043398
P 7.567489089920068 6.884567612211195 10.163155567673078 -0.573540867284051 -0.8344762135856854 -1.9440008158356195
P 6.614290600894824 3.8708467047727915 6.722542390668147 -0.1875671178221286 0.4852689822198352 -0.1818790662984158
P 8.703949970308033 2.6139494076958294 9.333279546270804 0.08293298934980556 -0.35752732119577135 0.0850808889307438
P 0.13338402258721513 5.342686607487668 6.83514260775865 -1.31932816287276 -1.2604460438245713 -0.9610081705723642
P 0.9989495838118436 4.045216889394513 3.9950777439860827 0.5551124853755343 -1.555946786805901 0.3050210237669392
P 4.438455151231004 7.40663690248907 12.152803873207757 -0.5964923338739017 1.0839272133968043 0.2504457596242203
P 5.954276922106293 8.274848010403172 2.4766933589194244 -0.4902749200748589 0.6618582608742215 0.3944913000146303
