# total energy = -340860.1523055765 ev
CRYSTAL
PRIMVEC
9.38706268173495 0.00000000000000 0.00000000000000
0.00000000000000 9.38706268173495 0.00000000000000
0.00000000000000 0.00000000000000 13.73891509355813
PRIMCOORD
 96 1
Ni 7.402168415954286 1.8944688646283 6.043913926792389 0.7968648309908147 0.7629913181718215 -2.150917541828954
Ni 2.614766358840995 5.964445868763165 13.481241586677887 -0.23227654491436125 0.2851715931411798 0.19096637331166466
Ni 7.923807498922493 8.434613911353624 13.303240345956699 1.0687301939413916 0.6315040740623963 1.9695375266541435
Ni 6.191819305287475 7.063192189122094 4.249020208833188 1.3188311686316836 1.1499158615827874 2.045616212086277
Ni 0.36331124858289915 7.258790417875171 12.23319872510845 -0.7068011441334989 -3.3042303449084316 -2.743460147026488
Ni 3.9072992048215838 5.130968557682598 8.769316208466986 0.561536129513691 -0.0681252349130117 -0.6278153123568994
Ni 2.083758987141417 2.586877395092596 2.063667856508398 0.5605570534298733 -1.2757623624666674 -0.36446467174555297
Ni 9.288151375759782 7.830406223494498 9.91246239743364 -1.4848228742758813 0.26548208513205246 0.11654862052172184
Ni 8.23372137914915 3.1141487157750536 10.411213005037418 -0.12703229366186508 -0.9101283530033615 0.14283712190460562
Ni 6.805874022083683 0.734403433568036 0.7756342297552098 -0.33255188219735626 1.537839535682229 -0.09387431885265768
Ni 7.780664177414806 5.5210010193944745 13.733309569460328 -0.231534267431698 1.5016366033991104 1.369532551641293
Ni 2.624068938132366 8.16874413005241 1.4224995473557862 -1.119708741871788 0.020087771888810568 -1.4129638833520506
Ni 1.3942228979113895 1.7795806023204384 6.4349095011534025 2.808073769241816 1.956301487579844 -0.2715213493475969
Ni 3.6894160888457863 3.60838696226343 6.628806794116776 -0.005156861610591119 -1.5169338958778134 0.6363971404886394
Ni 7.155664145327237 2.7162405083260825 8.10179747516825 0.8551622811801273 0.5798215580864401 2.090976642498947
Ni 3.773618042673838 7.4987706798165465 3.604596466281739 -0.4308001617479935 -0.4617876112684434 1.2803494676167178
Ni 0.8892918481225079 0.9632065197654801 1.0885050347818492 -0.45083959689737196 -2.0901112091748586 -0.07977516044711422
Ni 5.149827166962482 5.86025885811238 2.8114900964306373 0.4411473093102725 -1.2331722957102826 -2.0301399708275487
Ni 5.358604831966907 1.7186867255665288 10.119370159516933 -0.025352876942491817 0.48235386545556924 -1.4101423547428553
Ni 2.883330227182193 5.867411800009479 6.740696828548085 -0.9248288924383299 1.6800837611978423 1.404643536411813
Ni 4.812709578575992 7.578307263404627 13.311607973787504 -2.5410654772732237 0.11886878401446624 0.9320531781009109
Ni 1.6236427141385443 3.386983697716226 10.622640637886397 -0.1274156451432128 0.1845085335014629 -0.4249843263971649
Ni 5.093307661499973 4.044800901552163 4.885888304490969 4.448316230073003 -0.2633161878289852 -0.7132564128405393
Ni 1.9199547402852857 8.231872127766305 5.415316772217985 0.2535776203849826 -0.9056348360083822 -0.11323755387061789
P 3.696409450674315 3.0432200688269204 9.34312201585087 -0.16656429031821635 -0.19401647299189814 0.9205379783724598
P 7.080088902264847 4.837087780815842 3.555824103795183 -1.1692443867080702 -0.2882633446926261 0.879441465442466
P 7.399051911085734 8.21156791080643 11.39799607187475 1.2641008669683391 -0.15185835156660946 -3.9056584255210542
P 8.085527817824351 1.6351512532013304 12.598860494230763 -0.004681978856701614 -1.4582929463061531 -1.2904212500304229
P 3.626335026446176 7.303181838126325 8.527786142447907 0.9705863011791026 0.16299277091687414 -0.0023116788523121477
P 0.14395342503225383 2.8809365261536364 8.405303746288663 -0.9217967904802253 -0.812565272445207 0.12727654846218725
P 4.840880154210104 -0.07114642680641776 4.009400410105525 0.4943951128908195 0.8928675090403848 0.661969589641105
P 3.6486105266060385 8.708800630346218 11.750331027858861 -0.2709999296264881 0.586245716445229 -0.33430717432556617
Ni 4.886144571306967 2.643640964189388 12.15914606364148 0.08511148505836309 1.8082491400228857 0.6239589147252868
Ni 1.3833339049971711 6.813524478312207 3.318758524870933 0.276552226903285 0.6777479355212844 -0.8113568539594027
Ni 9.104897134663771 0.7423758660525581 7.288426314021274 -2.6759468346658624 -1.437998200612859 1.969020734918725
Ni 7.831016382580208 0.7870939560911391 9.487943744197404 -1.0225261845815035 -0.9869655138680745 0.15014728241277367
Ni 1.1838400451584032 2.3928092575852227 13.0557476176108 -0.2785034370923849 0.8666466276706428 -0.2974354981101974
Ni 4.898066141135464 8.858176961591008 1.8545747861919752 -0.9059685651987172 0.19710693899176376 -1.0217857068710532
Ni 8.253640726531884 2.997486298587203 0.36438606728003536 1.1276822469955674 0.9393391702393629 0.8832245866339822
Ni 7.751367154237844 5.487564301497539 5.597742135663715 -0.4878390569398566 0.12663531533376257 -0.7699602932904869
Ni 8.875927897453757 7.426471521691279 4.607537484414974 -1.1782717870176609 -1.2871433506100993 0.6888466165376071
Ni 6.086243009333841 0.5534565325222963 12.081590150316245 0.4795354221701677 -0.8631221594571522 0.16125136274573518
Ni 1.0601654920163097 0.07527485705096369 11.787728147575203 -0.3302175776372248 0.8185286891174935 0.3923685972446726
Ni 3.173052535203261 5.114268972859844 4.745971316487261 -1.6638403027557862 -0.3418603040824758 -3.4316390480731096
Ni 3.4630282939214703 0.9596769841312162 13.754989929835052 -0.56962790538289 -1.37140225786018 0.6171902285428854
Ni 4.270700569207912 3.855905035679044 2.550121411769394 -0.8014820180478519 0.17454833696495747 -1.0903464866595867
Ni 0.003310817069693839 4.658451974645517 12.322639598717041 1.9595305360401027 -0.665776364981705 0.21865458325555243
Ni 5.733120478776023 4.484049733823737 10.106689176303297 0.4103506356443901 -0.9804433964788405 0.8436856479990954
Ni 0.5544900481428613 6.51939025074831 0.8893829026322216 -0.4903050019818459 -1.1107926703290805 1.154678058858121
Ni 0.8308470560680118 0.9439067185313136 9.258146568043395 -0.021351211982266454 0.127849904467154 1.1864188416048278
Ni 6.297639664875392 3.263900529534129 1.600377817553545 3.19829909489124 0.8989761930412841 2.833653674593449
Ni 3.462333651270046 6.296973183412541 10.726204347563472 -0.8215975578508043 0.17837413846895087 1.0016390567198492
Ni 3.9423129492785103 1.1198202764730842 5.876944362340849 -0.21487454738782993 -0.2259122932592303 0.05769015562261677
Ni 6.204285324761684 1.7339688638978628 3.7541999644476722 -0.32697850187463684 0.2684537661658667 0.04066276782668481
Ni 8.866118416768103 3.126764928254975 4.006473523906686 -0.7311363784447537 0.7295420373744403 0.8511899267959405
Ni 3.052306745672578 0.9815957759025093 8.98911146914677 1.449513657451626 0.32201652988367124 -0.7797284284208442
P 7.311001261486278 4.172633923539945 12.221768098667377 -1.7097910584542877 -0.4806047439749464 -1.442093196617839
P 0.7083017665876257 8.392156226051029 0.05418775904880821 1.6879335962595636 3.2086845518906224 1.7228440349835037
P 0.9953947583024241 5.459966336697709 5.042113436796289 -0.6330945584779677 0.8314376838696779 0.5200007292740657
P 6.5046713361884 7.2726738838408 0.6498438326451296 0.12988518972962793 -0.45722544581905766 1.4717483004801104
P 1.121998075055928 4.319072104110469 0.6081352349585301 -0.309335334871577 -1.043973555822002 0.04285309060978426
P 4.769519702370545 6.101243535779463 5.608225607462508 0.6945400673779587 1.0278167435564813 0.8369473008339974
P 5.489385391691814 2.120603208855475 6.8771650096581 -0.5656452665860581 1.1250784908241334 0.3140491954074785
P 5.030226599100363 2.2107941087863465 0.5995610917448687 0.4469986258847269 -2.946034536890726 -0.8219976215027004
Ni 7.689694151266797 6.670174641421664 2.3349558504907226 -0.2533976431636927 2.0640798181081035 0.12234568681947315
Ni 8.842613211373962 7.388012725165802 6.934112565186891 0.32318072539510145 0.10824549997266518 1.3014165726996618
Ni 1.9572401539536268 3.9690942396097735 8.16353994240444 -0.66883366375079 -1.034889334132547 -0.13017649571780163
Ni 5.90154316055784 4.541939750463379 7.228483346734788 -0.6675427128535083 0.4506848164870625 -0.09611580658866672
Ni 2.6329584866580253 0.12868255117634814 3.3483108761576075 -0.7062028484278676 1.8768297173057613 0.48884692937908075
Ni 6.270736342726988 7.082886246996258 6.822786693233293 0.6074064096832442 -0.7735441539870034 -0.060338391878741245
Ni 8.582722989112709 1.3350562407231834 2.785935695214795 -0.4851589390045322 -0.6532656341092039 -1.0853634316226985
Ni 3.581746477875023 2.605050748783912 4.180023419421042 -0.9450490761399467 -1.560977407251273 -0.12053768707645693
Ni 5.909306261540648 6.821503481740729 9.238088292130376 0.11661392654201852 -1.5386730873271177 -2.4380665704114786
Ni 1.3454383322431196 6.177776259253276 8.463996356802586 -0.45893600075226126 1.1807189630065729 1.3898342393131224
Ni 2.8564926144737877 1.5652457961046191 11.601524491329496 0.7290486426777896 -0.6548900570865044 -1.901864291676886
Ni 4.147720658717242 8.313192253297231 6.482157404631968 -0.21072118734108872 -1.2352003818839048 0.31905667592439885
Ni 5.5275719633944345 7.395146892937187 11.213042772401609 -0.6471898602287692 0.6830564922183914 0.9222917278387729
Ni 3.483576574515629 3.462512005464331 0.35359188370067346 -2.6365536775802205 1.6014272877362032 -1.3998905951078602
Ni 1.4857373737051103 4.3786705661901015 3.136552818696058 -0.020554941333216212 1.6097350362709502 0.10039257958714969
Ni 9.540916817312505 0.3618571925463367 5.15199745589504 -0.7399740313410418 0.45205675713392474 -2.276135407989899
Ni 9.305573764422531 3.895133571358802 6.180876806114972 0.7849580522508998 -0.5327647138079534 1.6867673438656046
Ni 8.065843147013045 5.518109804034493 10.39017847458726 -0.3326809515760529 0.9246818253375042 -0.5720583692012535
Ni 6.89910633038025 8.952986296447566 2.8138669007460506 1.7219300078096669 -0.3412666363625349 0.7746047340410337
Ni 8.649352361272298 4.7305821656393565 2.2093409914560698 1.9034596611884638 -2.2404770353563417 -1.4321342856329142
Ni 6.842061149397746 9.18231224204615 5.342981943253861 -0.33678211822862 -0.5569487672533247 -0.7141331590185378
Ni 5.41816574579511 9.141412809177831 8.720488462309573 -0.004659353148882298 -0.02651064469601886 -0.4466127033002179
Ni 5.439070734777839 4.921993764358175 0.19043628288796677 -0.43857826303151565 1.2292588195884895 -0.9372357507431148
Ni 2.1648256619752018 8.31551085782293 9.921049682535303 1.1684008077608523 -0.16448735318452962 -0.1394314386571663
P 3.1250564828149865 6.155979499299125 1.8731912092501461 0.0815664480195821 -0.7637392520814394 0.8824769098346802
P 3.917944134101518 4.81925236138738 12.2852556208887 1.353379081809882 -0.7735739787836742 -0.8587829086518501
P 1.5276599964248512 2.492405994498893 4.305103215872841 -1.175152781772705 -1.2592317118014957 0.40718972141790516
P 0.9199068149246046 5.565927502228484 10.607638234028203 0.4448504691934726 0.8321169693248895 -0.8531861312903628
P 7.22501576571538 8.863950005248116 7.425457718902714 0.4792927100317423 1.0402480273412988 1.418147741545835
P -0.008456804927947774 8.784760742985748 3.1850107145769013 0.6576974446283125 0.4406078918670347 -1.413029189372347
P 1.6655653368582855 8.812978253934144 7.429936286591829 -0.6513679028658589 0.8314345985458841 1.1926244561949073
P 7.771915434832002 5.375238707349661 7.830508542479641 0.23154789427845282 0.7930050909250924 0.9532856051171259
