# total energy = -381178.70740128873 ev
CRYSTAL
PRIMVEC
9.13453911888462 0.00000000000000 0.00000000000000
0.00000000000000 9.13453911888462 0.00000000000000
0.00000000000000 0.00000000000000 13.36932133386037
PRIMCOORD
 96 1
Ni 4.783758055489412 7.879964844598575 8.410719923475352 -0.8206863588904447 -0.029277408807878613 -2.301466173445204
Ni 4.552800372321578 6.310431821634259 12.28970828874978 -0.0700327363483697 -0.879937431242278 1.104031440345847
Ni 4.9747978033842095 7.825806163080538 10.488593693606383 1.1823431288735573 0.15312307721164595 1.9311640690822678
Ni 0.2941065779343206 6.420859263171039 7.879223120034692 1.3041074892682638 -1.386844046336547 0.7485268060070592
Ni 0.01647596792951356 1.170691648175632 7.101462799937984 0.25828582449392934 1.182033053832306 -0.42327531412585817
Ni 3.866896976047673 0.25913864932592073 12.015730580876708 0.41962049098209026 -1.3957066389334996 -0.13176672302305695
Ni 5.415091715991895 3.7097280986316887 9.356291772335094 0.39121391481493917 -0.6000692525918827 -0.3822371652376256
Ni 7.0081735804056144 6.377150494227909 4.223862883863319 -0.6782282175918126 -1.4997661258492752 0.5218807199055979
Ni 3.2252960937495616 6.920144028408762 6.73024975170006 -0.4205885113223144 1.810186980475547 0.3555372873489361
Ni 0.8998562217062052 3.1125484793159055 5.356511917615242 -0.6765798833551123 0.5636835148739969 -0.1730280436656891
Ni 2.516866924390231 7.118409196624148 9.137837446101296 -0.9931847553049089 0.5322584635954962 0.01164015534208963
Ni 2.7370732551973407 1.5120128311074965 0.7283433777549242 0.5569104578162215 0.4404757371645446 -0.6816704105041421
Ni 5.2574935152446 1.1945693330277407 8.697893386335934 -0.16088600898651645 -0.29393159872199703 0.2347057231811442
Ni 5.208495848241267 2.1229307970252584 4.580356536014523 -0.7058382659995972 0.5369939213979527 1.8154307453729894
Ni 1.940240017743631 4.4072232248510135 8.451617081325336 0.6251174538097621 1.3328197696012916 -0.38296633009416625
Ni 7.392719401715511 5.818838338204292 1.7588545640799707 -0.6492310590285142 0.9926576791568453 -0.6204375318355895
Ni 9.145135029279702 8.58482240922295 8.555696931735977 -0.2225420912354167 -0.2629906861687664 0.10961615506794668
Ni 0.6993083322036951 6.69970933412755 12.21942623250624 0.13702514320851886 -0.111276316379189 -1.2146120162095921
Ni 3.3605968848855348 3.4677998341679936 5.214530124680939 -1.282593783566204 0.346049659573475 -0.768588866864257
Ni 3.7683809733200553 8.24720071457154 0.7275989128293516 -0.8203716558635032 -0.6456834508865719 0.496019792978436
Ni 7.07588791774635 9.324994101482464 9.916560546604819 0.02984767948905182 -0.2684820483006409 0.3830342072176242
Ni 0.49744415563646105 5.721911745256424 1.7162328052735671 0.22275137903274542 -0.6123820085209648 -0.37223737371243637
Ni 5.948996383903487 7.67324109330245 2.6319913458623416 -2.198759601012897 -0.8978942728310149 -0.0203893622896294
Ni 7.390061250876963 6.758462688744522 8.930746486338816 -0.7540605913410949 -0.006391505348640605 0.23614065585545782
P 6.248682338237069 1.3303451201898462 6.421632958621296 0.2029186605775344 0.06714281639508436 0.028379322473641444
Ni 8.333832682106886 4.152588816688281 3.648367746594369 0.08729255187008192 0.7698481931926547 1.2303620799549972
P 0.9072698135294536 8.460108548746346 6.254515654819531 0.5726939459027233 -0.6477159079355683 0.12159389625511319
Ni 4.34958428398766 0.0649785429209928 6.212937060362825 0.7876962771176692 -0.020257464697455436 -0.4188481315924399
P 8.385990899591791 5.27940727421943 5.756307851725674 0.453145105102097 -1.7645357582953352 -0.02871228033302797
P 3.6681750808840823 4.485780259942113 3.1218967664917465 0.8761951905910266 -0.8110249245412806 -2.597492192802385
P 2.1497863415796576 2.499346878657123 7.120126489949395 -0.17228396641081295 0.3358151263296604 0.16454031790965212
Ni 0.3022646346831417 2.679361238022275 12.63406213861772 -0.6009701671395972 -1.8183754298236101 -1.2460182984350154
Ni 1.0834842046855473 3.2822956168854294 1.251534144915545 1.9562019858875022 1.1706788051617516 0.5741813290815273
Ni 7.769464326750083 2.7870939905646503 5.851256816987817 -1.1030870741547067 0.11980235157232916 -1.0906840725046636
Ni 7.238683671164208 1.4263856628581975 0.44752481365165275 -0.6678972679794498 0.1438552787564748 0.4908906992819868
Ni 7.818060074038995 4.248026479785004 9.84796198589236 1.206175969627097 -0.30216864191980863 -0.15214168713498313
Ni 7.271357917038726 2.4265354685744307 8.293617874317519 0.10617576192783004 -1.4808224948672368 0.19745943723517606
Ni 8.657789106468032 4.765315421320931 12.78477472389389 -1.1577680106373547 0.9991522857422536 0.23095654055135706
Ni 1.6777864442276451 8.82132475754198 12.947987012288511 0.34725113608074387 -1.3683295324721272 -0.17791648210624197
Ni 6.183708362585557 4.284372810323084 0.32568559258704627 -0.5381830566100474 -0.6451350345822695 -0.6866758341385335
Ni 3.618245690906414 5.7838530539718604 4.624407850168805 1.0019571021809002 1.8047336706704593 1.7336388116061627
Ni 2.045542982921561 1.1849141253427067 5.184756094927517 1.7663003063949259 -1.0251456244822217 -0.6277939722006607
Ni 2.476994661812016 6.033189429535425 0.2074198031651884 0.10496811477297407 -0.6652230635813963 -0.9326162496932325
Ni 1.5974847121944058 5.2826957082465 6.313929436603606 -0.21995504723453088 -0.45007289393467653 -1.7345127295706837
Ni 4.602784569533032 3.6682390226568313 11.721204727603936 -1.097087404927846 1.6848359311708467 0.040149832746008265
Ni 2.711405200708272 2.633058260013346 2.9663711926354 -0.41694782924593354 -0.9292679020462898 0.21992136578311802
Ni 8.471490184295593 0.3761950257889342 12.13641610967015 -0.10060263871542674 0.8051769504009358 -1.0200674386283657
Ni 4.460249223537506 2.5776116085013725 6.958450631008534 0.5719768652310407 -1.2173525550692066 0.5464666367750782
Ni 3.30973577193353 2.6832708206989015 9.195245283128859 0.5901044280696869 0.5534991181418273 0.4853782541041899
Ni 7.081743157222325 2.6929168938449717 11.717715333719658 -0.4462013267944122 0.08166697815318838 0.027800052931403734
Ni 0.8700346923501687 8.516943650180862 10.672381531017598 1.0858331721702654 0.11163447104955614 -0.5030311912992627
Ni 6.0737559170749105 5.572616840427479 10.678825034802859 0.3274454142087264 -0.2596171417108432 0.23516877886049173
Ni 1.5395351970062736 4.8347470519869145 3.7750820711041055 -0.07282264038868104 -0.014833979689038969 -0.1785913966860795
Ni 2.4968531495199286 0.31885295744191344 7.547503251007974 -0.3783967084456128 -0.6562892514268762 0.054507387019260965
Ni 7.126182689282581 1.9308588462275194 3.6078715950049065 1.0341493706427287 1.1114593573788019 -0.43258065068718404
Ni 4.256923520736019 0.5133419072495483 3.3266346690170803 -0.3755250433247726 -0.35487985627059526 -0.8261370975923708
P 5.332095294964253 5.7765819609564515 8.490963194459221 0.25377122445302747 0.3990059000555322 0.43319437301178293
Ni 2.5114227391676387 6.701243936673516 2.4198608609533765 0.7349593517352696 0.3214478018643948 0.3396167594639377
P 2.1789072517971486 3.8683859058988177 12.647404959682554 -0.010671106560600977 0.0562038008850774 0.053004063000857096
Ni 0.3217988462578296 0.8144290998602198 0.9612796020623775 -0.817520045347321 0.5681266382470151 0.5737902642906956
P 2.995324940789849 7.367307114317438 11.349618076722383 -1.8867750014439313 0.6533080573113652 -0.08672819472617967
P 8.407712833248377 1.8376682797159611 10.223774274498698 1.1639288880324277 0.44713180902848154 -0.07399712031275643
P 0.4864626128938424 7.854753517057711 1.7888286402367075 0.36019432650497324 0.6536929514546096 0.5151174330398355
Ni 5.0092898225125815 1.8485566501611461 13.090410003454778 0.815218393797338 0.5375680487338678 1.337163134171652
Ni 5.780299718314833 4.488904272267829 5.268942746382179 -0.21478301611528816 -0.5058478348124513 0.18129953964586196
Ni 3.6664212494029793 5.291611018275443 10.050080102642797 0.09789475286596044 -0.12959234107955747 0.14834391065544775
Ni 9.123522710090684 3.6523905975541497 7.611849683832652 0.28393360696902065 0.6347578051130035 -0.2528399708880097
Ni 6.006626190227876 8.375723677796163 12.819454001071025 -0.866250934894121 0.6659589133061563 -0.02812246926782899
Ni 5.9615655095180635 4.57565498880971 2.9735911322326105 -0.5172090254615415 0.3080909209415146 0.04713140627016399
Ni 3.7951269034068855 3.83266985854926 0.7005095240774719 -1.0396602731586289 0.8271796799242722 -0.04880570864879337
Ni 5.840112679451638 6.780677887505167 6.393984536084814 -1.4839754386739217 -0.48797815362088215 -0.06955553960163505
Ni 7.623658815805417 7.3593691999576505 11.295431991587451 0.7148399552775754 -0.02561718634747201 -1.1262077193325701
Ni 8.07516080772203 7.311056623376624 6.2425375338759315 1.1153414660420276 0.8942273655023889 -0.596330868595373
Ni 6.825373186656417 8.708732430270715 7.55422809859333 -0.15793232567483123 1.369488585777235 -0.10337351659234455
Ni 7.420223498536361 9.230999695542065 2.4435238841398292 2.1750455452254087 0.14511100554044687 -0.5703164468094823
Ni 1.4536157235101241 3.8863535440411656 10.56945080560864 -0.36061547320279186 -0.28885726952288315 1.302156279079164
Ni 8.03554431223481 7.750985154425746 0.27489846940065027 1.4430596742961663 -0.17448020273118336 1.4804982787585987
Ni 8.944266517459551 7.3816483404910445 3.8751244552926205 1.1071841270422158 0.44658544960670826 -0.9629413830393352
Ni 4.741054085832331 6.133340514737613 1.283111332660478 0.0016786732540035607 -1.0229013085327352 0.749969966211489
Ni 5.057867300723565 2.7272627603499173 2.2069941322039064 0.6922918947737303 -2.3244356377571838 -0.394884678798307
Ni 4.000590088325968 4.778505695585064 7.082156951837398 0.27313497369161993 0.7495691312286445 0.7601548771642908
Ni 6.476662161702612 8.709088677290314 4.792821345049574 0.49384026882861404 1.1190202004451952 0.5989816759546588
Ni 6.844875427344731 4.571434831808305 7.395881779104876 0.18252364186095016 0.9515146292596321 -0.06162600034191322
Ni 2.1305672715992303 1.5243901314038266 11.492709716140821 -0.8959407486490698 1.809619023787219 -0.20354318153541073
Ni 0.32470819691788955 1.9957506110283534 3.0738070726614435 0.3615405561202225 0.4504102226694372 0.2980841874377899
Ni 3.311087683700214 0.3898009215759334 9.764965564864717 -0.2323405653830773 -1.2190127163804487 -0.1343152004765235
Ni 2.2081925837159937 7.716383520829807 4.521958514963254 -0.2590232168805862 1.0542235156847846 0.9663349821019164
Ni 1.2956156030484087 1.5847328958005482 9.185967331903042 -2.215478456429475 0.3222078199588709 0.6453201540098822
P 6.766318392253631 6.152477373867364 12.826285722762261 -0.2096544366394712 -0.23127844266715006 0.6250881432337234
Ni 2.038354100756829 0.16853041697950838 2.4989403916732216 -0.4701879195169966 -0.9268533790675263 0.7512298067605191
P 4.489141770280896 7.86072750554022 4.483027109898339 0.06312726747778806 -1.3033281879000778 0.20985112603130956
Ni 8.97132302187116 0.5338745239330104 4.7881819127097165 -1.4246091809004628 -0.5252714907547018 -0.5188311344459968
P 5.081507487562608 1.8528590180132285 10.846971801145875 -0.04935901004910209 -1.4660329952628879 -1.1881173123531732
P 5.305751284591841 0.32833095507104426 1.351772008237892 1.5605922559977123 1.2318047259387945 0.3030980957126135
P 9.486218714198499 5.757399429131881 10.052432246426047 -0.2812280351123995 0.7871913124567927 -0.2211873769797352
Ni 8.03295010316901 3.488443892226818 1.4799971854922875 -0.9052792524411764 -1.0998616252388735 0.11966736865636166
