# total energy = -340895.77158922574 ev
CRYSTAL
PRIMVEC
9.04485260602289 0.00000000000000 0.00000000000000
0.00000000000000 9.04485260602289 0.00000000000000
0.00000000000000 0.00000000000000 13.23805605663406
PRIMCOORD
 96 1
Ni 6.391418336975462 1.8583825134439644 11.406663282234419 -0.2825542101229908 -0.43056979090474234 -0.5506084268575936
Ni 4.605277059836218 0.6139537286692016 6.018589520087943 -0.8626485622548434 -1.784983484626726 -0.46741909852260793
Ni 2.7328026663167866 1.7648316048300001 4.832790373206111 -0.11227339018513567 -0.8461621345640459 0.2511823806799287
Ni 3.495754057925131 4.449741777565531 4.99023050139714 0.019103553598670327 0.19700563752720912 -0.42685686082952934
Ni 5.15724822381918 4.703223766727896 2.6270520607543055 -0.13575039026115332 -0.8185420588539322 -0.18234880684598273
Ni 7.183032865913174 6.279280256631661 2.6740608722538077 0.6025002306308784 -1.632656935174446 0.11736854531985592
Ni 5.098085844118518 4.6035494930233725 11.644114174961768 -0.5846593457947157 -0.24634767829544674 -0.24532566478883558
Ni 5.713199122868385 7.958945531044075 12.252482707259595 -0.05303543045942479 -0.27942106381064785 0.38760228620428083
Ni 1.906293096730068 6.3237628408493425 0.453047613029571 -0.05799097469248723 -0.14291785454387002 -0.16856846523243874
Ni 2.8457005142641423 1.6278925391415715 0.4792179890310834 -0.43544203139537907 -0.7059778769012551 0.4479141957204609
Ni 0.6883286456605741 9.192193069253182 4.858326705052751 0.060504999363592576 -0.5469433193011807 -0.4696603291483008
Ni 8.483926855395977 2.216115471637032 1.1343411724753194 0.4793125075260842 0.5522361922690038 0.9488039151966885
Ni 6.665215064680509 0.8018487794546514 4.7145216918898125 0.6692946625476086 -0.5379174616534865 -0.013330912780951235
Ni 0.9348488119127426 7.267945940462907 2.487006992743723 -0.17625143569899324 0.766467706756196 -0.06048494475893454
Ni 7.520252098810246 3.930341127158792 3.8058749129620635 0.4204751256729017 0.06235465097782165 -0.5972340971359327
Ni 7.5005524102323475 3.7991364979067215 12.48312915750891 1.0284145250414805 -0.2829874410056674 0.8012020249135878
Ni 8.209506032873723 8.886006725020376 6.686091488558677 -0.4572750681100705 1.2229413620108938 0.7470936731049586
Ni 6.834136728537649 0.6775969282603548 0.3494605361667375 0.6034772498321671 -0.4729816802120499 -0.21305394923932341
Ni 1.7148949746010824 6.572966614815497 9.387356563445978 0.29928977771011683 -0.4029204046185899 -1.5032597408248303
Ni 0.0634867236442305 4.801821702994048 1.5288369333428002 -0.7275054665603858 -0.5745716225414105 -0.36199281316629267
Ni 6.379099247974956 1.8910796549541145 6.85830547869789 1.3587717135803632 1.2120684238521318 0.6170020237914794
Ni 3.46056958199858 4.150709911599536 0.7173011169428182 0.08398971274909406 0.5193083311927316 -1.3386536026742493
Ni 5.925807423929958 5.711417286940999 4.9828309076296575 0.00097701920128864 -0.40640579206402905 -0.9535974799305899
Ni 5.137928419043059 2.9090777951940514 9.230327071554964 0.30412396587396656 -0.028217342974480437 0.38606836605825773
P 0.19298458924402837 5.370136915305874 12.344672365583856 -0.19260596579761669 -0.030062366603019194 0.21673654029723316
P 3.993754587498394 6.091952318093151 12.852086777559265 0.14872520525426644 -0.3279791752250093 -0.9662712187435165
P 2.4346300613310046 8.428753255613982 1.3158216139221806 -0.0537918490094751 0.6189221236323277 0.929308011255606
P 6.482834660417532 7.934253083928526 5.945303603328333 -1.5025105213636318 -0.34041662965741376 -1.0765525181992879
P 4.644839244335636 0.8416027148254428 12.587855885777076 0.7133039782490231 -0.5016016579415878 -0.5759931854792855
P 3.988463348830776 6.395000098535079 8.2304168271911 -0.20012669965469404 -0.9951069120282863 0.09838943311419185
P 4.60188524017749 1.0545755234396732 3.797825898790588 0.4379167181881167 -0.3611734025887909 -0.7050229691871536
P 0.15521509449490417 5.612041493366444 3.5978252175218235 0.2628032527483087 -0.7291594572240411 0.7867470258305225
Ni 1.2483886211656738 0.9911982425097644 2.5590085404592275 0.566646711267379 0.3202686939546291 -0.2551429079895735
Ni 1.8590427876708637 6.666589882248847 4.815051608633578 -0.09879669585493953 -0.603721247522173 -0.3829267351054825
Ni 5.957717663279282 5.631117087127138 9.223244952107537 -0.08022741749318442 0.14713163551490147 0.5329629458616886
Ni 8.642654970572082 2.2066997802643997 10.054051731080555 0.24293042508378165 0.5520477304072815 0.4657627938661075
Ni 2.370474923092694 5.455466053067079 6.952560981315628 -0.2319911524634585 -0.7515460524493572 0.7868506412879223
Ni 0.4640208279894918 9.123723536408969 9.051759072588398 1.0351410451320364 -0.17275782072343795 0.2925313759403607
Ni 1.822094565521773 1.2604001851837872 11.53209367769947 -1.5095108639408648 -0.5039066519256805 -0.3311627151593135
Ni 4.216863962223392 7.028573921080856 1.6120513846074425 0.058738137271156905 -1.153610279715239 0.014444200449788029
Ni 5.618951760617828 7.945929988406979 7.966767519419727 -0.4780002164725639 0.05636989414929646 0.1143420997887063
Ni 5.2628106964512575 2.912342986918855 4.849483552838512 -0.3365728304312913 0.383575681543391 -0.1267715838013107
Ni 0.8835608807317871 7.371690397757907 7.019690971515955 0.18177236551722242 0.15567129755479642 -0.09920061616157755
Ni 5.20581003647976 4.572616097735762 7.220075154527466 -1.5516543300781342 -0.2308434120122605 -0.05574383052952335
Ni 8.043650573988074 7.334850713837895 8.781689728566983 0.7152875843379551 -0.014443686229155768 0.30578669828837013
Ni 4.704372462985652 0.09551183261933086 10.135042053134315 -0.09009068344050936 0.4829570462572069 0.4721653549583416
Ni 8.209288956415564 7.003329737967487 5.019235534148109 0.5514422356127986 0.5692129293326584 -0.9637607936168371
Ni 7.083684206895889 6.06874322677502 7.032214474181225 0.400391210438833 -0.35893191485278186 -0.14539228422629155
Ni 2.336113528736661 5.0692508545931085 2.575569665246249 0.1680406177534267 0.7479318527355376 1.275093875644733
Ni 2.2123889924386417 5.224062548669935 11.44514641583974 0.8300611152371252 -0.6019749542550278 0.012330239430578765
Ni 1.078354440460471 3.3130661286797625 3.8255329952188157 -0.6645640898411587 0.18572209419358984 -0.04655445072077144
Ni 3.5774381201597545 2.674879431398115 2.714939987266055 0.14319501946465663 0.3295714594127937 -0.20516940428492408
Ni 1.0711456930791186 3.53791211507003 8.23318364754738 0.35258746069199276 -0.26871113359231147 -0.6902944047277273
Ni 3.6381381247723734 2.7025657246657686 7.1696121138875135 -0.3523349783615545 0.6273823385845388 -0.22886983322565746
Ni 4.064150673908766 6.957969803064748 6.003352561695689 0.7940618143243808 0.4574429611465025 0.15580319514697039
Ni 0.8259677829265646 7.2775244391791585 11.417280130008864 -0.7503204075723724 0.6272129028862101 0.8888445039239208
P -0.02225033696126384 5.599903301414405 7.941960202678402 1.2551336304727223 -0.5790083181565254 0.5026640377678311
P 8.585120664307611 1.7369101453993412 7.837432461163547 -1.2848486410386517 0.11940922989896853 0.5102248808342245
P 1.8098840147503479 3.261338617671036 10.483150383863771 0.6559141274756445 -0.3342711788813082 -0.7746720969438593
P 4.10345055768791 6.211859926668547 3.787235281088172 -1.316970204163545 -0.011869240633760204 -0.13486387389114193
P 6.753673721380168 3.804563409360688 10.436009517518889 0.4681413214006131 0.6806016029199955 -1.2418474548867775
P 6.523138522815659 7.65306671179366 10.141251344322894 -2.210680263709883 0.39010782623495394 0.5577036431414782
P 2.597907737276019 8.585111619455187 5.855271142307024 -1.5666266351172504 0.7036093766690785 -0.11686949419625034
P 6.86672533181872 3.762522935297292 1.4596148687769692 0.16933979618082448 1.4769840949577533 0.2429247686568268
Ni 5.270634493797393 2.6262362150657252 0.44393040178690674 0.08432627015290639 0.6597383863177413 -0.11589118944338105
Ni 1.4320081702106402 1.2780919165237188 7.057988685646598 1.218682843844856 -0.14890518247555645 -0.8090436324451937
Ni 6.911768696886644 0.7286777323208172 9.043736288488951 -0.04022902272337588 0.08398405632213923 -0.16547388546751504
Ni 2.8008832705068003 1.5232526414566685 9.287713946724937 -0.07031967146116921 0.6862958250912955 -0.22575262775291444
Ni 6.21247497663333 2.069661221199315 2.6319109554760898 0.9305400838904943 -0.48594826767504706 -0.04533806181516708
Ni 4.161663227884127 6.818869017647155 10.587399543923988 -0.4954456656425209 -0.553981971315517 -0.2855256340464889
Ni 8.325497220349838 6.906061395007555 0.3041494434670841 0.21529260876185505 1.1962695091466624 0.29303376949807597
Ni 7.491154808564562 3.7841039531792333 8.22498901125189 0.2444615170163274 -0.27006841895115424 -0.26162980126549784
Ni 3.072491143925415 8.169998117488843 12.449570946048064 0.2952801423300914 0.37533683857336647 -0.26065741004989945
Ni -0.023197333009981044 4.68237538189224 9.9944407266997 -0.2607214305186155 0.8778550947919527 1.471221995662995
Ni 8.525388458904283 2.39993400743531 5.6388694301391284 0.3000824488147413 -0.14080337930402848 0.13879123397000612
Ni 3.872001829028649 2.5285065846322072 11.605048552860387 -0.5755836087456926 0.9153682612460623 -1.2012044845544345
Ni 1.1058507918272362 3.320166337832036 12.758440897994857 -0.23785352478150648 0.34278847232369997 -0.5935594764978229
Ni 2.9904995567083996 8.391877392284277 8.075994966253717 0.5915082503957491 -0.01737242984017653 -0.18401822412860566
Ni 5.63559428907666 7.772938140959363 3.7609319457560373 -0.30614588140000176 1.319110133324683 -0.1214987654381456
Ni 3.1122523151781447 8.386875588894204 3.598130029048488 0.25141018042001867 0.259712786748443 -0.32272178348081193
Ni 3.3740465237175026 4.576360666638999 9.239381873315908 -0.07177722984330218 -0.4785851424417563 0.3677112037073087
Ni 7.208566484304088 5.979805192896928 11.373978803517662 0.7806087741432686 0.3138221669983369 -0.21515068386735203
Ni 0.6356686103670074 0.02184512757270099 0.25990021644192357 -0.5703267312221274 -0.006250608895402138 -0.47379954812765496
Ni 4.7307110732422375 0.280306307994081 1.566207550100058 -0.4329208076354222 0.351492170745285 0.4914290882839601
Ni 6.205040107941396 5.683830487050002 0.3431029093984154 -0.8746029064032422 0.04038971667095625 0.9096424145058787
Ni 8.036143346476752 -0.17439922648467676 11.04016767101368 0.5866858893064412 0.13567042895283732 1.0905573171188119
Ni 9.119291558721562 4.809609320930491 5.821395456526121 0.05161335330091756 0.01786556742651117 0.12544258057724203
Ni 7.966181412982698 8.535102630406882 2.7260470660418403 0.41066353889911855 1.3304664388777667 0.2224202209455718
P 8.39784699488364 1.4982978936208444 3.538267577770265 -0.18514333887198436 0.6693429992870408 0.09252397547235033
P 1.6111957415682003 3.1278365959034526 1.6419156783386217 0.6580481430995118 -0.42694659232985827 0.29870819417503397
P 4.814674438287526 1.0965345938312598 8.094541436147647 -0.4859814349058275 -0.5793813852252281 1.7694529930912948
P 8.527957196992494 1.6583465572507485 12.20387205239593 0.23705262614676595 -0.7821051561831368 1.0658425879809514
P 6.4888585321314345 7.8155484407254265 1.345357579510395 -0.8341234582319569 -0.475561010903452 -0.49639671670188057
P 1.8634928550631165 3.390670962471488 6.02882286611964 -0.7340445532304842 -0.06194764534739009 0.14469731504179598
P 6.820804616065738 3.999389530558096 5.962447216611414 1.097956952016993 -0.6528807399659594 -0.07929693525911503
P 2.3021681975920987 8.5275320889286 10.25765316809903 0.4968070647664219 0.3523334356996577 0.18510760053804248
