# total energy = -381173.93068612093 ev
CRYSTAL
PRIMVEC
9.18387655334209 0.00000000000000 0.00000000000000

0.00000000000000 9.18387655334209 0.00000000000000

0.00000000000000 0.00000000000000 13.44153165628167

PRIMCOORD
 96 1
Ni 1.9917623503500068 1.8435070356923213 8.459669769463202 0.6173424378500335 -0.04462535201885863 0.014359096935149463
Ni 6.460443682867003 8.08428158201115 10.56084974010455 1.100080683228215 -0.5413593974554999 -0.7457626129983608
Ni 3.3116047610171644 1.0157183479223613 0.6877483504375116 -0.4944393358651936 -0.4113325399416851 0.1081143737114396
Ni 5.632682546725857 4.47499983939208 3.3288759587341463 -0.23857111967382136 -0.29162711895853644 -0.17363456690143644
Ni 5.658874961853388 6.402732204374225 13.092239210827953 1.4314102629826961 -0.40486158750536083 -1.9292565676469096
Ni 7.883696540356035 0.7651730193479753 0.8101005420702324 0.6096388985581888 -0.6183431112004061 0.5567127399831187
Ni 7.980108873458703 9.044474213993452 7.221758555793142 1.6273910587898166 0.8272218460161171 1.376840398156616
Ni 1.2619656224014864 1.000087390507545 6.269520079049953 -0.7138863331150545 1.5506896521720197 -1.8752469461996737
Ni 6.569740994379181 0.943257564136873 9.29248020077865 0.8446441552576227 0.6337198507667925 0.034135765341444434
Ni 5.90520489121896 5.691982835813677 5.247009336236876 0.07918149272717331 2.9510114212800276 1.1670378659750547
Ni 7.175279876368556 5.782131765298893 10.67092217077408 -0.3317450700253448 -1.4130780403324115 0.8820974150080744
Ni 7.6867299459520595 2.4251035522407878 12.633722248912944 -0.40629446329714547 0.9438576269350067 -0.23063592398714475
Ni 3.5454170670241028 0.6196489894935605 6.769719900200348 0.3110024381613547 -0.289236764349489 0.11165272588200127
Ni 4.3523767234093365 8.444408922262145 11.153957327172247 -0.5136135948007994 0.24543159423908056 0.4567284515779812
Ni 5.8491924298364895 0.5491535552302642 7.211126382233133 -1.4259343274697893 2.0329314175297566 -1.4922237947256431
Ni 8.8630375543653 1.9215608001274118 9.136544410394754 -1.568615897633137 -0.4776150652190032 -2.6758007960063015
Ni 3.327869405894744 5.318042945649707 9.488887497117666 0.12204435352897045 0.8685762405931879 -0.9331968047870509
Ni 4.1355454046291875 0.30522888306030904 3.7396358456475185 -1.410169865546681 -0.04528355442814782 1.4584037608524045
Ni 0.4627589943650114 5.020935364376661 1.8102108922684572 -0.35411006798410627 -0.3311727424616425 -0.24920443101795145
Ni 2.159946676517769 3.075606692457508 1.6983108702208143 0.5480648345001335 -0.3004776273706309 -0.1964093987041069
Ni 3.8413491121343424 7.788551582178893 -0.0029691471987133527 -1.495499123042805 0.7634525740789562 -0.27117964973746195
Ni 9.167418765645712 2.5103850273018833 2.086636384177128 -2.2709813745927856 1.6318352106040992 -0.13062926698450406
Ni 3.1115983035671815 4.1381077061090545 4.471890178886405 0.8098033934293537 0.29272292312587656 0.289032875868799
Ni 0.346348770680226 6.6832353373476305 10.52521630016948 -1.4250673514838037 -1.986840279598649 -0.3279280102720997
P 3.0181982818817046 2.6686048477146076 6.371124057409141 -0.4158332560255162 -0.5396113044161416 -0.32941667900248434
Ni 2.96994619594901 8.020380170911094 2.265690746300341 -0.9363957713403228 0.18152888204784864 -0.2547153335338517
P 5.273133790679994 1.9667913907666423 0.2699784107657793 -0.15613178213098272 -0.4228577669724653 -0.48437886630539806
Ni 0.524673014639821 2.145500439142031 11.08590296722203 2.0076896122438326 0.441260437849369 1.687863662253577
P 2.881689144975811 7.599620879512851 8.494254410728017 0.17293779794472797 0.08234832049092915 -0.01907861389800585
P 8.140349146651252 2.0451206714898906 6.512206764698453 0.1211670931303397 -0.8816932375911203 0.5071670678445072
P 6.6742259547248715 7.86568695898679 1.3953926504305216 1.1700067187953915 -0.4769303804471528 -1.0300626021678647
Ni 4.277151592866 4.227466822234885 11.28728425094992 1.4741882773801709 0.6173897461482012 0.23342505669650765
Ni 8.274433740221356 4.351430784153329 8.229537442678424 -0.7992616133577654 -0.25173568208023744 0.41823363793689255
Ni 7.358029830303591 3.9549720293705986 5.602496982195294 -0.38109816653717593 -2.1841577919393225 -1.4486001444984213
Ni 5.043647090397132 1.9634851953087493 5.152313469609431 0.24748590566494794 -0.7935877029014398 -0.3652131198758033
Ni 4.272743332255475 0.6353543363061795 9.138090975158946 -1.1253872803138039 -0.5798750370321948 0.09626827300613097
Ni 8.412577607103653 9.016637885013248 3.0053114666969396 -0.5149222863098939 -0.72763402171845 0.24538788548533869
Ni 5.817058046761025 5.165094670217068 8.257536326268642 0.7311001258901796 -0.16202217947348868 0.26194141896864565
Ni 4.823289163128563 3.985811485891723 6.085639589945843 -0.018284657241800766 0.7059159133150681 1.37437753843842
Ni 1.8764036804983566 2.198408750344591 4.15348702531402 1.3998674551794086 -0.7987877590451404 -0.38404362231874506
Ni 2.7557506496589035 0.9456821074726612 11.420435762690795 -0.7889872280149508 -2.0945857000064443 -0.9909203847507643
Ni 0.787990359945573 6.054222467607215 13.095277237098706 0.1348661878839871 0.22006277645698877 -1.3222926448177228
Ni 4.873460679202089 4.330868085180489 0.6726987323907081 -1.6903797438072115 -1.2167887121459366 -1.1063644593543978
Ni 6.215463783313403 8.969919506417964 12.92563175621608 -2.554854046416884 0.7250346364223901 0.4121223828328322
Ni 6.4709224856932686 2.8858953603083526 7.594827814486534 1.9856447166286513 -0.6823998324709989 -0.8068659080675846
Ni 5.037402054532223 0.02982463819307644 1.79771071827474 1.560439532469932 -0.13852692456502594 -1.1022470947519147
Ni 8.821021320421243 1.7244656314556293 4.466284340810023 -0.9476322634860904 0.5464278131173428 -0.12660651897835615
Ni 5.439821145015433 1.4782918279866797 11.220761761561857 -0.6341916481968884 0.5600227781929581 1.216335683768918
Ni 3.1873101795529313 2.690223692458719 12.548677717859665 0.3159872929704558 1.9009939732567904 1.642897381955532
Ni 4.385778481410328 2.4742281064193143 2.562547607751163 -0.12821114446131468 -0.176484891866038 -0.2574515015180921
Ni 2.5173923248973624 4.674005254328423 7.149133380622386 -0.5724098390034013 -0.21692448793832317 0.2064477567767154
Ni 9.148114257722126 8.070615974118525 5.250100628990006 -0.4991369984511791 -0.4372726568462147 0.36508122228362927
Ni 7.969529047993446 7.640351370778838 12.585077093075812 0.40677603091925424 -1.731447974602431 0.09482768390486249
Ni 1.1360730464659383 4.031189018551304 9.191385927552554 0.5741695020069854 -0.2391437043478398 0.688140334499202
Ni 6.694761102068896 1.6481935390172922 2.8684900779978006 -0.05046818395288082 -0.15670719501847852 0.6621361971259565
Ni 7.18603419548298 5.522071940906793 1.6056308644350559 -0.580231391930349 1.9114426793939405 1.5444824949200433
P 3.4127559742761466 4.592682029940526 2.3990709365603893 1.0212488605309769 1.1034115473736612 -0.5237154591214916
Ni 6.981279674000413 0.20361204727434043 4.962183352702276 0.2964103992797928 1.4659998280321074 -0.5495434759281891
P 5.003880906139696 6.386458375620374 10.849869999932539 -0.23478028517282148 -0.9069913500362766 -0.0018823046243774033
Ni 7.883972056644193 0.5504494001722328 11.458676505099465 0.9681476098306229 -0.4898835981737112 -0.7537821408687276
P 1.895845946566022 5.826370497300756 5.335979056008776 -0.527619165051272 -0.3284800261208279 -0.1195706951774973
P 8.430421878700002 8.881533881176958 9.455901768711792 -0.09221827130647343 -0.34615276081024254 -0.05010720106903629
P 3.0851487399040374 2.6738396571896046 10.175158161863026 0.13221306653185616 0.7421008478760575 -0.20595590474196143
Ni 2.6818296295461796 7.765132697685483 5.746617715755359 -0.24728330273583862 0.49182452395016585 -0.8705405634084105
Ni 4.085961656637065 6.311168957943132 7.282016723176123 -0.6555762845202516 0.1155813715124461 -1.453889932142451
Ni 7.9558634401008215 5.910807055744835 4.015979601057369 0.31168429471972775 -0.2671116503156755 -0.7477117663049316
Ni 2.509191123386533 6.994339146059089 11.19080028361233 1.491255774385419 -1.3150948415177028 0.29579230607981954
Ni 6.12800572957586 7.445588906680125 3.4178585359328277 0.15030334837466375 0.3485264032487417 -0.0003381000657090951
Ni 5.107171962570037 8.222958113717215 5.480824397406696 -1.8178193002098242 -0.968919197889325 0.7467252340219462
Ni 1.0360514499884033 1.166618618946361 13.29475011133729 -0.3795873863196043 -0.6671202806041091 -0.2428023841463496
Ni 1.048927244521642 6.938501178325786 3.4445404516656515 0.4796621775560191 -0.1618018359325665 0.25654518765373885
Ni 0.8478361712839451 8.397139511090547 11.809326085037833 -0.4987952988410441 1.877657355413379 3.1596602994731198
Ni 1.9077115147093489 4.551923987045724 11.463986622359892 -0.46453792032007096 0.029113886646820828 -0.20080367111706063
Ni 1.4027636295263683 8.669891452490447 9.75109175661926 0.9722865716996609 1.1398510211476176 -1.729168948760267
Ni 1.2401631001319364 0.7792316971450381 2.159126556366686 1.5517949694210564 -2.232254647446549 0.3482739209183034
Ni 7.989549898266243 4.832041397215708 13.056485462113722 -0.06541400662943572 0.35999198068618005 -1.6179677085933875
Ni 4.448210472306874 2.959228612339674 8.223193220949778 -2.9032416100949163 -0.035852233811918904 1.414636385958467
Ni 0.7897307044991028 3.466325524570285 13.309589418617465 -0.1793215899838847 0.6743648779816644 -0.3260554758397352
Ni 1.1393792419238316 8.407306062123567 7.368311179790012 0.3038802252942766 -1.5734634555334257 2.1344236579389886
Ni 7.848604949121009 6.827468114198213 8.748044402789274 -2.4047558720744906 1.4853352951359255 -0.3191759751110826
Ni 8.594840815596275 5.5851835386474615 6.330464281990447 1.0399011855248412 2.4191093125826852 -0.4040869141228654
Ni 6.72445257405603 3.4226653767735535 1.030855212793748 2.279909530320351 -2.775961719198619 1.4105444752772804
Ni 8.888054433330025 7.270663615328769 1.3954055078573022 -0.6567332809428303 0.3709821611490966 0.5385751498421434
Ni 0.7984443663059052 4.377568096023228 4.092260877371978 -1.3648235762013978 0.19005466013067268 -0.29267330083486365
Ni 0.7137396386746865 3.3399370193160527 6.286510250153015 -0.06023786174513496 0.345277814404457 0.5174360538706831
Ni 0.5974111514887213 6.274350797968986 8.225235715032653 3.6264898440408446 -1.1671394245499254 -0.3896694531459547
Ni 2.9593571866074813 5.4324740439978925 0.10907598009402604 -0.11665480708228297 0.05651824680170266 -0.06517155160132647
Ni 5.651426838196857 7.70777020649104 8.036610835446467 0.8001568714785251 -0.3394655785980541 0.7952874592013658
P 1.5404115670899803 9.142346783423356 4.200411122737794 0.709492574922733 -0.03541797448797771 -0.5227494956637965
Ni 6.426380685774432 3.4471404070382334 9.897536929263751 0.31376071763278224 -0.0900289769646385 0.7560876490734526
P 8.312666217141379 3.736652922634397 11.007417560602157 -0.16586520736866273 1.2166760978274724 -0.47440632847371844
Ni 4.719538912884627 6.309809744254888 1.6864958133969827 -0.5169791688389226 1.098937056542075 2.0062760197257576
P 1.4959707898101355 7.950591895120737 0.43913071749260274 1.4798737578007222 1.156931630778988 0.3850136995414982
P 7.040552411459417 7.5401736484046795 6.06582721366442 0.21174962860560306 -2.205030007402641 0.08895631272575003
P 7.6385329632769965 3.571269678729572 3.24587484015137 0.516072083643621 1.0102026300191442 0.23893775898462077
Ni 3.880417321795111 6.493303592167949 4.015361526184268 -0.2642345858781965 -0.3611278940628361 -0.08428744649517096
