# total energy = -340892.1186844833 ev
CRYSTAL
PRIMVEC
9.06397139083243 0.00000000000000 0.00000000000000
0.00000000000000 9.06397139083243 0.00000000000000
0.00000000000000 0.00000000000000 13.26603833075444
PRIMCOORD
 96 1
Ni 6.138284716175183 1.9467779472925086 11.520082205389143 0.9319403066721305 0.5815647660297919 0.17645686684157996
Ni 4.5126251545792355 0.1949207091680187 5.966082851812076 0.43702865915620864 0.706857451292731 0.44524899018347197
Ni 2.614094728091255 1.3358300058481407 4.66953972444884 0.7450241921704395 1.324366753737932 1.1538558200671418
Ni 3.367093232385248 4.580668389349025 5.153073604376506 0.5633703545089523 -0.9639603112221528 -0.6511326469266012
Ni 5.278023172016305 4.5644710721073025 2.6600128081956576 -0.46785927138382005 0.3251807865442658 0.6850200437026654
Ni 7.504587794528455 5.849497517160895 2.706337860624713 -0.13731927741016997 0.5644651302350279 -1.1326311063604109
Ni 4.820310734370799 4.370783063076314 11.445871844345561 1.078665964997865 0.2051521778937435 0.4051986591298054
Ni 5.512054918620269 7.840317302437473 12.53929861942384 1.024620862327003 -0.20552447363149767 -0.6458582859015393
Ni 2.1060591201457797 5.976003368723696 0.3400113280908805 0.042986530863855 1.6942816499647788 0.29867348428235657
Ni 2.6914738536047342 1.5846178982100927 0.25484443818227615 0.05671390775227651 -0.2171134640206777 -0.7028742982752669
Ni 0.8357289986376423 8.777205662467377 4.37228768236122 -1.5052076085798205 0.9527490158873656 -0.8078161877959957
Ni 8.583952724072988 2.1885321976961074 1.3487053774999969 0.15357404870613553 0.44177774380541984 0.6433895126460726
Ni 6.847377342059043 0.8178204035586295 4.953631786176494 0.00841393509530809 -0.24345878678342583 -0.9541960327465372
Ni 0.4879797579954138 7.346611833584983 2.2841199357484214 1.0115935968293999 -1.0624528455731121 0.2758271758118024
Ni 7.906783406149589 3.760587431274399 3.870459988561719 -0.776682699615985 0.08907329791958853 -0.4735645492987135
Ni 7.753430070719983 3.8922053628172404 12.589802162758568 -0.12418248291789581 -0.5886355568336443 -0.4056766272074884
Ni 7.86133665256817 9.238996887331 6.953579897247218 -0.03816468399517944 0.20250805540267702 1.1313833499962385
Ni 7.025801622922678 0.4823891003151146 0.3831349857522933 -0.9276324233253959 1.2384520560519832 -1.2308048239193707
Ni 1.7206227920053085 6.483984592839597 9.202597790196524 0.4748405877976596 0.5652945681148587 0.5401748902290955
Ni 0.20177397809161504 4.649844620568291 1.2473157912292014 -0.3787751748309541 0.32502394925142736 0.9332346000035218
Ni 6.398919219412865 2.0976840103912457 7.033494215616047 -1.005961595354603 -0.09101988012299808 0.5461663319258401
Ni 3.710273324946026 4.212290455751879 0.6106578943533019 -0.00567982399359667 -0.6182081282844385 -0.715919047274367
Ni 6.103361233616504 5.834732307431311 4.956682719015646 -0.3321757298048602 -0.7199873038064698 -0.6446400972237221
Ni 5.510722514795684 3.0355603433250935 9.206922211044887 0.25641611827504224 -1.0413649145545614 -0.08191560382888473
P 9.364170335069216 5.770387173072615 12.479375796806744 -0.5487963133495194 -1.3875032771871008 -0.8107248768023586
P 4.250993614466013 5.957204691633975 12.733805105089932 -0.9536884969824995 0.959756043332818 -0.6540616476479381
P 2.245580834920172 8.129983706696555 1.302403891397091 1.1560230029217897 0.6152477601045339 0.5227415252439965
P 6.667276226450184 7.7491971959847366 5.9732597045216425 -1.1274490479388388 0.8548833164871278 -0.901905450872937
P 4.663068955126587 0.9508287483442687 12.818230562121997 0.35044058955231905 -0.7384437107394444 -1.3880295820042161
P 3.7528739914463602 6.305107113396172 8.208733304715322 0.2126744544127176 -0.5799907366744527 0.40379586524500777
P 4.686318042269854 1.0919185302047374 3.939137701343215 0.5072169472458362 -0.20734301489747514 -0.24476233608619785
P 0.6958401930136192 5.397440997791178 3.4698786702817994 -2.0499377222797666 0.3813833018777625 -0.6861073632295731
Ni 1.7373458195995888 1.1006743267662955 2.49049931780787 -0.7532931170474509 -0.26971797759027094 -0.5686663128005691
Ni 1.9942369025682 6.5741348543315805 4.681226809424484 -0.47378103618489376 0.20643078749585092 -0.10735615538917638
Ni 5.718414359942207 5.894672351594441 9.298670450729213 1.7015031074138827 -1.484927775284862 -0.0291640231584659
Ni 8.485110113820618 2.48326536207725 10.446209136234515 -0.4523274942968081 0.32293132838845673 0.05715947993012737
Ni 2.0939224621789823 5.553268797466443 6.917682037741989 0.9062274752870587 -0.6563985233112308 1.0207472383042098
Ni 0.5870281204030101 8.970784903839215 8.917656434330341 -0.5241006103750522 -0.008197962429760074 1.0433006981246935
Ni 1.4293611287453638 1.3016316410171276 11.274899054530847 0.3011839094090361 -0.3691080840548353 0.39050686144558555
Ni 4.113746956562171 6.87210385657243 1.6344153581575047 0.8471916042698249 0.17539988633197534 -0.6771437262783823
Ni 5.4067950164780605 7.912856267118787 7.921351021298385 1.2104414297716701 0.24864855851448145 0.26025477529484214
Ni 5.279564047187594 3.0518573642543707 4.853552850198454 0.29202641127948414 0.32723278397728806 0.4782552699061634
Ni 0.3955997594908592 7.643946357814124 6.732873095286263 0.875904398823485 -1.244627588735076 -0.24216783588614424
Ni 4.987531946342005 4.722302009505243 7.259308565571244 0.3346460457222237 -0.4286748878748747 -1.1414638741606922
Ni 8.269677636931267 7.023091495415529 9.340285863517083 -0.4951008807085925 0.5578615088755811 -0.3124016325017265
Ni 4.633592919496994 0.2721122104694648 10.369333061144603 -0.5904888079922992 -0.42315087273285185 -0.02324225835739223
Ni 8.197419655369423 7.227266519582876 4.466489539156534 -0.31847432105836765 0.020207842406442616 0.6664055139252716
Ni 7.14559107153298 6.047191801637234 7.163011118542977 0.5752143983317319 0.7793437913879158 0.1534452364377551
Ni 2.585117210899432 5.031845703473948 2.460040747657291 -0.5501235168013751 0.0899346174786193 1.8002951752831318
Ni 2.4459943108752555 5.210560031428648 11.379515414689752 -0.36502800044819067 0.376447555139042 -0.3523231512870126
Ni 1.2631641455644855 3.236155098712093 4.013719685222226 -0.12939230925360942 -0.036321460138853574 -1.1458830862743103
Ni 3.680643201799304 2.8093236122935314 2.8906963236921275 -0.2523463190810429 -0.3096716351650732 -0.2297949161430881
Ni 0.9673795604782285 3.5013669076056635 8.237666408446325 0.5015075555658847 -0.2231846099154221 -0.6765433736902219
Ni 3.764548386861771 2.6639556358398377 7.453312000813766 -0.7684358862261605 0.46602916015361673 -2.3707206368666527
Ni 3.9643998965779135 6.882337080504105 6.0107627933964904 0.5591403755880048 0.42703555249923875 0.25454641205615514
Ni 0.8546935464075677 7.651496646153438 11.519166744257964 0.42796834872615336 -0.8788886782627895 0.03043260545824436
P 0.1705540343269871 5.680345679239781 7.813975588185713 -0.6897310760250895 0.13079304625587798 1.5211895858303737
P 8.490811351954385 1.8184049175809693 8.345068127076624 -0.036744920829517365 -0.4138121118304293 -0.9145681339422701
P 1.8562923188514795 3.3749335678156287 10.298531659818208 -0.3641396843059664 -0.6073583300541283 0.7202986643993013
P 4.1627830428955335 6.214839020273443 3.8108815968652623 0.17962677992912937 -0.877647606766837 -0.0006864845440633338
P 6.7618406421093304 4.159148390285612 10.49547997943221 1.5887478924963219 0.13277793789639067 0.4170879543682236
P 6.304726426589148 7.766319038329232 10.325051027913243 0.08223133529709063 0.598104415556028 -0.4066541606294093
P 2.3415048463186903 8.596732924023089 5.769957540818973 0.7727504544411143 -1.3177752165633434 1.6701850140268912
P 7.032871520767414 3.8593031459244296 1.643051510293998 1.0190611088510386 -0.49819186092909046 0.041724633432295884
Ni 5.364058390403788 2.6669648744096484 0.5655918275789057 0.9241267241649826 0.35181381575076187 0.5579008467539488
Ni 1.1361053917343396 0.9947980745555712 6.91241496384766 0.7897009662525238 1.4279788687036439 -0.5178813689382178
Ni 6.844476871148383 0.8316085171501845 9.446679668505926 -0.34426814219302 -0.7222347050797497 -1.2692628707852527
Ni 2.485268499799925 1.5756536303018307 9.06353018039908 0.17254519049199962 -0.19371076882602123 0.727569744139418
Ni 6.382513430824439 1.9574190499459965 2.808341077772545 0.2727030283605239 0.1670170615849188 -0.6748294763229088
Ni 4.0824309346986265 6.939938619995514 10.445639012421138 -1.2154332265593069 0.437911318871478 0.6100700725583365
Ni 8.126530333518549 7.225970371644674 0.30931346909017154 -0.18413572354307642 -0.2220623233855208 -0.016642236542371337
Ni 7.605877677111698 3.945283980482338 8.151595840569618 0.45782194175247604 -0.41009558221079057 1.5082847048432475
Ni 3.2572741525303437 8.18802938079616 12.46896219984031 -1.7932832627416728 0.393664947458593 0.3979057250128179
Ni 9.145909899041971 4.821398410962297 10.144075239045387 -0.20326524528367573 0.38866492314084033 0.9054294048657955
Ni 8.515836977530432 2.673499997930232 5.91982396637567 1.0025371430540864 -1.1177608741167977 0.31766416645224643
Ni 3.7379456302280514 2.340625641073897 11.192623571561306 -0.8342944365921825 0.10644315665660377 0.33713513069266454
Ni 1.1161374623087572 3.4085518384645095 12.570221264920127 0.23203871787194233 0.013479008323041303 -0.27083177947974
Ni 3.055809255870146 8.421009706695008 8.12849993454632 -0.5439837224522244 0.2563240727818682 -0.5620467506015223
Ni 5.683744668588212 7.959780448070325 3.6435171741428425 0.5789784933598545 0.08479678203142171 -0.28271001897456477
Ni 3.265096360017533 8.203528772225004 3.5659114493394677 -0.36547125863319635 1.2186861862789655 -0.4247112752414363
Ni 3.6141952260303785 4.206172274924704 9.311140662850736 -1.4999443032983524 1.5514242163451992 -0.40347267757763416
Ni 7.311996526060562 6.183722405785008 11.456338918744407 0.1416878387915108 -0.7143036231581311 0.005922021911389802
Ni 0.5821362949327483 0.05960467721408468 0.37891298778296234 0.23900846432155612 -0.4967659271158412 0.26057359208684155
Ni 4.37679247624434 0.536890761520755 1.7460490451258912 0.16386951709487263 -0.8043624249194405 0.13265709604781023
Ni 6.237952147842773 5.421596482094028 0.43170699673995105 -1.1000673134917764 1.4004004448647431 -0.23898378173120777
Ni 8.020191818756437 8.926380506991313 11.34007535508488 -0.6984196049380229 -0.2174885879719093 -0.10134363064650932
Ni 0.2605973409541404 5.08207823405796 5.579789071958641 -1.5188578523734038 -0.4691322245589727 0.10643878578122959
Ni 7.800925281882058 8.894466263002446 2.4377406583401053 0.4827127914568847 0.33588686010786023 1.4306155349955427
P 8.616492382101967 1.6101964260534847 3.6851063014130836 -0.026298528685212774 -0.4944174814883226 0.1322043247811078
P 1.8501197541947287 3.1006215314398595 1.5126463381506767 0.02033819733671981 0.3423637260814556 0.03769031546192218
P 4.754551620443156 1.004605291822244 8.256424297663866 0.47542474243590377 -0.24663692740109136 -0.05408444054922944
P 8.711600636056861 1.5448089349612697 12.469372797753602 -1.1630832522026808 1.6930410926894586 0.029432703438820276
P 6.223114426340422 7.761034742888872 1.2936580652042884 0.3835029193239266 -1.0978625925309737 2.019081399020542
P 1.7258980234740733 3.2714139482198163 6.105694299905267 1.0565987007851803 -0.44714157922049447 0.6784346771756639
P 6.9379264183012435 4.112550512311523 6.102337911223337 -1.0588820975027182 0.057881702808132575 -1.3374318144520063
P 2.309345875096736 8.656056618117702 10.287016790302882 1.1121949499932458 -0.7483373157040725 -0.39637977528659474
