# total energy = -340893.96356624045 ev
CRYSTAL
PRIMVEC
9.01316033753827 0.00000000000000 0.00000000000000

0.00000000000000 9.01316033753827 0.00000000000000

0.00000000000000 0.00000000000000 13.19167121820082

PRIMCOORD
 96 1
Ni 6.30837414668359 2.088601663167671 11.236718949170138 0.626334871156631 -1.0475214210742605 0.2953215370909882
Ni 4.7902514660667315 0.496041993686269 6.082165448979745 -1.7108485531845248 -0.9273215769531965 -0.32948224213309707
Ni 2.6279672155708327 1.5862531610589483 4.848480088351171 0.02060842027897096 -0.4030296765029446 0.19231825935386876
Ni 3.2240165345436855 4.228298933376777 4.8952574901829475 -0.29852384607836974 -0.5346349342474728 0.0634262867754456
Ni 5.076175957542376 4.581065023338799 2.7345280098783773 0.4837841701441926 -1.1496464099714845 -0.8126678594613423
Ni 7.17775657187245 6.122378565997924 2.6367253036572964 -0.09846322377492074 -0.6290417285648328 0.7874633351712568
Ni 5.339188994952167 4.464921436756346 11.448207353097292 -1.5253676284674633 0.20715995235239162 0.0562747633323289
Ni 5.545238857815852 7.465754090269868 12.337854067104507 0.10228465440353997 1.206556235784651 -0.06923569436837108
Ni 1.8401088273708202 6.502400453400995 0.4214752153101018 0.3940105037234698 0.04283380733607462 -0.5728867786398198
Ni 2.842552541455904 1.6018279024538324 0.30030589041642947 -0.9497868479352481 0.6915305911276736 1.0052203463132043
Ni 0.3923780291728884 9.141417803780929 4.719465708532668 0.027533943754210647 -0.046748311899132394 0.06635785859994378
Ni 8.374758369146177 2.2863774446653244 1.294902746944577 0.8336804571572674 -0.3609975391325589 0.5742335224757014
Ni 6.719815911692312 0.9268954025272602 4.898924945202379 1.176340117212587 -1.4460346977640903 -1.0213121096687443
Ni 0.6052256177078829 7.392900713710349 2.6784102697899352 0.3318036911774221 0.05907675155749826 -0.360853557355527
Ni 7.431936711963383 3.788537817984533 3.9357218281143482 0.13094679822492286 0.7785524058348721 -0.3573131483024362
Ni 7.613813278287092 3.581199073165137 12.611330482572932 -1.2063608319443933 0.8923268060455665 -0.870839582706068
Ni 7.810660704250212 8.826984685550645 7.030197614264611 1.0435570371098737 -0.35979786239750294 -0.3490784190974698
Ni 6.787612905194813 0.46972446625633696 0.25374480443735975 -0.7178054656638024 0.6111103408973927 0.1531395322718782
Ni 2.0216068409522925 6.2997846046990285 9.183197408099126 0.005014165385139752 0.8219953075098552 0.5497738467714403
Ni -0.07133916559057221 4.799048310743472 1.2599758485769175 0.005850288133189925 -0.40465512792150954 0.26044066605340305
Ni 6.476045972012892 1.8608120571069597 7.119320646895835 -0.2872004506457505 0.6637616485445215 0.9182589525302959
Ni 3.481747859883219 4.088540866207173 0.5236934688745591 -0.5864568040147706 0.6563936382152245 -0.05682755051200536
Ni 5.822249333527872 5.716326670985813 4.878821090641448 1.2609039572975962 -0.21257906648543387 -0.6725393947371514
Ni 5.273437988889851 2.888555712798201 9.114692881495067 0.5974796374878355 -0.329714155638245 0.07827723574534906
P 0.1393723038989433 5.743510363142625 12.460536701651074 -0.09343054644701973 -0.584567814522174 -1.0830918619797025
P 3.993866628005863 5.980989116772491 12.735305604339421 0.23361274722728154 0.26900038269795606 -0.3406367160880198
P 2.32262837631476 8.40858476061319 1.4339478731163016 -0.3906572709805207 0.6258713012566511 -0.01974658649930793
P 6.478001827847782 7.729163706742954 5.64447916314138 -0.8352439449896454 0.5357204540021677 -0.35491559460453714
P 4.728295000587314 0.9373506687414186 12.525861385220345 1.2036151508784563 -0.039782422104260515 -0.03614585379293775
P 4.023312623455566 6.237404520674726 7.867183135246426 0.5203982218228006 0.4058118672337721 1.3571886853639594
P 4.653684057724553 1.097108939125865 3.7241009307274116 -0.742024229001851 0.08647288418226398 0.8573474617569042
P 0.11639505376122432 5.380243941163797 3.4937615015529193 0.3728374691902805 0.9709236299138634 -0.585125743908173
Ni 1.1520171130712555 1.0368199083443947 2.5795521224708557 0.5983635827546857 0.3593062674730651 -0.7493431312607676
Ni 1.8354400102165664 6.526465592014618 4.7001793476317575 0.6881914994521116 -0.13724805785260236 0.0360671780362024
Ni 6.123424092619341 5.573828603015257 8.77351681465786 -0.8389139376420649 -0.02403647212391344 1.2163187144880536
Ni 8.574012308970659 2.6205313581340386 10.042054264421699 0.9567041438803716 -1.110551757962868 1.0869207488074892
Ni 2.253488421893373 5.352032748706629 6.913873764471569 0.7909101560692765 -0.4073866679200596 -0.6294549048428515
Ni 0.550632904381023 0.33833601995437773 9.517751505895347 0.42126291168151964 -0.6438620814071169 -0.6155832890670817
Ni 1.6540862072035656 1.0932603195797912 11.502029441198884 -0.22029340441055612 0.2941727681985256 -0.5716657617485251
Ni 4.165125691225883 6.907361755989045 1.658074530737846 -0.4697824565484619 -0.6378040481384951 -0.5046977803684082
Ni 5.65656040351505 7.9855971369662475 7.746822290852245 -0.26562683824003286 -0.37409242464330406 1.4250861205368812
Ni 5.13999814725139 2.66907624074564 5.236500254408072 -0.2915415012232656 1.3111564256952453 -1.3166619288945067
Ni 0.8726496958807841 7.471270144513889 6.931049243176483 -0.6339828746201921 0.41963617471137404 0.044160753677614274
Ni 4.801833377347071 4.6072662809979015 6.78773458286196 -0.07086860198610376 -0.48760560077281184 0.48904901808755774
Ni 8.43172154369228 7.137278467934705 9.377339083271307 -0.27251533782975 0.10445800790577495 -1.0073245371404007
Ni 4.7227519068617045 0.13608790820201286 10.381120350378962 -0.8855090117927846 0.5976295328021384 -0.2717239522767062
Ni 8.418129697613875 7.016979814348177 4.933605784287585 -1.1637573954515699 0.9382793615162809 -1.1395234626048696
Ni 7.392927753191937 6.263371436160063 7.028139909715739 0.6979722329879592 -0.7373561341022205 -0.48822935039973975
Ni 2.1344696371020264 5.2822889125297685 2.3820863936954155 0.46576870740337845 -0.5911007305446853 1.0722960569157791
Ni 2.4861361214794564 5.126721761791514 11.437601567102291 -0.0585959552663378 0.4056226340411014 0.16761998527624034
Ni 1.1030486119147704 3.314562745222509 3.647338546446271 -1.2248699464921744 0.3242916990710931 0.5018433416387487
Ni 3.3324268293918724 2.8348913550058743 2.8997933213463156 0.7028866395704411 -0.5353389022930328 -1.1205533492602702
Ni 1.3214465047037982 3.511806750248925 8.339418668026267 -0.7412259014702718 -0.29679143676829534 -0.5246847650132964
Ni 3.463478183490031 2.61545694875596 6.983670778295553 -0.3285209066610923 -0.06320388635199437 0.5437978316936635
Ni 4.140663973548964 7.129130570816085 5.737704085129555 -0.8715654051284989 0.01897448421997377 0.33147973217910004
Ni 0.9667155457463568 7.511207458819868 11.326250277973346 0.8803346666806966 -0.5165829618417683 -0.025753969035652424
P 0.38460417821624043 5.654388231827454 7.878619934642242 -1.8009166109172146 -0.8000928510098091 1.462835571371513
P 8.549000788501443 1.6397823214433334 8.06823700322864 -0.21595183961240874 0.8335573013158418 -0.5707172817923267
P 2.0291508563154395 3.3282897887088567 10.345199300404904 -0.41451659409662156 -0.9239161508160734 1.0419485549721732
P 3.8659067879693056 5.916563045308005 3.784188968029075 -0.8278556229453742 2.1000125274489703 -0.1368608497165127
P 6.9640184830771465 3.9786884656742747 10.176240395751996 -0.06802419055877316 0.15149428335897136 -0.9110076702845215
P 6.3508621854194045 7.749398252131561 10.143748853359396 0.18290725045261402 -1.648796006828154 -0.5044872070194989
P 2.3743999703959027 8.522069464839456 5.780735617445294 0.34693823282601544 0.1007489344853039 -1.2039949028153782
P 6.787045076081457 3.8851228462180862 1.526645525213504 1.0398093971419835 0.38622134669635416 1.0109060838440718
Ni 5.410266778887384 2.8401910933971894 0.3418700801979739 -0.47204631288197413 -0.9305261999334232 -0.2507818028074003
Ni 1.2175878559229816 0.9375759977546548 6.910325283171126 0.608223506267901 1.1306829814951043 0.940853035780728
Ni 7.196801380071172 0.6113861129297599 9.35495309646432 -1.962786323973239 -0.30244503550964685 0.21130919863407477
Ni 2.8102493741183667 1.5255855775352412 9.12965202402579 -0.35577202906756145 0.009740881436847742 0.6754784227608173
Ni 6.351619290903877 1.961597218147235 2.66603700301511 -0.6132335578879826 0.5995907702935674 -0.5349766338576077
Ni 4.348931073902894 6.616029368195732 10.236077867190943 -0.35774226542005483 0.2794750569770348 0.12793140843736678
Ni 8.145382446832281 7.138143731345532 0.6337648892083235 -0.7266832277694066 -0.6120454511171524 -0.5038184630872484
Ni 7.806992347914727 3.8390115169494354 7.931584871177484 0.16837434694376163 0.3404346273795427 0.1141217562477841
Ni 3.239771539149159 8.39374909838172 12.616382359049686 -0.4103822602132739 -0.9700512546112391 -0.647915168430568
Ni 0.17945923666971134 4.899022287336098 10.390195701716062 0.9284315221879237 0.009929857519202253 -0.5033001286899332
Ni 8.53372348140403 2.4065138613623223 5.841364444378724 0.01335019605466088 0.5594000570072947 0.03680199931969791
Ni 3.884293635449377 2.6222889244372807 11.416758633377945 -1.0100234241288024 0.05536973501955625 -0.6305607363125205
Ni 0.808332683658704 3.312300441929618 12.419523215977879 2.4180014242304875 0.27282746975353017 -0.09535167472913256
Ni 3.088467613341334 8.243103133292545 7.886482114572078 0.5867010588150928 0.3245575511379701 -0.021238597663802133
Ni 5.339594587175991 7.8633336143843 3.626087316549941 0.6203611700716993 0.6050942166102998 0.18557271309991913
Ni 2.8593530726827936 8.401491403276514 3.5240493261960726 0.7360191604583518 0.26658997348425056 0.34980475574053305
Ni 3.577999401177183 4.381729965069551 9.080421239897897 -0.14209998662826495 0.24353849098142574 0.20911321942402053
Ni 7.214386056264123 5.886522181263358 11.133414609761882 -0.052972438431973294 1.2816761568479411 0.9173045590368267
Ni 0.4728123750537254 -0.16860198349593958 0.2556375681485436 1.3471133034058285 1.2625489491001867 0.19422267546543323
Ni 4.461415317310392 0.5211256194397197 1.651570634099797 0.46091215064202556 -1.007889151394619 0.008395423152546832
Ni 6.289662825424459 5.525175562477303 0.23373378542988174 -0.9075608493865014 -0.04168863798803788 1.1759585655034521
Ni 7.834185053232069 8.428404700617444 11.53565483918609 0.2085573469205505 0.7350886782242824 0.05318044067772131
Ni 9.187204659270519 4.99106468266281 5.575948498371783 -0.5129463935304456 -1.929248854337426 1.3046276234377918
Ni 7.742052526300062 8.931465242407993 2.492408379891898 0.5002793395857384 0.050471012166358235 0.6401182980939685
P 8.361869549589066 1.8052098698008017 3.6862934262545406 0.3677294585397538 -0.9494263792720357 -0.682823807382295
P 1.645082059834648 3.155750856693655 1.4092265764161345 -0.05698335936357928 -0.05852833525319598 0.11007535409255237
P 4.68567176444356 0.9845976562367793 8.220389968758338 0.6142134053027486 0.41420214817999634 -0.5176466272195923
P 8.55865388342848 1.468865758323432 12.326495682205298 -0.49845719877533506 0.04911655502099283 -0.6826381737340501
P 6.218512936205006 7.732606734065202 1.5072933682407288 -0.42385098412367 -0.046268029828604194 -0.5791762111929574
P 1.5121379420253065 3.2960587266555548 6.10254600756893 1.6023567415290079 -0.7736727091450676 -0.8394638966082638
P 6.701320906285888 4.054660395776982 6.0094391579836905 1.2251298850217804 -0.3522984686966642 0.511229667949655
P 2.500440007239688 8.399039823612506 10.00298041089444 0.0621438205185962 0.02493353001688609 1.2631873540151342
