# total energy = -381171.11123586167 ev
CRYSTAL
PRIMVEC
9.20579810496251 0.00000000000000 0.00000000000000

0.00000000000000 9.20579810496251 0.00000000000000

0.00000000000000 0.00000000000000 13.47361606294241

PRIMCOORD
 96 1
Ni 0.21207488834461402 2.6362919811917362 0.22449903328082088 0.5464406686331492 -0.36826784754172703 -0.979316739073565
Ni 8.167623307032503 3.1059073528801777 2.248261152825869 2.045140043780807 -0.793784135182962 1.4548486965112946
Ni 4.536663267106863 1.6847162627411623 1.9340295244419192 0.919190720315946 1.7990001106207922 -1.3292060841081044
Ni 9.371594388343173 2.2348179260547196 4.5557128248398895 0.5123514402589241 1.2217655965352379 -0.9716674500584234
Ni 2.209188984514708 3.10735266316099 1.2360008141771062 1.623776087745049 -1.0858177455512978 -0.057174906549095086
Ni 0.29410867460797574 8.529070552609186 12.763003915312016 -1.186731744859556 -0.1033956280795316 -0.6708715201164254
Ni 6.311992199236795 -0.056283328190186076 7.85629058442835 0.7875512668993727 1.728934721262274 -0.19868251100899975
Ni 7.777113357274135 5.965909430466966 9.729459657930912 0.004942945827572133 -1.444200729879145 -1.2770633406662781
Ni 2.261800119895874 7.8740688214621395 0.3899502372419781 0.41862316006582745 -1.5478740371000954 -0.14525884397222077
Ni 2.2299756763241 5.759708761805069 5.772137509640259 0.8558263971266873 -0.6308232459452877 3.233051410770761
Ni 1.9739440232670569 1.4390503381949142 6.890932865841442 0.8579501283379095 -0.5718773635386989 -0.7469226947447329
Ni 6.189389381912846 8.52264490562825 5.59675140851316 1.083620995010295 -1.6076120763906765 -1.544861732636333
Ni 7.092201988532441 7.118456924334206 11.407437276560259 -0.5409192245942878 -1.0456445157665217 1.7951254581567344
Ni 7.020488822369836 1.3865220549954504 3.3221625940815875 -1.7054957735130436 0.3959105489596601 -0.3470431338349959
Ni 0.3885417501530335 5.89698562108835 10.989593471478397 1.6734798827280792 1.145514647191298 0.8727627678707098
Ni 6.519675001371374 0.8243497493876174 10.2403519865436 0.12323914516802001 0.37892481303494097 -0.6272422134622488
Ni 7.647679837858702 8.040583295088481 3.0032019472820113 -0.6337584173142118 0.8518201041807716 2.9054926109126216
Ni 1.4897558733969203 4.65821662346258 12.867074540748684 -0.23041403778432573 -0.18705623962398107 -1.286296943449404
Ni 4.739890463025433 7.119340680939033 6.99368245926985 -0.8844273486928317 -0.23424498149464174 -0.2393689329847684
Ni 4.410479394373766 4.782283162663275 4.915256311397004 0.342728565620042 -0.5636032964553649 0.671200878431386
Ni 5.832664710693212 3.7247395038150457 7.163436453200763 -2.5391939712821237 -1.0872333949519017 -0.5560090290478746
Ni 0.9835198373959191 3.9970470076776707 7.233943659829698 -1.6376885840610829 -0.1659451686769787 -2.493213133676635
Ni 7.155390585777642 2.7337169410760556 0.0433988933556313 0.3017320686030223 -0.725348311008067 1.7223856072898467
Ni 4.540345586293646 1.3260123449586338 8.273905165140834 -1.2545181083759105 0.8288544965235338 0.2092345754932332
P 6.568907608898666 3.758580017141584 10.21603210947449 0.9867706242484491 1.4310788477852063 0.5935062546623843
Ni 0.9227983940058624 7.518338376422938 9.022620078431922 0.1653946954901474 -1.3322317583083054 -0.5333079879059331
P 3.7699307660348436 2.7395165937952393 6.32339726233806 0.5923297178557799 -0.7503815998276109 0.7142028359142086
Ni 4.752603670017803 7.740382223385971 12.260667455329818 -0.017671192027517952 -0.8832952919709174 1.3052881398399263
P 1.4857881744731616 0.9063236979641939 1.3815978736629244 -0.34684310200904783 -0.5275140069319754 -0.7096640675035907
P 3.318229877190103 1.8452469676889804 10.344004668752568 0.256771444731932 -0.05357279102013354 0.5943457198445441
P 6.817114333683794 1.6401049657932827 6.5936104471632015 -0.562800083827779 0.06920072736537759 -0.45675133439611665
Ni 4.296235441603813 0.19590030131666836 6.160904801843483 -2.0364620563908344 1.3280349466181385 -0.33008028072841217
Ni 7.655458737140782 3.6252708567820617 5.8971724987870795 0.7102261106546478 -0.5904037044776606 -2.689540771300213
Ni 8.933720608044803 1.9802131716825553 6.97042677244572 0.09484542451667537 -0.04026810349142742 -0.1662182198327073
Ni 2.632020490935068 5.690591630669146 3.677151972384448 0.051027398890460506 -2.0666743183081566 -2.496068600847559
Ni 7.833103020509175 4.725759563146152 7.8225255586451405 0.5407551882125977 0.6176717961649943 0.06264415719378243
Ni 4.517487589941688 3.8634984965710073 0.41130400620613444 -0.750365916098327 -0.11481518277038291 -1.6046594215202559
Ni 2.167698453077627 8.104342651807633 6.907383626808397 -0.0749448289380064 -0.0443669561511494 -0.32906006699401397
Ni 2.0966296927727095 2.9664118962868593 8.752851533648585 0.9786801339308306 -1.4943819787192263 1.6851766023397168
Ni 8.684271100534135 8.752090214156716 7.280400719269952 0.9946040042499387 0.12501372056993956 -0.3527666665823344
Ni 6.3994472799228985 5.736086684221853 5.793749040947491 0.9515614233371676 0.04006781455516325 -1.0163082286962495
Ni 9.250354029118332 1.267343794515209 9.159822370751671 -0.41646266207939897 0.6378536704295079 0.08294713041719262
Ni 3.592222042080681 3.532310708911717 11.803696247148995 -0.5813436511579213 -0.5551543943570633 -0.19496109629335456
Ni 6.679533683067603 7.630078352145877 1.1590633576682527 0.047246591691789595 0.06759147389672875 -2.0505699565471267
Ni 2.3704469475019154 5.468943633018692 1.322083310386336 1.1446576985076415 1.6234225610603716 0.36028431511561826
Ni 2.2386935669988093 0.3172870327291832 9.161465605688774 0.8942165668691117 0.08851768252643465 -0.20971254357091626
Ni 4.878677073175296 2.283001072613779 4.457840463174376 0.20455593907064126 -0.0025086253544666474 -0.031269499537242916
Ni 0.3504905048364082 0.07465718035243805 3.3579749893326487 1.9187597818806439 0.7467319188901655 0.2150154438410684
Ni 7.825940909690882 5.5716711325319785 3.1999970521610677 -1.712497401641857 -0.46312458491231207 -0.1369130431106868
Ni 7.012498189734516 7.042113241794221 7.573357748552261 1.3166902110292809 -1.0810964288162284 0.3158073157491658
Ni 8.19602319376057 1.8889560964360983 11.540287067601232 0.7524886188682847 -0.0992911189928548 -0.36432891749863705
Ni 2.636982416039258 1.357735524752772 3.3242237722463894 -0.4370463997680215 0.435865749196359 -0.7079388572823679
Ni 8.040436002321009 0.586772038935139 5.097311092571368 -0.09919907349968077 -1.407202298277925 1.5561943840403327
Ni 5.83775551696894 2.627058565830877 11.886194926209688 -0.4636233789256015 1.124458340741631 -2.1836641401323553
Ni 8.993236091901188 3.720569277336013 9.691800579607678 0.38843018142221486 0.34509243786652827 0.4375788752327238
Ni 2.353858099565457 0.5878307057013392 12.684614704463774 -0.7419540378855481 1.6492714038026755 -0.06226903324255082
P 2.230343908242778 9.145196198941768 4.833753699676335 -0.2448358696366106 -0.43622853185241645 1.0266528051553672
Ni 4.562098886889569 1.0485495942345122 12.76106333310058 0.4533027137258838 -0.11163524238050451 -0.00840467912392746
P 5.421598214074626 7.730357109399954 9.056910755279045 0.0827625252102123 -1.0708603529105172 1.1073268232676672
Ni 3.615687621098458 7.4232701008181605 4.833915721720555 0.30374292838546396 0.8106333455298168 1.4033384444471444
P 1.3285163220056466 3.6735552671187577 3.0750292653394062 -1.0685921257016306 0.5976850686304223 -0.5780369553821916
P 3.353626170373057 6.070091446059033 12.785006693032843 -0.009214576619732516 -0.42404947328772136 -0.25675756077486106
P 0.547530483941386 9.103779313888422 10.63017058087465 0.24417329635194723 -0.6528845966207014 1.2770427718409878
Ni 2.4158959720647886 7.843570012797607 11.085283138445945 -0.5317684113329552 -0.6668166333207612 0.8794342663536144
Ni 4.183970735396758 4.498394764958217 2.56999826829228 0.24228867773472465 -1.003384064435414 0.9842468293853308
Ni 3.537806570297991 4.630728110733242 7.3464753341777955 0.9895890675338505 -0.02085961705782859 0.9076444102392434
Ni 0.15645898050703239 4.9325033738881 1.6822076827951662 0.629545921894761 0.6131700516398989 -1.7554589928050477
Ni 2.6337787983467567 4.984994833895697 10.145996239701464 -0.8771732382335795 -0.23980293519839346 0.37209853414172694
Ni 4.284985956488191 8.684151425160564 1.0027820490619825 0.7346752448359477 -0.23935196370390388 1.0475882697564538
Ni 1.3272090986943383 2.5615777248919027 11.248380419866953 0.32809204665378977 0.07729456011710559 -0.0017486072599905366
Ni 4.5874148312987035 3.3983663484924747 9.367747285372781 -0.4267367903118973 0.045237788791876926 0.7974970652581749
Ni 2.218459223067435 3.2975444491583477 4.895180307190661 1.5705920475229016 0.21888084033374564 1.3767912900862351
Ni 1.1306192831099449 7.117066848841195 4.361207201915215 -1.9254058264422518 1.996683233831 0.20221777785576786
Ni 6.232214754055135 3.8531972086459807 1.7475412309666691 -0.7320573475971264 1.133541791100138 0.9587695110498327
Ni 8.135596335905456 4.437664115770193 11.966376505922096 -0.10313157578486754 -1.0625569752511441 -0.34450596923543897
Ni 5.050724231379778 5.608172121470968 11.108336297714802 -0.5212040055535475 -0.6464121015224803 0.8522821314188547
Ni 4.891657248308707 9.136920186569473 3.304701036497861 0.17376569316266205 -0.5998383675279992 1.3544445469599191
Ni 6.977635832833645 9.05542125716799 12.340956742878442 -0.268718332681163 1.9913268546150933 1.2132956113910138
Ni 5.451305324114 6.861744042227608 3.762251289370807 1.1327064396830362 -0.9649782109637057 -1.2888302513942191
Ni 4.8077740172337835 6.293359664151671 1.1227391200502288 -1.6001682185181216 -0.21298067279922675 0.13408225853011102
Ni 5.649147128221899 5.4052763342792085 8.82397921106049 -0.05894022597963398 0.993937060089901 -0.6978511340290627
Ni 4.479127029813373 9.060291124292512 10.520819509724136 -0.9120008874357262 0.8070212026985263 -0.9700800509666453
Ni 2.6481490489731785 7.829752110049202 2.78343377357641 0.4072390865986018 1.335669837455577 -1.696783076230394
Ni 6.587935993296369 5.441611618854793 13.419303663972405 0.3406032917469231 0.1516673186017259 -0.31257466774448106
Ni 7.963558383498941 8.244362838885069 9.50680822830206 -0.42529620121062883 1.1866157881069823 0.4858140560900278
Ni 7.248470409021557 2.5162667872985343 8.635347807818533 -0.5442454607540433 -1.16101788503322 -0.024094579055358504
Ni 8.284665822384412 0.7810254229955185 1.4966896804256333 0.8709213437865968 -0.5068024854162368 -1.3810927456750666
Ni 0.29691552240810126 4.759231844554013 4.874444247270088 -0.45542413094426076 -0.20822516039211236 -1.1071409325091062
P 6.252651625541782 0.5863771102023565 0.8518207711008176 -1.0145747909449108 0.46082473313454175 0.022674815889696432
Ni 9.289386612498236 6.347950046095733 6.599053835501064 -0.6400049124445558 0.9139855219659226 1.1963312156225332
P 1.7913654321883736 5.6063493734735115 8.148627142927685 -0.09552419575125484 2.0383667296127155 1.081097457257493
Ni 3.492560073290391 6.811296269368676 9.08536679737471 -0.43443158785299374 0.6837897708399902 -0.17470903091253784
P 8.580770313991623 6.473526336163011 13.088432555763177 0.1623530804503462 -0.26504885424937574 0.25936594493198556
P 6.536760962398048 3.8067815752965775 3.9038990615288 -0.48196485754726676 0.010404483162775629 0.479843954549522
P 8.250134874210351 6.921508082629101 4.755149073155667 -1.2088180352356344 0.4283853816589138 1.2208610824430974
Ni 0.30322149401546766 7.583386544857466 1.6595052644288504 -0.31836607761527747 -1.0129729936754297 -0.733514134648311
