# total energy = -340892.6241332175 ev
CRYSTAL
PRIMVEC
9.04665897193972 0.00000000000000 0.00000000000000
0.00000000000000 9.04665897193972 0.00000000000000
0.00000000000000 0.00000000000000 13.24069985573910
PRIMCOORD
 96 1
Ni 6.354083812580257 1.9414944486850714 11.27673376415237 0.3562805932728638 0.15610349999620857 1.108627801467278
Ni 4.653574267249997 0.6733726858953283 6.230358084964003 0.02412234696950039 -1.2632742573019857 -0.22374922416964046
Ni 2.7204027448764516 1.4518530751143879 4.957582720767033 0.61603168945841 0.5121866325462856 -0.8131175454042512
Ni 3.3546821030870007 4.195189100642708 5.064885143572478 1.2499996516802667 -0.1845365585259209 -1.6765551792192932
Ni 5.2969274244719164 4.098362708998945 2.922686040882669 -0.1751684870474596 1.7029105292843705 0.42052089130917253
Ni 7.178053517421323 6.022867532017662 2.7079880146837265 -0.6276091098833643 0.4615798661330115 -1.3777109736870272
Ni 5.12025522019171 4.539740156621812 11.716787685558524 0.7452031409504649 0.3776767995604528 -0.8977168667128863
Ni 5.733274929671731 7.840847944907882 12.409806096212668 -0.7625156640869835 0.07514871741869639 -0.5372579736926166
Ni 1.5651172462234144 6.818864967124773 0.2839836737446849 0.5013106090637302 -1.774766434884408 -0.861504164237755
Ni 2.8865084514046337 1.607817476865156 0.36764355782997515 0.06798562401135388 -0.9416050834554041 -0.35189506261065845
Ni 0.2682126330502467 0.16712436033544043 4.81772137209726 0.8333382433265003 0.07894006614032856 -0.07724545204672503
Ni 8.794501507005169 2.425436427064166 1.2222606294814284 0.040237250253492 -0.06289663952422071 1.3487474965751418
Ni 6.912090788472898 0.7795216596739037 4.947202584191115 -0.7951645604702563 -0.3308930064376946 -0.8337313649998609
Ni 0.9195747975152028 7.474232087544199 2.462121534114024 -0.6904833808100819 0.356184948235264 0.8610945875041621
Ni 7.763182377098697 3.92654856062014 3.6244299541753624 0.8368897081231845 -0.5537711408562915 0.7769117849076556
Ni 7.686005328877362 3.9402180624209175 12.65302461968304 -0.7478210381892862 -0.22464113985629056 -0.654885171990498
Ni 7.880924644429686 8.76641163070377 6.9590339022017105 0.31786779782262026 0.16915133431910223 0.26846559324040864
Ni 6.863817815866047 0.6477235982013737 0.5177656271764136 0.49414005945721995 0.22024558189175616 -1.2951135132997693
Ni 1.9777715514124834 6.423064587716544 9.306887990719808 -0.6897462455337411 -0.4079597668147103 -1.718485500904492
Ni -0.04931424306169449 4.9873688456373575 1.352961331213102 -0.19078665320069077 -0.6629257829067873 -0.2320423174163681
Ni 6.616789744276344 1.905063552754077 7.199644273872504 -0.5138779042057796 0.7139575526726221 -1.3265691607058896
Ni 3.7921333006889966 4.3716532317651255 0.9508029598355899 0.09817603155180511 -1.207659753261475 -0.23792602989065473
Ni 6.187019160194442 5.700978356919397 4.96162114935993 -0.3169090334537768 0.08191071873287828 -0.41660818651832765
Ni 5.395065581675648 3.090700592467081 9.357454291391845 0.2600133487079973 -0.09786955605497982 -0.5127347917402718
P 0.24151232357651017 5.534592203961153 12.39194437261541 -0.38515408177410443 0.3800656115076035 0.028855233668795464
P 3.636874538342901 5.861619881390881 12.719704829426915 0.6696746715948466 1.252566126855862 0.20214527274661961
P 2.4045115047179064 8.498494823403943 1.261074415402049 -0.2914751667617045 2.496889554086958 1.6369064544794196
P 6.101944378636192 7.832452645324081 5.990900257654175 1.4617351392184825 0.12810727189359875 -2.1267843962261757
P 4.844350212964626 0.8183779648919852 12.51954478429604 -0.25966496422964314 0.591980047825845 -0.6216562347340391
P 3.956040669071851 6.000929383859564 8.200892309149072 -0.13347470685309915 1.7365403015236738 -1.048354458498517
P 4.56322528347477 0.899925454092774 3.7157378838082225 1.415868201483039 0.46217481940453303 0.8673619085701127
P 9.251927727754827 5.7358441808374625 3.5635622228610058 -0.5037791252088808 -0.8294818456948876 -0.33856929203602976
Ni 1.4433220756450738 1.0020170012944807 2.8091468513390003 0.40252676872459714 -0.80662448148074 -2.0001467668995683
Ni 1.9261422683039198 6.483378663498004 4.675013039829404 0.0031460018281494204 -0.48572355325875055 -0.5596553675512103
Ni 5.760161600321574 5.786659264632943 9.348212224522436 0.9416922438525717 -0.5468327618652453 0.07231356196274642
Ni 8.548884714224812 2.64844561891789 10.357881794694006 0.9206241103283628 -0.47527638978349757 -0.23307564377688894
Ni 2.420623604457936 5.322393769653379 6.810565562126737 -0.77322559430532 0.3546960223945633 1.7698168041886164
Ni 0.5444369873412405 8.922050352729304 8.984516628695017 0.22513427744262515 -0.20926594295180087 0.296698877054489
Ni 1.4633061454517704 1.068229498766283 11.535337940642322 0.0008798315017920331 0.35322792248946905 -1.2676171076517135
Ni 3.8783208213084612 6.952855034081306 1.5326904015809868 0.8521499767163645 -0.7691025732758818 -0.09625310349747938
Ni 5.516173206167385 7.759708460029539 7.996866626612856 -0.48855305228774576 0.7853951397883183 0.8517018334353524
Ni 5.259184762980953 2.7462942830325248 5.001436400435644 -0.3235561064566492 -0.546086370617524 -0.11307428881987622
Ni 0.8251557218404584 7.324048500916328 6.697781768612429 -0.3915504722187515 0.14326135392621778 0.6199528788896872
Ni 5.246492300355877 4.447482327790354 7.273751790683511 0.559698819194636 0.2315754050822786 -0.9138657085586068
Ni 8.116572018954281 7.187733442587987 9.332654684981208 -0.893307681901597 -0.03605612229260888 -0.6456405134637784
Ni 4.32177900050921 0.10858342972469673 10.172021803498597 1.5279793550586975 0.5681394937628216 0.650402453628796
Ni 8.0570178625317 7.346918454954956 4.466815942812486 -0.04823518085730402 -0.1347142356871551 1.2796398431442026
Ni 7.430889544111025 6.3742126289315015 7.142603279329642 -0.1070792475787059 -1.04023800003897 -0.5208142263142966
Ni 2.08109344424285 5.109625395826446 2.409569491783965 0.23562463545098775 0.2540815566045947 0.9120150285031132
Ni 2.1765718836905075 5.13698249274607 11.336369340506259 -0.022065721550787804 0.17116399387375686 0.680322638226996
Ni 1.2405050267558353 3.0634068221606965 3.873116278366047 -0.357510609025223 1.4550027055906554 -0.18055211995687614
Ni 3.516906792889482 2.5382392185624454 2.768564443577181 0.055783425518207155 0.37486324137105764 0.23022326192975834
Ni 1.1182937098619183 3.445383906564565 8.298569086742056 0.24407482310086998 -1.050477675489107 -0.08431418596804834
Ni 3.562158181378887 2.784606884042647 7.183119646480512 -0.31486757754371575 -0.23185771220938778 0.09827656168541138
Ni 4.172690059624485 6.809438348411066 5.663219411442173 -0.47268960289292783 0.39647310633134947 0.5352165177825557
Ni 0.6471310420346292 7.624768493874408 11.1848160897006 0.07512943414498674 -1.5782943012631656 1.0818549042488077
P 0.33799222817926067 5.455497264024554 7.874681545030137 -0.2561908896381136 1.5666394906330567 0.5593640615630365
P 8.661805112290535 1.5526599967332284 8.025625051016888 -0.22951080924376602 1.351966774843388 0.06279430961840153
P 2.0275824560551587 3.0754569719943405 10.315061243487108 -1.3361691456894988 -1.2735157325243358 1.4805918669136695
P 3.9174476216316667 5.642889759260367 3.561655187136582 -0.04897771545028339 1.8768142906867935 0.03397635694544471
P 7.006736935289402 4.243633959771209 10.29183756508024 -0.07246885659368811 -0.46853110063986403 0.6426323227650739
P 6.137506795299897 7.82445539873779 10.16178731813313 0.9992283903958273 0.021082788812228206 0.7093892165756492
P 2.3763673484623005 8.469771680970144 5.604232480541039 0.26301614009006313 -0.8481457406529781 0.6774769412480849
P 6.944170241408409 3.9403447156473974 1.511452464832141 -0.1115424255563821 0.6488878167564825 -0.3795696457077915
Ni 5.528883762110531 2.660070575776923 0.2231837923730846 -0.5964787070271469 1.230625618029029 0.7798256161203407
Ni 1.4126810414960105 0.9183173119094395 6.843945924631376 -0.41536994323585236 0.8437442691511727 1.0748026253877168
Ni 6.9586991758174435 0.870281361769287 9.268636002325215 -0.5497617625865823 -1.2160788305631054 -0.015735151347069678
Ni 2.6358255295650865 1.2619998886212545 8.955810674913383 -0.5604380113535057 1.1270078466363622 0.8709030889541517
Ni 6.372738023508916 2.09103572252151 2.6237771890632495 0.5640483544125834 -1.5969867354663465 0.051520793587111265
Ni 3.9843114785539364 6.781583685244558 10.72364274277895 0.297610590235481 -0.2235327372834602 0.15450530227115328
Ni 8.08337078029852 7.124877255617899 0.47297923696136995 0.23895987047180783 0.00018820475140612748 -0.4440621689642223
Ni 7.73999578999387 3.88338695036765 8.038203525738133 -0.07619669906723651 0.3728963474526739 0.058225202190480364
Ni 3.1011132970155226 8.39234132629585 12.491501045955713 0.7997814904169774 -0.021149123273789382 -1.068562815125592
Ni 9.0905353305835 5.1453416056937336 10.166871540510389 -0.10519282918927043 -0.9830985747135005 -0.6283570437929824
Ni 8.67860475811717 2.471239661754662 5.706066197960269 -0.10989949063632042 -0.1087034134456902 0.6698127398346078
Ni 3.920360645840701 2.599819826608703 11.477515314758898 -1.2744341305735472 -0.82550357777343 -0.6777435646459102
Ni 1.0460289974961912 3.3662437333327944 12.509005426521119 0.21507792164788764 -0.6083263503943523 0.03470783579483055
Ni 3.1319714509814087 8.21195094515256 7.85688586204383 -0.5411861051024293 -0.4981764343101227 -0.6525320983772891
Ni 5.756796243160827 7.881630283834359 3.565164386175974 -0.3628988699203299 0.43942826973663673 -0.04675088300229368
Ni 3.2525634159081918 8.208350374856922 3.5974057743081995 -0.26776136808453244 0.09849639100570133 -0.634206560595224
Ni 3.399399738693384 4.377434046888022 9.415064320787963 1.0410412126665556 -0.29660246068594076 -0.332447238298692
Ni 7.326518238832683 6.174978057019833 11.481752769850548 -0.579503255515073 0.031861110374654805 -0.059546234994749064
Ni 0.3857866325231982 0.05764259736864097 0.2923201700447622 0.626130982675941 -0.055665668993420264 0.513877132874831
Ni 4.708541767542205 0.46341601369624597 1.5496917879040855 -0.47079984206938275 -1.156317394233757 0.309597330283712
Ni 5.820656609283719 5.644581484499774 0.48150028510574633 0.6195574432234814 0.1188037351044857 0.3062831783088144
Ni 7.884226674977194 8.932399730664505 11.306008752787259 -0.7472263420280809 0.3136686721396082 0.4779397955482736
Ni 0.1250646331533249 4.917546731210883 5.644483780582204 -0.6387934086349579 0.03904631526918437 0.1737600367357072
Ni 8.001525656015502 8.893137230455785 2.444948261269274 -0.2297650913464172 -0.020986115333363857 0.7944891316697865
P 8.487747392471235 1.7445215415319695 3.466150512377726 -0.4578993319576308 -0.4556331616312734 0.6162929135395967
P 1.9172674957913036 3.112014521151815 1.4077641823108864 -1.1705983296328033 1.2870063108116028 0.5664579922953406
P 4.790477358415564 1.2766464295977331 8.297695179479346 -0.091327641171404 -0.5620230964524384 0.33941004276977027
P 8.43753843483105 1.700572871943499 12.465456619261962 -0.05117909397697637 -0.07838162253369728 -1.340954225782968
P 6.217008834893039 7.729302639015366 1.311389218952933 -0.07267428773627484 -0.6627599467528843 1.6853959174393747
P 1.7442501417609415 3.3128322583944807 6.094204057166473 -0.8423736140558912 -1.2644122275611707 -0.3672288647542514
P 6.882092067115267 3.896034179697556 5.786755159218706 0.9931541591772894 -0.42153621994756435 1.1872202544602004
P 2.3242404991068524 8.303394574670936 10.180257881883394 0.851964857288752 1.6885329204064599 0.013593422413718524
