# total energy = -340866.5087135518 ev
CRYSTAL
PRIMVEC
9.37672466477088 0.00000000000000 0.00000000000000

0.00000000000000 9.37672466477088 0.00000000000000

0.00000000000000 0.00000000000000 13.72378436074860

PRIMCOORD
 96 1
Ni 9.004487628001836 5.052985748132772 12.19820761368085 -1.0369467308822078 0.4967828963967057 0.315655877772966
Ni 9.364010012244341 4.4438737018025565 2.3916443186371357 -0.7213409896208868 0.8065841151611076 -2.3124900353595335
Ni 5.075883710219263 2.086180628506437 3.3607353957101083 -0.3593471480133295 -0.4673764182101306 0.4114389836125624
Ni 6.161867852304032 2.8911912104267223 7.651531251300308 -1.660183422729489 0.5418414792982411 -0.7151014364690781
Ni 6.945996467980823 8.661308875174873 5.059328164822086 -0.0810807666324152 0.7871835991473088 -0.5966622837928627
Ni 6.195680322117252 8.669400988721408 11.302552232624569 1.6478305575910912 0.8206678469476834 0.6354334910237894
Ni 2.782252421106149 3.4995531187688473 10.408502146862807 -0.3846205778681376 -0.11576700516069094 0.6132512984997954
Ni 6.513466904047322 5.954951665013871 3.45866778540041 -1.298297567454706 -1.0382196840573603 -3.7662989777524043
Ni 1.781033871675707 5.784229635649119 9.241911927267676 1.6806159795522282 1.3109265690726262 0.8086353412631815
Ni 7.913533821745961 0.9223499790349972 13.250794674863306 -0.7326890676438542 0.5396845808562384 -0.7818261914901373
Ni 0.6998262332301092 6.744350000057004 5.529985367345302 -0.13057373115622026 1.671857516633308 3.0158307317482578
Ni 1.2148578484388723 7.8613335944996505 1.7242427999422774 0.4043993031569616 -0.9410342985535987 -0.17047699510906122
Ni 7.042708008095507 3.495014783940894 11.83216653032183 2.4983825936927166 2.508211149747364 0.08160887122174333
Ni 5.280493223196043 2.712789643408885 0.9864042618381218 0.7996632196715583 2.4675386117286666 -0.7561475557771106
Ni 4.378592943388902 5.4546377571314615 11.916060087565002 0.7855033832314084 -1.7243288470591465 0.4452304782407106
Ni 9.34832275156838 8.825589094566888 6.55144639038439 0.3635331610702191 0.42931200723824126 0.28859244589727073
Ni 3.3480815055234916 7.9011096613181975 0.35336375136027504 0.11635038846798672 0.6482684380049287 -0.5340656920075642
Ni 7.806085931676719 7.779521670173433 13.52170232090009 -0.4321918998891976 -0.5501158034918914 -0.6328492752363811
Ni 6.797019063545871 4.716014387157265 9.114294702043626 -1.098483256834108 0.20459270584584766 -0.9870341623224808
Ni 3.3003727294808782 7.9388040952197905 5.746930899536245 -0.7021279070275456 -1.0740631761185309 0.649760706279739
Ni 1.6874072740370494 9.202055220615408 9.428239639802182 -0.9261121300261277 0.08540047705369162 -0.5386096026245047
Ni 3.6161995759170598 8.11009810480046 8.533572565545214 -1.2928465716424637 -0.42129402202977123 -0.8676372737186864
Ni 1.3004767230546546 1.2438975653028606 5.172096408571865 0.884868035774676 -0.398579611151391 -0.21792773239185695
Ni 2.169614726231903 1.366976455698957 7.397984611325415 0.08993230348577416 -0.10385919797951144 0.660603562531514
P 6.487662157256978 1.7081204592332229 11.320997188079252 -0.8994587891046574 -4.636060496902944 -1.2939367193828488
P 3.126697031788017 3.7992707519107656 4.35702741390376 0.9475672145761099 0.307125985925084 -0.5774330032496056
P 8.993291818529572 8.199092600362654 4.0202042051808995 0.9829453369650878 -0.25454229829109715 0.035260622974507015
P 3.3777775931270595 0.44911605252268677 4.527600353343377 0.4521611439222729 1.0635458215269749 -0.27066877153931446
P 9.288396103044729 5.594425971212293 0.624235765842624 0.35945204902231 -0.14225039616320018 -0.8140259161511335
P -0.13047525095867754 1.1625638539440506 8.090391042180814 1.0671978164572653 -0.22009620079808545 0.1265424985096401
P 3.096091401873888 6.8539357833923065 2.2390765662566814 0.6480714915027742 -0.06364945852984522 1.3344573052047146
P 6.4412192390692695 4.205564239710769 2.157625645837232 0.4412943764110981 -0.7751654916405102 -1.0537756295140883
Ni 5.175295747091075 0.6454571695257296 1.2167538222037733 -0.6048833861510744 -3.5906725772319197 0.4458233746297032
Ni 5.49992733816248 6.885029002998695 1.1331753229155996 -0.49176076059176593 0.24881670866122954 0.8631725530791136
Ni 5.142158401467137 3.2057334455582973 10.034364261594826 -0.06797842492250228 -0.6646844174691069 -1.1154342828661499
Ni 2.0151425610341813 2.7096671940334547 0.64960449492739 -0.2595904022379658 -0.12742875776933538 -0.024271213842538844
Ni 0.7766178590710257 2.12002122849421 9.872629822999894 1.75034506861725 -0.16982187802356558 0.8326682138426692
Ni 4.18668889258542 2.0942539886032705 5.607099552521097 -0.06883820181963629 0.43850781480489637 1.609437045414557
Ni 7.130099083708155 5.158698944104553 6.813008254762039 0.6134153348814855 0.3014021960674293 0.32233894622009646
Ni 3.210121752788632 3.5860346520709343 7.954593562196629 0.04400468771572421 -1.4656139054475985 0.6968694868420836
Ni 6.40921647715232 0.13959599122138383 9.139806895018614 -2.6982894640271207 0.8013537200001037 0.13110672084155486
Ni 5.4953983800593775 4.366872037324974 5.42262374314469 -0.967267521218515 -0.45443605599937864 -0.6821882306808251
Ni 6.264983695492046 5.068579241560222 13.444739100994397 -0.08723907292432717 -0.09305028028946556 0.719715795312638
Ni 0.3752818456998206 2.8205282119485124 12.537074948421258 0.41041542744405446 -1.6104749997607684 -0.9030616759645673
Ni 8.38150740561678 5.509519727685198 4.672893642584316 -0.09831050024714036 -0.17989905975390952 -0.10657351158688097
Ni 0.20309704725829103 3.541110763309111 4.219391158176264 1.4921533464990238 -2.4056632143801084 2.4319298613861213
Ni 1.9353185023764055 8.42680636337265 4.0516321738644745 -1.9980122370550686 -1.0101247255933572 -1.654924231213079
Ni 8.653666844421192 9.093191445093645 1.7415756758296144 -0.43820776706597436 1.2651627325739503 0.9019820697471432
Ni 2.3229148008232317 2.067464685703557 3.0124800840487356 0.12086473139857248 -0.0923689379517248 0.116604927680954
Ni 8.950862138578152 6.268396823337863 8.347615233642326 -0.29649216036032167 0.2375231380252813 -0.4916458322804565
Ni 7.225872951337724 0.9199692285952921 7.255833462582094 0.5974228161079711 -1.4969957621929895 -1.5366185187909343
Ni 7.280061044252476 1.6107150414795548 2.0302006434726314 -0.9221271772364507 0.2916384318124461 -0.7759959579616055
Ni 7.2842149333615325 3.0307637598359785 3.8786569175179935 0.11094850072612505 2.0588008290973514 0.10330795346173176
Ni 4.241008259648089 7.547869682725957 10.748824749300113 -0.330417866573489 0.06791491867441851 0.4715053527768396
Ni 3.9574654768743907 5.898513158134844 4.161339854622841 0.30386325601341213 0.991661376681847 0.3860339132758964
Ni 5.007321098107709 8.694905680316516 6.857637714363537 1.9526448646638626 1.9488128925122825 0.3796444648097849
P 6.098753117330992 6.593572264450632 5.219237892760984 -1.1068920497230936 0.8602453521299893 4.36874161567247
P 6.6469539590281865 8.269464920370478 2.2967031041743478 -0.5585325668006768 1.4903070373189045 0.06521603168601672
P 1.759195479497396 7.319452665352126 7.538597977193148 -0.6732338497010147 0.6810502604216401 0.2497001397074474
P 7.608734003734723 7.82045107414867 9.26525622145708 0.5250071813497217 -1.4345374957577681 0.9786940178879016
P 4.332553224369793 1.4363642195974111 8.15835073088444 0.21607962343952467 -0.10378617864973094 -0.34330526405911843
P 2.4713764853913704 1.5044392420167059 11.426628806544828 -0.3134961511174859 0.3349270672977522 -0.28630287853214564
P 5.507906931010801 7.211076479522621 12.71257535677015 0.35496547400586614 -0.08161195654553685 0.34202665445701097
P 9.191937734501026 8.903434664281074 11.989509848668972 0.15321383715323936 -0.03179606146467427 1.681013472100963
Ni 7.862121239387147 2.4397487924684667 9.511268663014079 -1.7056418121726045 1.008833003365127 -0.719064020661252
Ni 3.9570622777057918 0.4323804740083677 10.141149217217091 0.462850505315319 1.1946018916362524 -0.20793539706583544
Ni 2.1897840613867103 8.484266933260452 11.76400055367148 -0.16790692038903984 2.7680352652626907 0.036930040257129954
Ni 5.463320604343619 6.769367101959852 9.005863193537499 1.7141645049316347 0.3435307498063632 -0.25215245790268187
Ni 1.8521844598461763 3.4524256996670046 5.9770516678155285 -0.6715117248035855 0.4676641246538784 0.7779553956808215
Ni 7.100562400427056 5.895906428626227 11.127216854633058 -1.0585535105187058 1.983205253949223 -0.05786653329948098
Ni 8.115902297483318 3.5255172698816604 0.26501624981281047 -0.19242187481126863 -0.026946960902489072 1.5513655951931218
Ni 8.210354046908877 6.80358277094167 2.0876349585308493 0.9948202340258029 -0.7256450163128794 0.6696746715948466
Ni 8.611190280845516 1.0672681992818895 4.121622861170857 -0.09015367546796087 -0.6817174616919937 -0.33397601623839257
Ni 0.9190953178391656 7.02492036105289 13.025998948626984 -0.19346625691538294 -0.1908100502394585 0.9542240577709954
Ni 2.1973604550664336 5.050585306570881 1.3054913955050456 -0.9214777165779099 0.7201989055966436 -0.48169154928122204
Ni 1.5530575603698795 5.750285891687984 3.925139217950077 1.3464910964407972 -1.6201444045297322 -2.606647376939091
Ni 0.5633826969036794 4.063806913411197 8.5610754372061 -0.28560302425164363 -1.487533074118193 -0.3941758256567405
Ni 4.936461188407625 2.881767601951324 12.370097982962054 -1.8268497858432085 -0.0937547625556579 -0.15748161129065782
Ni 8.763515176052325 2.45528602554681 6.284120653240743 0.012280617139565946 0.3032433630412262 0.19493769925458684
Ni 0.8390171499379235 0.37548532062909035 0.041717986535218056 1.1947710702242649 0.36389440106437976 -0.30704679594771633
Ni 4.203454476619263 4.261843342267327 2.417897272875365 -0.25087050586646475 0.32306476864252753 -0.06277476923437575
Ni 0.11783636353182257 7.266324142345552 10.691487014507862 -0.31239494763350717 -0.26167299579860737 -1.1656492131576441
Ni 7.091598251469364 7.617951324263396 7.141239570503797 0.17495559970570515 -0.44689115377258515 0.40005259615249167
Ni 1.8043819165550516 4.702558786995875 12.483264737518008 2.2880349876409625 -0.16709136646627998 0.3192903892017598
Ni 2.943053875578391 5.658168946750361 6.712481325305426 0.1910054540797162 0.10573584617693403 -0.18132627911873933
Ni 8.49722556700473 0.4090624346485465 10.165810941248083 0.5126679430580784 -1.7899616545676076 0.6722072082087133
Ni 4.353360176814478 0.45525405661024465 12.541274783482086 -0.8135582324860956 0.2777645020438313 0.5163091393550914
Ni 4.670696675951693 8.429169298035138 3.4022770998181247 0.11683118475914718 -0.6361469721510463 -0.34233390128478464
P 2.9443197334332956 0.7134909343556791 0.9602516385558002 0.5308268733552921 -0.25603919455159774 -0.26965601400408395
P 2.6106771097799433 6.483930220766223 11.545861364406987 -2.222321447493237 -1.1842169488575025 -0.9662138831430198
P 6.578372593466931 1.7090300015437838 5.336644802294624 -0.6909410371727907 -0.3284455733384666 0.2613739765009499
P 4.5837181762324954 5.091167771726625 8.155056687444233 1.0517765968061885 -0.28195051510072083 -0.22367260529543417
P 8.481041339911657 4.375039164670319 10.232920161007707 1.919677665709223 0.1995921673074627 0.08370740562198487
P 3.848845496198756 4.17372088211629 13.739566772126443 -0.7087796080161083 0.011174785669896882 0.40578409931963016
P 0.010794485648635235 2.0194746079154093 2.0177258487306715 0.702532598665132 0.4507501225073592 -0.1051573479656447
P 9.29826041758813 4.588340901584108 6.532466961613192 -0.17847775392635068 0.8893988337654942 -0.7215371647920928
