# total energy = -381170.4054922943 ev
CRYSTAL
PRIMVEC
9.24589564319376 0.00000000000000 0.00000000000000
0.00000000000000 9.24589564319376 0.00000000000000
0.00000000000000 0.00000000000000 13.53230286326687
PRIMCOORD
 96 1
Ni 3.2744062743119784 8.528257143273006 9.595580244388897 0.5103174405480309 -0.06408217519188963 -2.1073900508599643
Ni 8.882744789807134 5.653449241302145 9.094573811056083 1.5960953340003285 0.5800958947937493 -0.49588815249657814
Ni 3.0847267211391145 5.158072633946761 6.955874208087722 0.03727996739738095 -1.104911271847639 -0.7017173018526882
Ni 5.095376214250676 6.25954545135044 6.742456741933332 1.2344136243165513 -0.5340479513957512 -1.8224364872668612
Ni 1.9946725850987557 3.734556018514128 2.5096606621219415 0.3042504641495018 0.841185507285061 0.8216633780917333
Ni 2.9047276209115096 1.0300760097214523 5.544793322560889 -1.3760893789232043 0.9423010810811642 -0.5915239341250328
Ni 1.9880710154684642 6.226491373719779 1.5788541376842218 0.8743931043852813 -0.23308207153479213 1.0227742960365676
Ni 1.2738625453543506 1.967166044972542 3.9819752666228543 -0.7355509625726816 -0.9899906738476433 0.8447495704872355
Ni 0.27229995381616856 8.981407744323713 7.914989816410632 1.4835383511365032 -0.13309161248206755 1.598495715911705
Ni 3.3985139341822856 4.530535191443782 0.4057394963585387 -1.3037405928471482 -0.12447661711954691 -0.7085494942831733
Ni 5.8962464660800835 4.109440111272935 12.82051727759456 -0.22838620872101956 -0.4189869711631494 -0.05137912580292441
Ni 0.4869314060944484 8.15721009728811 12.868218703416126 1.2145487670718242 0.1484053600210025 -0.9443026848922254
Ni 7.518438891338625 7.559851258809318 6.796964996272854 -0.033734159027651575 1.1742454394670874 0.04260729314756533
Ni 0.4608015798589217 7.935761646006448 1.9509931239679126 -0.8003193651983185 0.26250860432602535 -1.1695269509454953
Ni 7.683274722387409 0.9213775598593291 7.340530288160612 -1.925008333893517 0.8145198250684166 -0.18995155889390514
Ni 0.7631867541512872 4.154800476267626 0.7075514251087781 -0.2587992737952382 0.8188266799738866 -1.1338220413447182
Ni 6.889579285730419 2.9441058912972387 5.682903891682003 0.2747082317160108 0.5581592426216581 1.5984180685962341
Ni 0.8572979541454686 7.611914898288547 10.412728820435518 0.24154100093542274 -0.008646877041720591 -0.10690261279152558
Ni 4.900102894094162 1.983642231360748 6.5223535684964995 0.34138233600479273 1.7071847311796922 -0.329478128368039
Ni 7.8268080094191195 7.7863109856366615 9.376140001683845 0.2330530180690696 0.5439364141540567 -0.1523743719710795
Ni 8.174296512801803 3.4984065928456842 7.846002489184505 -1.2079227771148744 -0.2902415514649195 -0.7969517342776662
Ni 0.3509732815250596 1.0380182342486517 0.43672711626879235 -0.9167826250950857 -0.5193155302815831 1.8597293101800487
Ni 3.934396811215969 2.796680082116575 11.132876854037725 -0.8440355751393464 -2.5814251120371927 0.4628286509384481
Ni 8.818171453255378 6.236745072207164 0.3019774302857888 -0.8972676949906094 -0.1878229425866765 1.0302703473032966
P 9.070159098499015 5.968059339075142 6.402606273104687 0.8759349949511043 -0.46944847024781083 0.43247266435441
Ni 7.812578575720215 0.707188061402237 11.959483981529429 0.7680702753566256 -0.12328388236302638 0.23900152234302066
P 5.744761708625333 3.9853139596109464 7.413997251921581 -0.7608074231466253 -0.9481760518047025 -1.1362550762662431
Ni 4.892733915109089 4.3038350713245785 4.8799514641092605 -0.17412333361239687 1.6038472100316057 0.8892867336676621
P 7.5541280492838965 7.399610637993383 2.7459746647363503 -0.9686358623209512 -0.4051091847397926 -1.0347854615648306
P 3.050563136007565 5.052475257549624 3.7203820601902673 1.2661032421103486 0.35466542626694403 0.6250359498395494
P 2.6592213486522334 0.29522977550121376 7.589903194060487 -0.2764586387482142 -0.5181348797099206 0.5674311548418872
Ni 6.383246291803753 5.399593925098677 3.132944992538179 0.42113924161946176 0.7778949747565312 0.5851450271818827
Ni 1.745957986982741 6.070254225802886 12.850546098106127 1.172954745680122 0.3937914457341282 -0.7064681862741123
Ni 5.8927330256606005 8.885620263413605 10.209080567826458 -0.5816254440643983 1.1991990240886314 0.719845893132599
Ni 8.768585713861468 7.511301059749571 4.512711878031579 -2.37032700097266 -2.4202693943290576 0.03071002748934711
Ni 8.571481706328486 3.1050584460929107 12.531575635854635 -0.21679361878741377 -0.8933812154520099 -0.6606837809501459
Ni 4.987606052330964 3.901999192190002 1.7327576214909106 0.7714931849952456 -0.42770892441717956 0.5407207354302365
Ni 6.913886745895735 1.8846371786980607 0.8441521394390987 0.27885953488022297 0.5481471098012948 0.3293171773101425
Ni 6.1478180460108875 7.624433841256914 4.65125515507804 -0.03203311717614483 -0.45263114158015594 -0.8561511274559578
Ni 0.6058308528376645 1.8692797457065848 6.606267469967924 0.2655337643055943 1.4938996397661692 0.22589712375057872
Ni 0.8863124998833075 1.2097145200112684 11.90743883384188 1.1390339245629608 0.14858765123513767 -2.3678934518305024
Ni 8.225648218301295 3.8910520515145617 10.248256353093275 -1.3536313070300041 -2.019687150925341 0.692901246222955
Ni 2.460591768305529 1.2939446311204463 10.034730709957548 0.1773212717244043 0.6249359339265754 0.5866218688377252
Ni 6.300264376633076 0.9089593971556259 4.519857106337307 0.14809399942817075 -0.6089220749968224 0.6155655484552689
Ni 8.895578093234088 0.010208393597765491 5.730227160363683 -0.17063177551937064 1.3124877429121589 -1.6594282897310195
Ni 3.523398249303215 6.861240614978539 4.899059032453742 1.3711592886114385 0.4084205085012128 -0.015548489257560317
Ni 2.765290265737249 2.4630881601825303 7.7390154546425025 -0.6185613978587992 0.30115537016394583 -0.7556299927107438
Ni 9.003440714112207 5.625951947071773 2.8953042038706234 -0.3497492199122493 -0.13313969211118362 -1.2110176139901143
Ni 4.387538166370835 9.10475724073508 3.697566887613647 -2.294429578313397 0.217342035091716 -0.4941210332938264
Ni 3.039588257644602 0.1246531677249111 13.422528650860412 -0.956544735484372 -0.8032432237133327 0.15413737740877326
Ni 4.458149072906597 6.740369018652492 2.400806881209694 -0.8994886139013283 -0.47305392821088216 1.3400458550360856
Ni 4.678968803271087 9.011466151701972 6.041875797698891 0.9099524895471297 -2.0919436343979068 1.219730311272764
Ni 3.4038950455615984 4.1778597404944415 9.229856060639515 -1.042214149928734 -0.18158004700075828 -1.376902618853119
Ni 7.199307550499504 1.8982193996881136 9.318790483552464 1.6489165915664183 0.0015658018252231098 -1.4966144675941708
Ni 0.6833641615893918 2.4262894947363685 9.208028349738687 -0.9636211827151793 -0.3990897180185901 -0.13790291782778186
Ni 8.84615877996531 4.1676615173821006 4.824550056231522 -1.1206505369597666 -0.43609663426024253 -0.6026940918092395
P 7.748624714189788 4.222508171509394 0.5445019011364252 -0.8865595645444861 0.4290322712142933 0.8811826165032888
Ni 9.003144845445302 2.5097059670115613 2.1559801822947127 -0.7880310347492686 0.9665175304263677 0.8943291811875759
P 2.673811372288927 8.530180289607882 2.1343956384544955 0.2584400906836065 -0.5953579631591425 -0.1362021330865912
Ni 6.280755536409106 6.086980051378792 0.7600486971029388 0.8297548968506162 0.17362453959910742 -0.1747547965488087
P 5.075895111714227 1.6184016079638361 2.190298173886802 0.0006396904665279305 0.1446723753411315 0.29804073579436413
P 4.292989635503385 0.5215720794513801 11.570132835548609 -1.506392115806225 -0.23595245110405172 -1.3090458071101454
P 2.053032679645532 2.5966728632895997 13.381242027573153 0.6573259202215066 -0.5880565444017227 0.15388258108548983
Ni 3.4232651973479573 7.288216084904098 7.52305351795274 0.6087400408930033 2.5727543237360724 0.7484422167130529
Ni 9.178077194752179 5.432620265041814 11.662760993849934 -0.5880429175549678 0.6211525556247431 -0.6572732126067004
Ni 1.2005056077538874 8.726036101202363 3.9571028822216685 2.5760810741164604 1.9484940757202829 -1.631229201588984
Ni 3.6620589492268536 4.898891681739024 11.621582547544014 -0.7849832490618803 2.1742536454517327 1.1152393932465245
Ni 4.559160484966726 1.452826105247792 8.767227491762462 1.1506851356486443 -0.8143341914201718 1.0200093316969208
Ni 6.067767079821726 1.8436871060194056 11.020531822856015 -1.7260661414652272 1.460268581975285 3.035103978155573
Ni 6.821492508759181 5.66345330060183 7.995398598768831 1.2401281582028256 -0.6939875373085984 0.9228180326558881
Ni 1.6699289854843027 3.8037430570904154 5.233456271915516 3.2244446429383564 0.05330051119535336 0.7940438166022519
Ni 6.317082661167389 3.023260005589848 3.47866752981528 1.0290328753517695 -0.3891837717587878 -1.1126184106839097
Ni 4.159673063375698 6.94426875962842 0.1469256062156794 -1.0672803488687426 0.504243466439809 -0.388454349791931
Ni 8.011171172483557 0.3603772821846803 2.839470088067538 0.47190644487000016 -0.03372953104196126 0.01192117691761818
Ni 5.375009088058138 4.219549484840356 10.278136314681808 3.5282963289875426 0.5878665398781037 -1.1124965403940645
Ni 7.445146675009047 7.585249734683841 11.861997104963793 0.4319203913953658 -1.031572868164804 -1.1078816673298728
Ni 1.3472009911631322 6.126802124764877 4.630835594113758 -0.20116131156679548 -0.4156026280719488 0.54844561487832
Ni 7.696422386272948 8.532833861714176 0.3053512576780763 0.06549525348933237 -0.13500965544038684 3.0353199508211213
Ni 5.7900111228699345 8.687647141671594 1.9389355512019983 1.0869652288921796 0.019282759489011952 -0.9627364661173805
Ni 1.3774350705623652 6.8021778323478665 8.021367546416728 -1.1330946762603906 -0.8413122626709124 0.22074977522168432
Ni 4.455384550050215 2.0396076388847715 13.415613645361118 -1.0987028290440821 1.905718118205337 1.1593399831101647
Ni 1.5575451215400589 3.5794653616814873 11.38548489889228 -0.2811645288643158 -0.6887221751446009 -0.1155381769793365
Ni 5.763087074181688 0.28397474649427606 13.039415710803341 0.32478406532647935 -2.166840126596481 -0.06285678742522077
Ni 1.8279690830901405 8.200822987968898 5.984755577784358 0.027581766273010563 -0.5394493249169806 1.5298169224880684
Ni 5.408063165688798 6.41054942222147 11.785215487543917 0.8461292244435814 -0.10022288677850483 -0.1155381769793365
Ni 2.207494615561002 1.55097128959729 1.9243473767444723 0.9260241982980115 -1.4439184227520356 -1.1577631255413479
Ni 3.2162495894736987 7.571149743526706 11.492890772515866 -0.03630140553419555 -0.7196821138612252 1.7871624945559157
Ni 1.0994479662145549 4.226733545908615 7.645304601938226 -0.17011215557047477 0.580327036967949 -0.24810477019586952
P 8.904953431616601 0.5882072507756223 10.077682519085723 0.4622928330396361 -0.5897609286873392 -0.6035153021589542
Ni 5.382415050626575 6.937029223185117 9.312118645113781 -1.52764048366204 -0.6541027852985186 -0.9424910856047833
P 6.987687486496554 5.73303791269927 10.23112463268996 0.507888262281248 0.6979102694017723 1.4885139499742235
Ni 7.091546634475631 5.490111245379561 5.5874880957846935 -0.5645368640132277 -0.2745719632484626 -0.37532166906471487
P 5.940608274323973 8.82168489367486 7.869223556588533 -0.005494190345351828 0.009488913327041723 0.7791710132554774
P 8.37232510991886 1.9323367553404593 4.474739908403228 0.30321071003107775 -0.1624788073949331 -0.37182702564789516
P 2.052126581853139 5.388942653090139 10.277418833164566 -1.904312496107062 2.1932816086174616 0.12409660807230888
Ni 3.8322019244882255 2.531415330445628 3.9614059221459508 -0.17001573920192656 -0.7106279740787567 -1.2230922857664612
