# total energy = -381173.16477900016 ev
CRYSTAL
PRIMVEC
9.23745713310064 0.00000000000000 0.00000000000000

0.00000000000000 9.23745713310064 0.00000000000000

0.00000000000000 0.00000000000000 13.51995225077187

PRIMCOORD
 96 1
Ni 0.902131903170435 2.6229112676599353 12.117000580038418 -0.3219391396785165 0.30824287313834653 -0.04337451033089304
Ni 0.7500805888606517 2.1522258810423947 3.0071617686437606 -0.5855425197306173 0.7053194173816498 0.13473737561560667
Ni 9.080318669894211 7.378077034216268 6.009645689036488 -1.373427772930641 0.13847653094306472 -1.1992558454684958
Ni 2.491074280616611 3.8195129792363174 5.756065484270345 1.6897835049841092 -1.2976272808605587 0.07695080362444166
Ni 4.706789203976044 7.023802081365542 7.136966472724352 1.0597907253599168 -0.44782754954392556 -0.4320641160620817
Ni 3.5430543645899744 2.2661883886904812 3.0004017975732515 -0.20494109032420188 -0.36583944060589246 -0.8441759573719526
Ni 1.9988379066972155 0.26378389982556477 8.987969964255932 1.4135997171638364 0.9312859609175831 1.2044034511077062
Ni 8.532177205897307 9.310525337082181 2.4788836085453476 -0.4632631673727054 0.02621548205310324 -1.491577933611528
Ni 4.437304869403812 3.9347502559575527 10.797534223453127 0.1458568825675359 0.09074374364347597 -1.588762290674025
Ni 4.459918164266624 2.6907973395336313 5.189025106891159 0.5628427641402565 -1.5598980581441653 0.9901184576747593
Ni 1.3353945037797137 3.8873159139965474 8.248522612207612 -0.8661745731302309 0.3923729681200468 -0.5138647915796569
Ni 7.366169952076495 5.269535087571847 10.644339311960332 -1.272394474435699 0.1270186668151103 1.0789269319687356
Ni 0.269955444881874 4.455595034366381 2.2977703306048882 -0.4807746938939074 -1.9674839865592246 0.013738432632015048
Ni 8.759732722911409 6.183720024703474 1.2815345866934744 -1.5540575402029881 1.5114016532056744 -1.9004098186185465
Ni 2.5083760376746373 5.223310852484628 10.02495026546858 0.13754579159867925 0.48603131430715657 0.12991784273977627
Ni 6.787581829636851 7.059357053557929 8.988767156799502 0.39750231892681215 -0.3874336218369005 -0.07967848696824988
Ni 0.3107757675937889 5.482403047873583 10.96308608124412 -0.4102657892400676 -0.7763957645031854 -0.9771788667949557
Ni 7.181928871178296 8.818418287561508 4.386521025515823 -0.4317442708288177 0.24899128656588085 0.9322879198195363
Ni 6.977162160710991 5.962676914910894 6.748997895277177 0.051060566121241095 -0.16473649308085822 -0.23253082701701244
Ni 3.9376138676436114 0.14479252055847708 12.430324962032799 -0.0429631338250873 1.4019014548903017 1.4860258934450472
Ni 7.26441012519384 1.020351031027992 9.008438321591315 -1.7071734183257823 1.070386498597892 -0.30119599359389415
Ni 7.98468236389403 8.147603393916668 10.634131921918089 -3.3875150611707014 -0.8997488095412504 1.745970593698638
Ni 8.093776731675817 1.1324937596368734 6.609701661664522 -0.7803172110447787 -1.6249670227293564 -1.6808504641605377
Ni 0.19920483757641408 9.472550333770794 4.669601973122603 0.9446526120324763 -0.2740459155416635 0.28433984126850387
P 9.16876732116522 4.961687593863481 4.319733287285586 0.2878720227914784 -0.09075659915928241 -0.09741909878112254
Ni 5.923620946495873 8.045834329576962 13.053581731792141 -1.339058808532468 0.8317729557219095 -0.9631599268080444
P 0.8384146956642173 6.801059279475431 7.7298301612918525 1.0584969462491576 -0.07090896830573595 1.240561389085502
Ni 4.273238394706749 9.2217071875291 1.5041757765560164 -1.478539355260015 -0.1277141502202381 -1.4854952177525578
P 2.1323191610957606 0.8571076137542447 11.203470578611764 -0.21279529626129803 -0.4067963426342284 0.1170821244276887
P 1.0656884702382383 4.509754245061099 13.409737430898613 -0.24705678854732932 0.024377143292783822 -0.3599770682878446
P 5.524451952373387 7.959695042568905 10.68879272653072 1.0330355687532595 0.05519310023237591 0.46664982445675113
Ni 8.009641972848002 3.2305050052422395 7.169995924158777 -0.019932220147552766 1.8421370510195825 0.8900179554067317
Ni 2.28222461413241 2.7314513880186135 9.982510616535485 -0.40397995623135585 -1.059297330663266 1.145324899777995
Ni 8.803703018477988 8.628680919717487 8.548448986494058 1.0846712906516804 -1.223107712385429 -1.5042208191865192
Ni 6.545893003333491 4.120838828266113 8.869561468528813 -1.1973964236622539 -0.535383125267407 -0.7698343092355838
Ni 7.672059104889881 6.615543429504083 12.635273650404024 1.9265314554062627 0.3142235162018137 -1.3287263162582086
Ni 2.897254504641415 7.3472054527491455 8.733646144197118 -1.259582153162379 0.23735318810632025 -0.6844307468580987
Ni 1.9423508568254437 5.972477856842856 1.3252730220880538 0.4162364050012057 0.16502805617934804 0.022801057054915568
Ni 0.8623147682943458 7.967260519894331 10.500919477519751 2.885376813999353 -1.2526964817861392 -0.8041675352998151
Ni 1.364547918235202 8.991306533743044 6.821816769216535 0.2542067693285493 0.10191904353400513 -0.949116818451417
Ni 5.977964906331628 7.920980860064801 2.3098834080369173 0.7123881513029731 -0.7810242644141323 0.3791153317791922
Ni 0.4031438718918769 2.84049033105809 5.416390332289992 -1.2229372482458358 -0.4150256725225561 -0.2396676951721098
Ni 3.6627071457819715 3.594248351571064 8.435097998502801 1.4160219534520837 0.6802838145692607 -1.6135181574624664
Ni 3.663861827913447 6.918476596060891 2.8016311204782727 0.11861861567687312 -0.051456001787446866 0.5202935779241362
Ni 3.273764016615831 2.6170916697172997 12.24546681900354 -0.05838383925553171 -0.9802960722676989 1.170433779030481
Ni 7.723003680530572 1.851953102116505 4.182721476801842 0.5161242770377951 0.9706323239256898 0.3027021458257754
Ni 5.900046956099674 1.4313716825479408 2.9101019599090625 1.0505589223490035 0.3028623255527236 -1.8007530887561565
Ni 8.632015641713188 5.389889915499781 8.599135837083002 0.5311125229165111 0.37555229701828224 -0.28262388701866165
Ni -0.21996786979175037 0.8758836689577384 10.478828098980365 1.7988880105229599 1.3136645368290796 1.2604344738603455
Ni 2.2164262075524217 3.2648221581896855 1.221538226887723 0.5349840900567754 -0.5069384967734689 -1.071080439341123
Ni 2.801776148553986 5.774140416483607 7.152784694179859 0.18279257925162068 -1.2950371515358794 -0.16604081371457854
Ni 1.893290722423321 0.1937695178471335 2.6878339633114128 0.8091107382377034 -1.167722550746905 0.5206761580745356
Ni 0.25777308652195696 8.440634006513946 12.64502193883079 -0.3859845480951998 0.9547776162816201 1.505868124981955
Ni 6.833307242043273 8.479985573554625 7.1956973009140075 -0.7477120234152477 0.12926683941933864 -1.664292045581224
Ni 7.61880516498624 6.4210764836495375 4.15854797544298 0.04984392010532061 0.04698973848597714 -0.4075471047573239
Ni 2.3510159567971827 4.3654928782831 3.245667367247068 0.57537457805868 0.5826932232072803 1.6535054964886813
P 5.855051302800344 5.7820014924346905 2.958598609431025 -1.0306045907142638 -0.6431599131337697 -0.027151877824443563
Ni 6.207524951525969 0.7947741773143872 11.42531919465926 -0.0646071944574242 -0.689704079441896 -0.4521668003492277
P 7.943871278639167 2.25587938662067 1.9024875346640953 2.065032668939676 -1.6607894317446041 0.5701053592399408
Ni 4.867918167330633 6.004300896386316 9.596989041461331 -1.1152651042781372 -0.41223062627592233 -2.2385610492805514
P 2.2065051786787855 8.264725111876473 0.8667044078853624 -0.711404190123149 0.026365634477722333 -0.4408593457562085
P 6.632401788623621 2.826624908023334 10.821328989072864 0.09211337029749299 0.5078440393068738 -0.9087024191901123
P 5.188282415344193 4.7297073349215655 7.00936485973928 -0.528311048911974 -0.46885583096913447 -0.17060837848060295
Ni 8.240643061342423 4.313670744222488 12.976423100529843 -0.6708275542523673 -0.5483342861114363 -0.3067958562791749
Ni 6.014591423542024 1.2083425194892232 0.31115357958720763 1.2907331248438867 -0.7950727720873983 0.4057915555187979
Ni 8.789126311250245 3.3033331166386497 10.00780646892614 -0.3524072263603866 -0.2755009028206352 -0.06645478918912426
Ni 0.8118551591488751 5.003727260906233 6.236037286462062 -3.152707265194054 1.9410661586873281 0.8482439567937391
Ni 3.8138411806065107 7.024430228445064 0.15453803774812863 0.4770954452701074 0.7145921009328273 0.04858742199040019
Ni 4.869507009943543 1.787106153612852 9.508947762046306 -0.04967371307604348 0.23207522753683255 0.972714660376015
Ni 5.5604318475901575 3.2980862410332263 12.66597803389851 0.5599811263217452 0.6450609868112246 0.5928657928649079
Ni 6.515113796436886 3.509171372123963 1.3160521924589443 -0.5835288317346982 0.9382418234101261 -0.5619912147732385
Ni 0.3066604804772109 1.6667698005990221 8.196308809968004 0.7471558938014616 0.8588986082941079 0.4737049315313197
Ni 5.458939906962004 3.6078366508942654 3.431026180448536 0.7112267840050203 1.636881514778755 -0.553870128328001
Ni 5.5960330070678035 2.3267768694932536 7.372226952665361 0.5510467999465929 -0.208780261564634 -0.9700823649594906
Ni 0.9971834887420716 1.1958904273833935 0.6993752633576028 -0.5112885462120484 -0.7184690673897304 -0.29649061769842483
Ni 3.1573258704778606 5.033906033094471 12.738025580174043 1.0092916881691003 -2.100360140596376 -0.4679857696593553
Ni 1.4891150265787576 6.4559940713053505 12.443033855444668 0.48159333314046093 1.9370806916770191 0.8461397659665426
Ni 3.3924838146455953 7.9394557741684055 10.857549058172982 -0.7294852159945759 -1.0433469779815967 0.02389094768498466
Ni 4.383256508193716 4.708442708788317 1.4080628071691277 -1.3520205108994585 -0.4227078716581623 0.6295325521583223
Ni 6.141985193743431 5.811311943660059 0.5454007104896342 0.20817425254951888 0.12560970228272558 0.9291154356288257
Ni 3.8548093026312547 0.11898491304715147 6.7013261506699395 -2.1888631678347914 0.07168312746759913 0.6929387843291098
Ni 5.503039526927309 7.241168683251505 4.786603604140732 -0.793174012402789 -0.6574611602477902 0.43462082104566435
Ni 5.161068866869583 5.965328065084762 11.727760928500913 0.681008351440111 0.6524043145501732 2.3890490028621953
Ni 0.6560183349392631 7.1189109391709 3.0479516077474047 0.18387784189599946 0.6257843979697997 1.194459709631433
Ni 2.174127891712218 6.585355419858792 4.886529795798605 -0.41642023887723767 -2.30127385492874 0.4800663549729733
Ni 4.178656071953344 5.0465798241695445 4.809046929793792 0.950228306348041 1.3805638697547902 0.39554416675917686
Ni 4.931832132672055 8.708806622184822 8.716516203840257 0.25950427028206274 0.5985245338125821 1.076976236000268
Ni 2.2776797852629236 1.4886254413550122 5.042644667465477 0.6568196700090495 -0.9366677940547868 -0.0742190065155754
P 2.5997899126592743 8.487283164625548 4.606490742798983 -0.13014075738385975 2.2125764522913314 0.04412013024766595
Ni 7.268409944097271 4.028482732662193 5.02831367659531 -0.06687902121073643 0.4400777303951776 0.11101277830515718
P 2.3132439949123627 2.0675738246196773 7.270110559940507 0.10595284728374657 -0.4239677122071924 0.1570959458164649
Ni 4.524155440604858 -0.015460731867601715 3.724598108029048 -1.8595909848299716 -0.8497220840011623 2.976864377787389
P 5.512027572638713 0.531700637936106 5.678866208197022 3.0015531387833208 0.7123948361711924 -0.8327386620692885
P 7.50200675802325 8.045963653975686 0.8661122868883417 2.3740908388904662 0.1563014749396276 -0.15085150756864987
P 4.164929210774366 2.002052541751243 0.8029391656024754 -1.1917657077390378 1.7612398611528828 -0.3544479109394993
Ni 8.19265447195831 1.3561510697751136 12.691286818729038 -0.0965428668237563 0.3441871524434395 0.7846456632168035
