# total energy = -340866.31823046337 ev
CRYSTAL
PRIMVEC
9.26985924542113 0.00000000000000 0.00000000000000
0.00000000000000 9.26985924542113 0.00000000000000
0.00000000000000 0.00000000000000 13.56737601740572
PRIMCOORD
 96 1
Ni 1.723452204141048 4.843788746138263 11.288422831998195 -0.07795636207082059 -1.4722386098529678 1.8617897922535032
Ni 3.3205840383066763 1.7242772216010769 8.343407135186649 -0.4814020430652613 0.28423442603889115 -0.5568004146009186
Ni 3.9688067455526705 6.882054635223557 13.406602322425243 0.4238507270133539 1.8173271910647542 -0.7253881631070669
Ni 7.819478406716499 8.457152014305047 3.742994831813239 -0.7835238909075345 -1.857578582385633 -0.7762556393808954
Ni 1.3698256191390434 0.8015674974598627 5.096571314933356 -0.2904318130988547 -0.344294110334949 -0.5661972824347862
Ni 7.5719268194123535 3.3468733587183803 3.6097906644690845 0.1974200993568084 -0.08171094401724638 0.10350489996388626
Ni -0.17763274804557025 8.796503016290822 10.840197334865923 0.2706343187569533 -0.6220632403644706 -0.9753202163196623
Ni 4.780067734674916 5.64166405871802 1.5664754831312324 -0.14972587860463893 -0.7863767869752973 -0.4775438456614356
Ni 1.3763330602282593 6.861623865763968 7.3090706947317186 -0.44222228754200615 -1.0210012632965448 -1.5277600399590399
Ni 5.915032203619696 9.283022301371172 9.186036400522282 -2.0125076024577666 -2.7292612298182863 1.8366757707946948
Ni 1.4041982566872093 5.229591012081392 9.260602220148414 0.045081465719670755 4.050501522112095 -3.793364209400312
Ni 4.995202624701301 3.270072576062891 2.104503667294684 0.7615031636620692 0.29323585820655307 -0.323025687874476
Ni 5.466472991559771 1.080661634328502 11.985039765669203 1.3123856701166559 1.6942672517870758 -0.21931741365053198
Ni 3.7265760573727555 1.1406747021512706 10.57715303204553 -1.7252948105168415 -0.4048430755625995 -0.04056943678193013
Ni 1.6662386337669164 2.9336693892713748 12.612395093091932 1.4571804299682647 0.01421177272400778 -2.6645676462946435
Ni 4.034687634186655 1.1956078871864464 2.3227893824296504 -0.5065883125229017 -1.8626961061178564 -0.30138856922067453
Ni 3.627425644423677 6.210972455433395 5.993605383335382 -1.0708685804406333 0.3022205782036666 0.16599479096799155
Ni 3.851088804823393 4.201925162235862 9.905053021726028 -1.1415212097611889 -0.7716793328641226 0.48655659068300716
Ni 4.769546444594774 6.598406216578377 3.7621788052236838 0.6175329565942849 0.9556983283236767 1.0014724492349978
Ni 1.206360923744125 4.990382297968548 5.202532293364268 0.4400998418823646 0.1743544757865965 -0.15511825326480383
Ni 6.334011295286902 3.478876152322987 13.459704710287884 -0.1832998579053424 -1.346982434254919 0.2703936635010569
Ni 7.342219710878494 5.31311244258543 0.7122422081724081 0.3523864004247802 1.0217545965228017 -1.1198959181819295
Ni 5.5227781157419615 1.0918688939821517 7.256226008952099 -0.7936535231423686 2.316980724141035 -1.339215131604674
Ni 8.907935992549318 3.458176556949456 8.527488924209097 -0.72810556203823 0.38892691855297534 -1.0506861919554873
P 2.681288205375376 6.873044332176951 4.001778707390608 -2.038844697690398 -1.7632131828291697 1.214693777290121
P 3.6293537751167784 6.1359329460071805 11.053504208677502 -0.7145540486060404 0.9870261919026807 0.42944519038199586
P 0.33475778680100904 8.604181249513099 6.368512783876579 -0.24651917087630448 0.3596770205489225 2.1221214435328677
P 2.8892853038936464 3.7807213043843086 1.2873285080657149 -1.1511296793852304 1.1395766844403084 1.7602155336534266
P 2.474885522622554 4.833953425631629 7.302070097138307 0.08551514825468498 0.22449638674831013 -0.9671153119113667
P 5.884024524925355 8.821374048260004 4.930140264625974 1.8549192903859149 -0.54351912411098 -0.062258491719589554
P 1.402779968244688 0.7724749716558811 11.506070780826981 2.620078819853649 2.4740044219586683 -1.8893574174591266
P 6.175079560992592 1.3290475089517777 1.0815923281822875 -1.2763377753541632 0.6184837505433284 0.3250064657499306
Ni 5.89058758516918 5.723934058243363 5.619552663803338 1.5032407146614368 -0.4204337309120049 1.1025294018790237
Ni 5.1895637604813425 8.128368651694919 7.1989577464092696 -0.7359931923164228 -1.9694717064132146 -0.8523736626913965
Ni 3.73307422860287 2.3148784846724757 13.661668984502933 0.5843395005614517 -0.5497995578030532 -1.0375743371638775
Ni 1.2770806788290652 0.9672727177996009 9.287763834301563 -0.7059429098982617 1.612231834550875 0.26944775464801984
Ni 4.469203009707887 9.307680126581023 0.04008750568420806 1.8707058637962104 -2.0882340467568037 0.969029498214944
Ni 6.976505229608202 3.122681816349882 11.1239458679894 -0.9535182899532224 0.340733132456568 -0.12031657220458634
Ni -0.1833457622097921 2.5705041192539815 10.56324638942154 2.2355752271793503 -0.8909980599318139 0.8219091755539522
Ni 1.2881488905961929 6.833925526768844 12.035144281098438 -0.44690529483997227 1.2122198618283315 0.3841233265167449
Ni 5.582327690609658 5.275106020269497 11.620335699040972 -1.244281775359883 0.6674046446137474 0.633069104556671
Ni 3.832215371692847 8.665723844087607 4.763030660632366 -1.0978564218833866 1.2684372895601639 0.16785267011233673
Ni 5.96874176725348 1.393964332239212 3.6954005942286794 -0.27236441407418255 -0.17904339662183358 -0.14439598175129326
Ni 4.289080377507669 3.599059875573249 7.341076737251285 -0.7454265698151807 1.5752017783807712 2.4630273541218743
Ni 8.524747826872797 5.7683552230574975 8.235994496820451 -0.34053541462346515 1.223537086613364 -0.04682724476618386
Ni 4.296820709857377 6.270957713678859 8.835916603218354 -0.24961426486186045 1.023300857963999 -0.44262183697327
Ni 0.16970516454201268 6.544223890130419 2.8241988421846558 -0.1575435748768448 0.35703906870544316 -1.7529249135292841
Ni 1.2735952118069211 0.06685700479736705 2.6128868420517075 -0.2863406737486165 0.549601582859634 -0.9456741113184552
Ni 7.764637920272337 5.384249341329935 11.443375942766167 2.23847080355959 -1.0947325315424243 0.7611534936321344
Ni 6.717032603499596 6.186370249378154 2.6481614368904443 2.42337734383042 0.27691012446333596 1.3212888861435568
Ni 3.262749387372748 4.684940440575867 3.6162888356991987 -0.3033467213883098 -0.3088285704384875 -0.24488652036888794
Ni 7.490769202979184 1.3662845329622906 8.83568578372673 1.6465231516335772 2.986835372957172 0.1286500317709462
Ni 5.394140280991179 2.4570966630068773 9.498343515565496 0.18631216236910494 0.11471670951930567 -0.5072825103764489
Ni 2.2276769201051625 2.6109114350771896 5.980661879072032 1.3055226244482354 2.1410702167212285 1.22243022670243
Ni 0.4623954037547445 5.4167680070578115 0.344141665169404 -1.8534025966310725 -1.7819868638922471 -1.8327039306311406
Ni 8.092142042326463 7.465082423409074 12.429710271836072 -0.9872794455640673 -0.8263651544427769 0.7237290302370891
P 6.121156790599474 7.412058829348797 14.014692101677435 -0.25818735124285214 -1.1065518927748557 -1.0340791795264257
P 3.852692490447944 8.64639618786109 9.013662443544963 -1.0589926549386535 0.3123988042882491 -0.5064006219921279
P 9.139673200226396 6.581071580058671 10.244874932554156 1.055148341491899 0.499678729887262 -0.1271896451753358
P 0.05472368621948291 7.463386039193509 0.6645969863627903 0.13247711882652025 -2.2078782754847133 2.3446236826692846
P 7.188571796272008 0.45768168040165874 10.85305926436918 -1.1668149513309711 -0.8071818966461066 -1.3901491994503798
P 8.38023999334034 5.325598942795079 4.209183461912295 0.06614754236135059 -0.17571304669701995 -0.5976380174425707
P 0.07365922740600894 2.6763566403334056 5.419922540110034 0.755448472827557 0.6579000475574218 0.1189178920848468
P 5.556464783716619 4.543222834632942 3.7339863827384523 0.12248118395607291 -0.19878072714976086 0.5984008637505243
Ni 9.182574108147891 1.4741300737485263 7.267364671648398 0.8657516266601993 -0.7194872242415996 -1.3630767687136203
Ni 7.829387886095946 9.143390413726076 0.5604936876958087 -0.9386231180089447 0.1175076420008815 2.036487767422447
Ni 0.8987007890684662 4.233220206562348 2.5716007435856825 -0.6379809400359916 -0.5749822277162678 -0.2300556260036425
Ni 7.045621299068592 6.990947670088257 9.812455472175762 -0.11625191521690946 0.9145629917359475 -0.1715774272620916
Ni 8.06169055517821 1.1013983091384394 4.698341875878828 0.9186286771648888 1.9433528978389758 0.10971385698807556
Ni 2.265164230311415 5.913827121936507 1.4092837013902635 1.767072151563944 0.5016463951365941 1.0852613588271955
Ni 2.171974336764567 2.3738811378531866 3.294973271581198 -0.6887064914153171 0.3902317534073279 -0.49336744295725354
Ni 8.537039660041318 8.640973320286744 8.51527866580067 1.3120629966699144 -1.3216084742665044 -0.11154345399764662
Ni 7.984750724636199 1.3903490871896476 12.444716319749496 1.0644793890848376 0.8460325509647172 1.6666224934866134
Ni 8.246883800306922 6.810148338173632 5.745349286739526 -0.14709281185716605 0.3598814232502447 0.6851655681415942
Ni 5.865447727286055 7.922475811192678 11.540626961585357 -1.1520097679973387 0.39943141762872497 1.2734486267318261
Ni 6.292269119753086 4.78989378532245 9.414048978812398 0.348145108649923 -0.8371133940982164 -1.5230320383557514
Ni 3.156368484324541 8.269715463273785 11.59335021221075 0.32923695889151045 0.41840333074553754 -0.7434046542891455
Ni 5.230768284187276 3.033301834893729 5.572921564579419 1.5674023369410102 -0.1414950060544144 -3.007219593040479
Ni 5.916608079666942 8.542193701701722 2.255807234534414 -0.3287217098179887 0.31807502873741994 0.18906992761990019
Ni 3.4899443640901153 4.750181708931851 12.842131865174915 -0.15488145466364941 -1.5822807967147396 0.8991260883555869
Ni 8.321432007200759 4.435618310183345 6.2866200676166635 -1.060075089369555 -1.1293442080790226 -0.3504336475737836
Ni 1.7050793434019798 8.093189536404928 9.102162715372389 0.8585078006135924 -1.0936544679868971 1.7285806803569648
Ni 7.381764929805267 9.02229824428387 6.563787927764023 -0.19193902163757912 -0.18438692032193407 -0.582624317642558
Ni 0.3654326775536077 2.298795279131465 0.5175149129578592 -1.8260195766324294 -1.2009481455692543 2.9265923690057147
Ni 3.4222651227904497 7.921864000491982 2.429428914546788 -0.026153518466916246 1.529713564140985 -3.064996394839631
Ni 0.7975712612012288 7.9771772497503175 4.458294239517304 1.2072167521867854 -1.4853846603166225 -0.038234618001166405
Ni 2.728277121160611 8.937052619986963 6.914680831317011 -0.09866299849055267 0.2541005827679882 0.7323463395924549
Ni 0.6998641653142458 8.982604707611474 13.07245171139538 1.0209169311128548 1.5575598969292916 1.305267828124952
P 3.7891105268711183 1.771674011186776 4.490136205530775 0.15400882225070897 -0.7115849386753873 0.5310549302056984
P 8.851723566958142 1.610350653244292 2.4263624451560295 0.24445071838304996 0.08830942317037048 0.9612961341264283
P 6.594114271814408 3.0158188806283994 7.445382118846678 0.2834031883868474 0.6885563389906979 0.8426554069623681
P 4.847190784428495 3.2621004972356467 11.834944061070393 -0.8458116932031626 -1.125799428150558 -0.9511667590019102
P 2.601771354003162 0.17937733552846258 0.7082811973783598 -1.8432097152584708 0.11725027457443676 1.4865100321703173
P 6.462574971164873 6.409940711186856 7.796248139808272 -0.2932728820920756 -0.44478490606285975 -1.0529760164309285
P 8.74754889037608 3.586656804095513 12.556009321135559 -0.5932630283033267 0.9935539657188694 0.18645897235961437
P 1.6377523567481695 3.314354692990504 9.400440825651472 1.115868285079775 -4.608053213056741 0.5441811831750112
