# total energy = -340866.0832822049 ev
CRYSTAL
PRIMVEC
9.26257980201042 0.00000000000000 0.00000000000000
0.00000000000000 9.26257980201042 0.00000000000000
0.00000000000000 0.00000000000000 13.55672181615764
PRIMCOORD
 96 1
Ni 6.56060186646073 8.834500354515843 10.324229768060086 -2.614844053817271 0.6870931241816103 -0.8460358933988268
Ni 6.9800022144977305 7.341567014639614 5.821812022610936 -0.5927040704760631 0.2793796690497511 1.155861280532945
Ni 6.941534720838471 5.060971681432648 6.22151827360524 0.5763657383273557 -1.204410650196558 -0.1018557943962375
Ni 3.38958548029003 5.479593972771508 7.7227082770615 0.7068924182957245 2.485601125657332 3.188521960899818
Ni 6.194572502884278 8.442146739318968 1.7622382145201427 -1.194872885909452 -0.006164991160131318 -3.5029406238315737
Ni 3.9273801225607583 1.1616201251644311 0.24648836197094104 1.3856970772162973 -0.4110666878748082 -0.1657885884944564
Ni 0.09198390062172408 -0.07424883919398836 8.067618958831277 -0.21234998119376333 -0.8474464005931082 0.2080634380032675
Ni 3.281018783160197 4.788086819719314 13.046893760701188 1.0848294134960994 0.9277877179563375 0.025596360411865596
Ni 4.718080242046139 6.070250157617099 5.855202696314829 0.3469006947198607 1.3285203708949893 -0.37283027010142883
Ni 3.122656457349366 2.885238013459607 10.84227288529373 -0.13621524571271382 -0.3087352393937328 0.1081223441312396
Ni 6.629172744274241 8.765169945163672 8.079778873513646 0.873625115871005 0.5800105341687947 -1.5612242331547563
Ni 0.6818712913489133 2.7238097737549127 2.8403367319131028 -1.5607282673549445 -0.667731688935863 1.2662209986351356
Ni 1.6463309229465435 0.11147607342609399 3.4759701514590633 -1.12875465412414 0.3656286101466671 -0.829616828610855
Ni 7.19377329231186 6.999268380356451 11.235051652900662 -0.5329562609934692 -0.7173802052009258 2.677243441990099
Ni 8.311396163712388 3.9618183940332194 0.6377841905615348 0.4300226601520207 0.6828029814466885 0.1811928388646686
Ni 2.508686359298778 0.4370585300528965 8.89775080652683 0.7709933625406915 -0.15422813735036664 -0.5213371886973022
Ni 9.134839502577853 6.625745589770525 6.791849579727856 0.6572690988416423 -0.5168696398442518 0.19498320778054162
Ni 1.46481214778629 8.56432942866626 5.875157998106188 0.9095547398880787 -0.8400030569411855 0.6881974129893826
Ni 5.50758548874509 6.300499364788276 12.514548294091368 -1.0776596352205374 -0.13702771431168015 0.7385514399619022
Ni 3.2962649894118567 1.1701139107857994 6.533675547157221 2.3373258634562903 0.23603215530205154 0.33557832772850593
Ni 1.2225493746926317 1.6482945898513743 7.122335646068891 -1.0838991883723463 2.190706134580801 0.8643102662279823
Ni 8.968455782712383 3.804428639095064 5.936393839023775 -0.06368673952568386 -0.8278239983764905 0.15382447415404474
Ni 3.8658858556684317 0.6615630852694698 11.37516021281833 -0.4826261452803495 -0.7112666361040203 -0.24332637497061968
Ni 5.98720186767033 6.307381461534925 8.017092512608812 -0.19842077270718086 -0.13832766407002628 1.197062951582235
P 5.342229915230734 3.8658488053494726 7.146601752471138 -0.9228931088681978 1.7407124306234927 0.3911241833146103
P 3.674548745984023 7.854241540656089 4.874861445495392 -1.6596334637632901 -1.3734912791787248 -0.08526215170361444
P 6.632433172342639 5.738686853252327 0.8276550338731377 0.3472544785148536 0.0857329206924459 -2.58537021272787
P 5.310913133130575 7.013995882142684 10.308829802984746 -0.7193411855820385 -0.49584418663252017 -1.0317721286598036
P 4.643275648067765 0.7768303325830512 8.36380569239595 0.32809796019106074 -0.33375104471178 0.2224616157064685
P 0.05967416997346183 7.323643922843161 11.665911664591704 0.921152214917691 -0.3863514445163153 -0.17952342158204565
P 4.534199509052245 2.961978486603593 12.552792559578899 -0.16228777443004952 0.2067354632204633 -0.3887770232386724
P 4.843078755634322 1.8090188734958463 4.102697600585236 1.363286313621265 -0.6017715799949701 1.2956655291484975
Ni 0.6609563862965149 1.972948009730278 9.817913076776987 -1.2481854812896633 -1.861507228016078 -0.18934272166531263
Ni 0.3125453756430777 1.7969312069354477 0.4747248105646672 -1.4612165477108512 0.08870177351278272 0.7594429386989306
Ni 2.2207868558272774 6.724679203970998 12.03196974216535 -0.08176108052889144 0.1694773501999533 -0.5344161333684474
Ni 3.1194052918607076 2.8892672356464066 3.9467546606024326 -2.2953222653309955 -0.6837961985978933 -0.1209683468559723
Ni 8.168622759603588 1.9018021347491125 7.175044356078047 -0.1618799974686696 -1.2256111955335731 1.028483430606203
Ni 8.928487751135279 7.713607792467177 4.435935579366958 0.7806352565058298 0.16314420889307385 -0.6613005885985385
Ni 8.916816900663171 5.234793252829153 3.6592849408308576 1.0525998640384324 -0.12851453463434642 0.6204791837068023
Ni 1.7283603291219378 8.887343371931225 10.948706410309496 -1.4380992449670975 0.32119531953395647 0.9192331435181073
Ni 5.1420748296340655 4.010604401522582 4.814534263650275 -1.0058901186867193 -0.36379772758551543 0.05306216993230216
Ni 5.06974334444621 -0.10281185633751405 5.532959399684214 1.5134665061545032 1.9444736417069803 -0.312186688277443
Ni 5.675293757513349 8.730268544704222 12.527577038753325 -1.1353539046082124 -1.3837170706717912 0.7013650607195921
Ni 4.1265255869657915 2.936098838810679 8.651818199340275 -0.3888094191385046 0.28970701911768815 -0.7663561208789963
Ni 1.737650696600926 6.71861221424145 0.7399587814129527 -0.2626240468579671 -2.4586585356302173 -1.067555456907
Ni 6.34845174010106 1.636206923290976 12.304609145515581 0.6129111415515573 0.7621091726771843 -0.19624279121925556
Ni 8.353642789905475 7.247811182513673 0.22849209579454383 -1.2021866459620458 -1.2685023384701444 -0.3465733932874289
Ni 8.252078603058907 0.15916076018439881 11.620713054235553 1.3407811905402136 0.8353102794512066 -0.4286939140382681
Ni 4.800822866861496 6.812571823121666 2.9296215167986586 0.5242571905575746 0.060086937989567483 0.8370259765907327
Ni 2.5804065142238093 7.299450064562885 3.0648227619701967 -1.265136250211389 -1.578364749489785 0.4684395693673223
Ni 1.1316186293873194 5.974808535978518 8.994355808180725 -0.30922606298722227 -0.6308186179595975 0.18394366213692837
Ni 7.294605735358985 3.6364054426156547 4.200157538349111 0.8656791215510511 -1.129545011235919 -0.922559636788179
Ni 3.226137998202066 7.406330972180079 9.983996689058891 0.06859137591615283 -0.14001713595730725 -1.6886938714643562
Ni 6.135903322812582 2.968869845929982 0.5520219647510135 0.3475069608452918 0.8259632910186677 1.3760065894014106
Ni 4.025702406498406 2.936191464608077 1.6309550405785267 -0.45603399661411786 2.3723437742923723 0.9038646314818368
Ni 4.207471271311633 9.134135546517632 2.9196031105521243 -0.7471499802641907 0.18843229403590128 1.0101208689386152
P 1.705768897136641 1.3137487348103973 5.115601450479832 -0.8025654809200178 2.0689993668969078 -0.4472495655532684
P 7.354293799202057 0.20702236221573322 0.039514165169854586 0.835823214531883 -0.32790564167459657 1.6928271769064394
P 2.1996218611219054 1.8183740790330127 1.7219209836868503 0.2801921376487174 -0.530704488844815 -0.04894789065361247
P 7.34694857346842 0.23950159807323324 5.961473199927173 0.4677363726527106 0.19811121188656206 -0.12896550612883598
P 6.477479475876042 6.196073040802121 4.018415535017129 0.9070728540064895 -1.5104943109000566 2.6578827780753
P 7.7671640285225205 5.318814113648598 8.602458838165019 -0.918149166425309 3.077242816307152 0.7948796822399858
P 7.644675674043815 2.475035407104197 2.3386022388272694 1.0545503028965837 0.42187611978548634 0.037185607911361766
P 7.682791189672964 1.241426512202281 9.736464434351277 0.5184575531566619 1.573106329304323 -1.3800473351296878
Ni 4.479281673775154 8.012752067742756 7.487743490544804 -2.1883054955591086 -0.2642289294512417 0.5086246262266402
Ni 0.4926997728076629 8.874125670642574 13.244605377762506 1.4793687931398458 0.08047835716172592 -0.06284367479909822
Ni 8.43649656567771 5.246038024633233 10.961247017019167 0.6252768622057618 0.1555388857419902 -1.4405268805719835
Ni 1.6617531182132588 4.374818299470039 1.7745481829942957 -0.20140376659490472 0.76007722984882 -1.0228601708821548
Ni 8.716254261557951 3.1363650753642247 11.505359664930392 -0.9234564375708355 -1.3867466015267345 1.044421699103014
Ni 6.3580848230304206 3.6875163576196996 9.730309450114202 1.3365026177695176 2.099995815278422 -0.6057177091269117
Ni 5.7552483458270345 1.377484545999748 2.2247530924718464 0.9377119190485851 0.6346215366454554 0.04426385491438183
Ni 2.7980586129489016 4.009817082244702 6.430129168246343 -0.9970547797832765 -4.185455127503566 0.20079235826315095
Ni 2.179114509578057 2.8728261566083164 13.267882240648547 -0.19889719812296713 -1.290013473069043 -0.9932521182077344
Ni 5.530204708469607 1.725618605518966 10.21433944828544 -0.6484221899739736 -0.49679369502998316 -1.3894069219677168
Ni 6.7466407805339905 8.63805956339482 3.878821974532993 0.045016416809690214 0.9288788941379875 0.6633700695330574
Ni 6.230668776130158 2.2583929295707397 6.1066391283827555 -0.805357184732542 -0.8137263826328437 -1.4237648306222963
Ni 8.743745598225587 1.3130910916488738 4.324187186096514 -0.5261340958653132 -0.439838617801178 1.3480425000883172
Ni 1.4705827349641662 4.5502422971615255 11.008749230956598 0.29980656944553524 -0.14784768774531956 -0.1611904276008127
Ni 8.561754431498604 7.604096312203887 9.624553945935387 1.3004534374554442 -0.5282267167282838 -1.7591253859130414
Ni 8.9067392139063 3.7759091560763154 8.436795747003304 2.7013904715499475 -2.155791067871171 0.3303775002538568
Ni 4.063919810504693 6.803929836224462 0.660991584099526 0.671110889820741 1.1657500004015666 0.027767657031571535
Ni 8.463802650750548 9.299352181335891 2.1001667636820835 -0.23920823903718805 1.1482945239292806 -0.3136337051366147
Ni 2.286254769427965 8.949958410972064 1.275384982044222 0.46972974893365554 0.742603755654405 0.023991992039223198
Ni 6.441735180660275 4.2897970800387 12.246383643013418 0.5532391796122215 -0.820583257653677 -0.8615105919956582
Ni 5.821133075516012 4.660883812153065 2.4166079803637084 -0.21458966915755948 -0.6477477896147684 0.46300965660100263
Ni 4.086335253474934 5.241064019312977 10.681341119863086 -0.02544055156029167 -0.5549193955281218 -0.11596498010410997
Ni 7.62965176970591 6.854864762213452 2.4092331143749037 1.3998854529015374 -0.6659409155840272 0.1998719033314106
Ni 2.9288925517731386 5.117519730743939 4.598317864784848 1.0629938056782466 2.229617724044334 -3.781033455749101
P 1.1153998522629838 5.199752913673607 5.425318960528358 -1.6374163042363024 1.3055665903122933 0.51758569207467
P 0.9037860292702472 1.4640896665665883 11.885815496451535 0.8164183276427102 0.3583233347345055 1.1391866480907415
P 1.904543858352084 7.682448474222594 7.98711880457092 -0.061786694289493585 0.34371998299903384 -0.2260310782252817
P 3.510332469777658 5.233959620652574 2.1403487608511753 0.6467669137587378 -0.17851246381902805 0.23173687036080734
P 3.261057923820995 8.543025495264793 12.97215585729694 0.25025909753471093 -1.27683939758093 -1.1412131916024668
P 0.9481176621627556 4.725453255518995 13.154154434087715 -0.21484677947368805 0.38794707113820925 0.08140832517516303
P 1.9372592899929482 3.1415428574387554 8.760529392714048 1.0907257243758763 1.9821156204294705 -1.0741325959038854
P 0.5754553652346551 7.68378228570512 2.046861543537687 -1.490402168135872 0.2743045685196889 2.2666927745197607
