# total energy = -340876.4327915077 ev
CRYSTAL
PRIMVEC
9.21066549795118 0.00000000000000 0.00000000000000
0.00000000000000 9.21066549795118 0.00000000000000
0.00000000000000 0.00000000000000 13.48073998458655
PRIMCOORD
 96 1
Ni 5.387962903308437 2.115431929720593 2.6491273535867426 -0.4795793880342256 -0.6705938409750064 1.3832702129423597
Ni 0.3903176018678405 3.7567448611202434 3.5217485509956905 -0.409636640296501 -0.9124832263887833 1.231747133227982
Ni 7.6821277939307855 5.915789291220626 7.45335236717614 0.18875573881359106 0.1435799136079011 -0.34835671044009686
Ni 6.727414699555639 9.069760580565882 11.81319962082397 -0.8766389629966644 -0.0881196757570676 -0.34087788556454846
Ni 2.3049505797342253 7.855619886254695 2.4858213360611443 -0.08166877792540128 0.46193544970021727 -0.7777391659049573
Ni 0.20917881517955836 -0.19723718756764766 1.048060424385506 0.6884591512912014 0.10703039661864149 -0.06305604792022043
Ni 1.6641830134361906 6.766385024604612 13.494085254785759 -0.5931020772454303 0.6069631514982385 -0.08628210832769657
Ni 7.456779655748752 3.592748964760761 8.47380382220823 -0.08200225000542007 0.18299749617357516 0.9384791362319127
Ni 3.987803611812408 3.185766506095211 5.929557393769244 0.32656275449345695 -1.394256279640218 0.405735762580198
Ni 6.4595593408344865 6.3799791923062115 11.538178364469138 -0.9922936109492072 0.560478377673138 -0.9247774703751042
Ni 6.043403059491372 7.769352794690365 3.592725017030879 -0.16253177212005557 -1.0717764369668832 0.5689275368817557
Ni 1.9742416407402779 4.85371668165502 5.410332846217074 -0.31756569320116923 -0.7940214480047486 1.1985025122422392
Ni 0.5755265815693916 3.806666667257194 6.9892379935463325 0.015060236767232128 0.24794253358639234 0.8472224575077604
Ni 6.9641656414272575 3.5277124568026412 1.845931546169909 1.1465554297509868 0.8902598962142086 0.6177142193671555
Ni 0.9210462704283234 6.157329779068482 3.3978743128525464 -1.2144088990598505 0.11692425869358573 0.2339811863102938
Ni 5.222760409789555 8.900311970325758 1.5390423088089447 -0.8712699853752672 -0.5376402967326999 -0.01787353784631115
Ni 2.385718904091221 1.7568054640843769 13.167043081663236 -0.691373496724519 -0.31423225795256204 -0.08971041728295517
Ni 4.180638101348051 7.484687971725681 12.133582482906453 -0.2183949018362626 1.0557867464068462 -0.3709284250930257
Ni 3.1668570101544065 3.8140075675323133 8.10731697477178 -0.16283439096213892 -0.8453074998732345 0.9183833939233023
Ni 8.227611027297685 7.116473203471649 5.166371795518149 0.5067104399230629 2.771166868913137 -0.501532238156233
Ni 5.405398692795014 7.124781223607356 7.7561704904573014 1.0079606280625026 0.06100842136257235 -0.6917882156644344
Ni 0.9330035561713103 3.7647305079690874 13.031157214851605 -0.5872636161867821 -0.05399933703459088 -1.5463591431174657
Ni 4.611218284611915 4.46252130338038 2.1023481796066563 0.21885101553707473 0.5115258590338352 -0.5381599166815957
Ni 7.170530598345774 0.7548471829197708 2.1452173792935945 2.221303033531052 0.30439393170590157 0.26015861603661
P 4.149727108470634 5.323313243294552 5.848201428963626 1.16460483105353 0.6663448358906653 -0.7528300613681035
P 8.95014166980932 2.017034391904903 7.8434581237411845 0.5747832243315842 -0.8518946661724489 -1.1772207200453273
P 6.347078695715587 5.958287301094406 2.12786724899467 -1.2910745673437056 -1.2110227561964368 -0.3449898508503929
P 4.99256746163925 2.1812145015711644 7.66571438829683 -3.6262808133538322 1.8751680133326223 -0.04814982023234934
P 2.305770328949389 5.662882842344541 1.721517563037904 -0.4904646674881618 -1.3635398243929677 1.322895054288412
P 4.077865497496374 8.623430159572463 3.4544526668299342 0.26265284321337345 -0.4822363660410985 -0.21695482695562637
P 4.170736636108711 5.321673744864224 11.678701801278914 1.1147393136816544 -0.6194661690612557 -0.13197189705532755
P 6.951823349873103 2.625159360241803 4.304211150734613 0.27482855934395894 -1.2031176424167473 -0.44285477891968245
Ni 6.30831100530407 8.009253784107893 9.764571725740034 0.36945749697445407 0.24100878258103653 -0.721197779174803
Ni 7.937631650432445 2.9945254616632004 13.303414350538228 -0.6697435771595691 0.1322961131639657 -0.8334670555948807
Ni 8.839355787112781 0.9634540157817821 12.439001698079325 0.7581707568547265 0.22503966084628987 -0.8596933362812613
Ni 4.096323670835571 6.512428559879892 0.9195172999820627 1.2783051834931791 1.1343897409227301 0.22423310578459446
Ni 4.9538642458851045 0.899638842047604 4.78610763486774 1.2851733713679223 0.9095331426215237 0.7102415372736155
Ni 0.9455300610322425 0.2788464456700867 8.932809960841073 -1.2598557185387398 0.99051954976792 -0.08417946016239697
Ni 1.8248814916043397 3.2525806724637416 1.7760336490459079 0.12592774774377666 0.8443227673624621 -0.4452248218137558
Ni 7.3651611676225075 4.221330820815403 11.16647459618472 -0.030211233476057652 -0.8834732123096785 -0.0931369264660009
Ni 2.043911113363874 7.600152872414391 4.991958636660346 -0.8651631011465809 -0.0613074406602299 0.5044177872341442
Ni 3.186208618031479 6.108513252772203 7.482511491506095 -0.2311126065132471 1.4504333410524182 0.3981821186026562
Ni 5.427246390978933 3.7522868990962057 12.871625727981897 -0.3181938137034714 0.22201347242545638 -1.0817978257586274
Ni 7.306995816007224 3.9294448362250067 6.139438982714163 1.2009640864088542 0.04683418674471934 -1.705191354898747
Ni 5.839755248847835 1.5288875502727843 9.429076003969449 -0.19399359017376266 -0.7007899049424124 1.7679851502965163
Ni 7.692821376389272 7.592867236131305 1.8909026196871894 0.5814133280535922 -0.24499065004692 -0.49049912027052306
Ni 7.664120943193196 5.1757860165610605 3.602242397525586 0.5696592728414577 0.66140343272499 0.2853212313451666
Ni 2.194643651635311 7.658124800057558 9.309664333183012 0.675769728748991 -0.9900420959108691 -0.1634314011161895
Ni 4.013372418793251 -0.016312088315228544 7.657976508345602 0.07220711829186918 0.49787175858551036 1.2586619553409548
Ni 3.5399073777113723 2.944493127542183 3.647915323741692 -1.0097994810434545 0.8239444608164261 -0.25201361833197244
Ni 2.0097119129604613 0.15208742714279233 11.19388093090068 -0.06465450275559188 -0.6888813264302845 0.9539715754405571
Ni 6.79661442824695 1.6070400456735265 7.048148487987536 2.368284516621334 -1.7446472469015244 -1.3901754247026252
Ni 3.2906483523095007 5.6185058567416215 3.912609582118527 1.9840748010383704 1.265960288774581 -2.596785396543347
Ni 5.64778656185405 4.2645380519202805 4.370563862769664 -1.6569114368464368 -0.5462522067714269 -0.872003521107182
Ni 0.18349855914811358 4.204438460583822 9.94177571619553 1.0270114740463667 -2.6023150681123246 1.0026453864971765
Ni 8.258844393461967 1.7827795403401334 9.804757858613746 0.25377379555618873 -0.9146822909226311 2.0716337191959613
P 2.053167832029489 2.635797678708256 5.111950579363136 -2.424810733842837 0.4032855012674926 0.8139603530205208
P 4.196729133695146 8.755363729887163 9.919977755604439 -0.5378141033064028 0.25987836579202983 0.6439512986868136
P 6.15837979491712 7.72433106251372 13.450286698966123 -0.16887519783958013 -0.43004091498446584 0.07625454888836544
P 9.1138059822166 5.676919896321056 12.58238320434377 -0.0894947017277233 -0.5766295335117037 -0.8068569092065201
P 1.998705167880451 8.400707061012023 7.052138548212357 1.0422313763199147 0.13484870438249033 0.8177275333724368
P 6.783378702154921 8.368405257668428 6.401477806273786 -0.8016334560240518 -0.22558653448869537 -0.3185540252563675
P 3.847368597389884 2.6574151102587034 1.018258395614894 1.3810521222451182 0.5632127458851655 -0.41648220246342466
P 8.933709842844685 2.230473139803712 1.545311087638614 -1.5493251677243252 1.525335232567631 -1.8098563366090055
Ni 8.341279848245307 7.770034383925444 12.748317945757096 0.8384593666031496 -1.4679296980649685 0.043124341993299925
Ni 4.283981766450742 6.432010240805775 9.775504785497333 0.02553722503915602 -0.10851546580460021 0.29813380972880266
Ni 0.8784349693708747 1.2358594431803616 2.783651884061281 -0.4211757512843521 -0.9326638151017163 2.9465060772105063
Ni 2.2218980103731774 1.5791317296965968 7.292352700251408 -0.5067590337728112 0.4909925149671738 -1.292681249709193
Ni 8.276832822868878 8.216899023508521 8.047003695999459 -0.5843790955501355 0.4140090583325838 -0.0872544995432949
Ni 0.3285969334317329 0.16650764479740657 6.136459332477022 0.17803835239608692 -1.6702932574699814 0.09417950879790232
Ni 5.133536694651431 4.032797711993036 9.743191008288797 0.0058418034927576815 -0.350976407451131 0.8993572305297866
Ni 5.7651396489372395 1.7292103107289705 0.4453365902033493 0.5138478222987924 -0.9045135779197455 -1.406792721544332
Ni 7.078221310319111 5.341789837964427 13.442912640295782 0.22546055043379237 0.7335084782213561 1.7439880160509706
Ni 7.399240629376514 0.27222121409180106 4.54664875738648 0.6472749637434079 0.368093783857708 0.5764117610739428
Ni 0.8046934616009417 6.4874676568114165 7.2533123741458585 -0.08794201252862274 0.16833423773444559 -0.2346242192109314
Ni 2.9762146589694263 1.6744068519623925 9.717577990114327 0.6478856007442132 -0.06863097090483665 -1.1539465800087352
Ni 2.6421069844654173 0.7205310070665539 4.4042656872447745 -1.267865476217094 -0.5991724518092262 1.6370923452379804
Ni 3.0205824339070073 1.073438570593834 2.1686870756436987 1.409114427698973 -1.2305903939157192 -1.7327546092289965
Ni 6.173540550064982 6.122587149410073 5.602191005226791 -0.8006546370505501 0.9382418234101261 -0.06129509936505572
Ni 8.757583500233844 2.094173714118364 5.453633105041873 0.5033435803333589 1.6783793769122255 -0.6286745750334012
Ni 2.1332729884820822 5.964965033465124 11.283742945146791 -0.8715283812429764 -0.4699935441180034 -1.07602904159565
Ni 3.25250698714103 3.2855272223810608 11.394541722774804 -0.42338484312052893 0.22985456573642998 -0.933888688647753
Ni -0.04349828812958686 5.257484618117286 1.3179283134832127 0.19296797712272573 -0.3617182193486674 0.2608052484816734
Ni 8.762069094253897 6.289309402709876 9.667671842108454 -0.2829218778750547 2.0334029578495367 0.498297019048387
Ni 4.372708105660565 1.2166736272793897 11.886871127537326 0.9550804922340197 -0.615565805565585 -0.8201739380304004
Ni 5.4759431786258075 4.497761308967091 7.410982385550571 -0.7228419996464454 0.5500540970160205 0.4804623048598113
Ni 3.121291848722766 4.448088190794292 -0.12236921542676474 0.11901559400497567 0.9201839374671508 1.8231553677107568
Ni 4.284709409012517 7.957876692847393 5.657839082004949 0.5217382807904628 -0.9141618996427869 -0.38633344679418624
P 8.549772468857116 8.532170887394438 10.347492629443511 0.07662761595706803 0.36471843962757183 0.2628073665133667
P 1.6619079790974771 5.213982645721563 8.88969852065572 0.5738344872650697 1.0333777825840267 0.049674998627624124
P 1.1706203005847864 2.3512249623969628 11.191925506649227 -0.1051833161075737 -0.08937591676167188 -0.35476698484181485
P 2.1917975560455845 8.836509691523055 13.475131547651328 0.28860273030991584 0.2074792833650233 0.2254600362131601
P 6.593040302926125 1.9198250299179342 11.705555496074536 -0.11620949201474826 2.448012882990913 0.034166361469063745
P 6.625563162237854 5.669956633324833 9.275180523220627 -0.8862582312539834 -0.2973390817416492 0.6828574888337078
P 0.3149310692683763 8.547994810446703 3.7380204995527513 -0.16014013195942742 -0.6054875953939766 0.06436293965710205
P 9.121561362431972 5.316036817676806 5.389101341544327 -0.1507527772072565 -1.7640063681544265 0.4451284054452076
