# total energy = -340890.9140712141 ev
CRYSTAL
PRIMVEC
9.08597176096198 0.00000000000000 0.00000000000000

0.00000000000000 9.08597176096198 0.00000000000000

0.00000000000000 0.00000000000000 13.29823809627075

PRIMCOORD
 96 1
Ni 6.544489060443225 1.8074178163638117 11.4591183617072 0.4096291840973333 1.0268489803265735 0.2969637006801014
Ni 4.723133363631091 0.3477919126550459 5.781302880570127 0.887979070599832 0.6293572029227226 0.501692160772865
Ni 3.054412903879823 1.8044830475340803 4.839468326919377 -0.6200228128956741 1.0223104690262717 -0.14462146749853802
Ni 3.400561164270787 4.462947480633594 4.684823272938584 0.543998891960876 -0.06353710132169701 -0.11352397476278513
Ni 3.797863444820848 2.7819609592100734 2.5546844653806486 -0.11939406039031696 0.07797487401358183 -0.1253587626141841
Ni 4.839515573971744 4.8429137273535385 2.35886814824765 1.5576216034051624 0.21969099493986677 0.1980916715025363
Ni 4.991142268184003 4.614292509725971 11.012550125898407 1.0879623026981262 0.8339997881698992 0.009914173789918409
Ni 6.094606262191442 7.92015059191536 12.409888968435476 -1.6240514528936225 0.7865552215346905 0.48908372798023514
Ni 1.7604433431448896 6.732205233886733 0.06176007481837153 0.4928995021818995 -1.9838441730848024 0.49607121504166185
Ni 3.0426374846744606 1.5104246623779483 0.23801429507703015 -0.5746140457435717 -0.8338972011537639 0.5153341770363319
Ni 7.709237932953882 -0.030748745119434616 6.917849805803372 0.3203093173845774 -0.3601148794172895 -0.02311935962628276
Ni 9.038179398412147 2.3380203863906255 1.0619692702659507 -0.470300533835461 -0.3305340804363791 -0.35803537118044143
Ni 6.987857217051302 0.9758606087295775 4.584101643263334 -0.4081937372023874 -0.7779219713397247 1.1244513987630957
Ni 1.0084519888913328 7.606948064578906 2.46542660608457 -0.12554568181400957 -0.17737680755268806 -0.7125028225039665
Ni 7.744809511803414 4.133081281366094 3.792883423781914 0.9103600093981935 -0.8272920371324203 0.27388804980756054
Ni 7.706530313414377 4.009294004164044 12.568936175660866 1.0900325549635939 -0.7229278744920323 -0.7834017635073734
Ni 8.238005136715662 7.24449048514965 9.104212605678269 0.23383669031262952 0.9590009103343484 0.2637170228118297
Ni 7.3284085189310755 0.7805849069073185 0.5713640558594499 -0.5919836473702708 -0.640263308312265 -1.0849152883416866
Ni 1.9792880553210914 6.619793593139247 8.781477985526733 0.20379155010079095 0.487885851017392 1.1382512807606655
Ni 0.26095819058426856 4.653053264610288 1.399745716416312 -0.3887965636226981 0.8734788201011279 -0.40083883949921295
Ni 6.425517348193986 2.1738823092726696 7.155542457485441 -0.5106452562010948 -0.25502669412668333 -0.7097232028763003
Ni 3.6864058310923142 4.253443147271523 -0.20778345033931284 -0.902379305185562 1.399558665689738 1.6629244758097361
Ni 6.15784462459061 5.77242679490522 4.608783685139389 -0.48825737542419784 -0.5021130503603675 0.8513115399754694
Ni 5.376114885260549 2.9805257827548175 9.242780941493963 0.13709944808988 -0.4739643558402934 0.1916780546667086
P 0.17970598087294654 5.56841947436664 12.27815691765845 0.6927567502252908 -0.8885331433310891 1.3362709613746857
P 4.459721960712372 6.276979884328813 12.350658428113071 -1.007887351622406 -0.12250046722978256 0.10168738713917326
P 2.4871847822968243 8.37371320866882 1.1540555925239346 1.1738813712594491 2.170314972518959 0.4916918550270435
P 6.464477994453703 7.931344508937742 5.488369338699198 0.3568254100327403 -0.061098924193849616 1.0858449992448074
P 4.89727509549064 0.9669836144675105 12.600346379513443 0.4823219837763693 -0.052069724112045815 1.0325629999922152
P 4.122459780555084 6.200675894755793 7.805108562387046 -0.5593699751003076 1.325030098353544 0.51417075285585
P 4.984527680852596 1.404691210763132 3.7617121809826575 -0.36202109530106685 -0.8502023660716905 -0.12686568617701374
P 0.5018254807465485 5.77006444228686 3.3578852642201187 -0.6913171895652868 -1.8893923844621203 0.26318917533281766
Ni 0.8658204065720595 0.09717991794203205 4.346741538142157 -1.2203332349640854 0.2607332575931574 1.7270403324530383
Ni 1.8958334060917292 6.921784031510102 4.705860931602238 0.9146051578277925 -0.4111299370125758 0.12073283380639853
Ni 6.27838820992822 5.758379882797589 8.89831631164216 -1.362562548081363 0.12618177273611172 1.0028988972688795
Ni 8.763210639606685 2.693072898958484 10.0742799989099 0.21362319147923206 -0.3996931559305439 0.9875949199219572
Ni 2.248160127176865 5.481802907017319 6.7271797829897535 0.5547787561851995 -0.6271293420334683 0.06402946757708329
Ni 0.25694491692453975 0.3278999950112961 9.472760511877086 1.4352378642589025 -0.08371974691715904 -0.9012361927200544
Ni 1.6289511620183432 1.2656758451442711 11.419090113783415 0.16306861846013207 0.18038679802360547 -0.7489091290471425
Ni 4.245465664198753 7.046125552980306 1.3226112690382235 0.1892463052967644 0.4521138356241053 -0.08791553016606149
Ni 5.5927971361937905 7.91169155234731 7.761157900519624 -0.08405527587970686 0.6692589242136667 0.6217567648676453
Ni 5.581803110546808 3.192955798975012 4.871902519772295 -0.0708223221292006 -0.052078208752478046 -0.2608060198126218
Ni 0.556291337557154 7.5635534641739595 6.708016560269051 1.2313226440960536 0.5298951055696423 0.3470181941343314
Ni 5.049783128948978 4.559004372484744 6.80654392780071 0.39213231286415046 0.07778049861458863 -0.22325865768646708
Ni 0.8699318087251663 7.288875456459986 11.214204179790238 0.03673463641687222 1.2718077486942936 -0.8407689885729327
Ni 4.635226588313283 0.36200964102892785 10.552311137206598 0.0912484511940364 -0.47215301366316753 -1.3438269193450727
Ni 8.343202516005542 7.051640737747014 4.635047594672583 -0.17333246227998536 1.546071436673718 -0.562989831241082
Ni 7.502168639983042 6.4908909139212865 6.934658853280162 -1.0354832589628038 -0.8358162725533477 -0.6901455378546889
Ni 2.4612443333529126 5.318137300423035 2.2702090544806093 -0.13288309601568726 -0.08560385131374934 0.14764482770589413
Ni 2.625809451136495 5.416583802807372 11.155120832207901 -0.31853834152708366 0.026002851821664896 0.13646592827093917
Ni 1.2774240064348061 3.4468723615622467 3.703931761729061 -0.7485648583338462 0.6328107086889617 -0.14634410661659958
Ni 1.6578990675648588 1.4156034626656322 2.496677805433987 -0.2982096572720606 -0.30126567048956504 -1.1407028276249518
Ni 1.2153486484015996 3.327428178789335 8.131207717825422 -0.1664557897648101 0.8313826622620262 -0.40128364034611536
Ni 3.763118689387742 2.5439357609671123 7.210823325949381 -0.6945133279050814 0.8422039212472462 -1.6687099721432614
Ni 4.328593218450189 7.078162688873906 5.7999064074397095 -0.5126494311153171 -0.5110345212197134 -0.22748837949709855
Ni 0.7539212146233245 9.021143201645131 -0.0285435798099119 0.22857569902400635 0.9589343187624711 0.5750218227049516
P 0.18999130073442042 5.698839510843315 7.970857582271291 0.9007906205422035 -0.15364835358749668 -0.8914343761382841
P 8.480618750621206 1.6840666657989978 7.927784625261306 -0.05866228972789897 1.0336253798184585 1.134481272195272
P 1.9974145686811977 3.4582479980168097 10.26670543143839 0.05797014875688081 -0.15043550307715384 0.44977464596796735
P 3.952715658954329 6.372800540918128 3.753920051730714 0.11257086682089644 -0.12601413680999587 -1.4058493837944561
P 7.0210482713392555 4.037133421174253 10.369261518781514 -0.4122805056772513 0.37937527030879825 -0.09307727687265906
P 6.311379372840775 7.862663649544737 10.118562298741052 -0.3041833583569923 -0.4882049249197076 -0.7660779275169451
P 2.5881571847884848 8.91093945199865 5.679917066370253 -1.0571422319934762 -0.922661709583682 0.6498861761140097
P 7.044590023778371 4.035861385148983 1.3770989321806906 0.8809224208633668 0.9075019711241081 1.3826405497781606
Ni 5.635801039819547 3.0824885561518673 0.11894081994576881 -0.5409392791989458 -1.4709576862580152 0.5194212026215119
Ni 1.3189832405747193 1.16067835722979 7.098466201031548 -0.01346075349059617 0.10573533195630178 -1.341204651230877
Ni 6.836866540851679 0.8858449794013018 9.40190719667235 -0.22433183614598784 -0.8187703728146545 -1.859519765272404
Ni 2.9423192721386533 1.770310708312346 9.265959255068715 -0.42594643320011805 -0.7748559308198913 0.4471611196045202
Ni 6.700413419226577 2.273891598773768 2.55189234630518 0.4403559237572287 0.20987889394545145 -0.36672467142432325
Ni 4.168925439363898 6.905238477209974 9.968784599751242 0.5999550956115216 0.7428017305978238 0.06151415735439728
Ni 8.378365226132665 7.271866517607796 -0.03678273886502192 -0.6408906574836188 -0.3314928448052226 1.0414857564031417
Ni 7.71397172416221 3.988060088513634 8.216555883538117 1.150505158427354 -0.5218107858996109 0.17997310752495457
Ni 3.2852238406651773 8.230763617343229 12.162116339850298 0.15269318876307897 -0.050175078192494234 0.6170578167300792
Ni 0.35764292307360596 5.202263904492489 10.115610266565264 -0.027262435260378852 -1.7069610452046604 -0.5369563832917978
Ni 8.548118433705032 2.5537667822481325 5.820837760235538 0.7735719219011452 0.4802062229849472 -0.2097783638118452
Ni 3.934498285878132 2.62428300790617 11.499425548959382 -0.5668115189800174 -0.7424451185893536 -0.9150098494653789
Ni 1.3277057733194322 3.637859484785022 12.499891877403499 -0.5156954170304926 0.0124420824180947 -0.7381958563946964
Ni 2.908274136519446 8.737515511896218 7.891400760549923 1.1863185685815376 -0.8264831680778798 0.2525064988079909
Ni 5.669301017142209 7.873376010071838 3.545163493832069 -0.5846071524005415 0.7903817943696323 -1.5245006524814777
Ni 2.995435862165311 8.89058687559432 3.4215833767827055 2.3044828487843403 -1.2005336837396547 -0.7569844498561092
Ni 3.5738579007706917 4.440123519951595 8.789058411640184 -0.9234137572583581 -0.4187170053312144 1.0444823771376204
Ni 7.450987361909117 6.175298776051645 11.2316646914314 -1.2450549060804814 -0.810691709571578 -0.16249731933769435
Ni 8.22760169922327 8.934408516664893 2.7436263363942213 -1.1851669714755975 -0.1366173662471389 -0.9499531983097834
Ni 5.175651093649507 0.6711243897384594 1.6746599593921212 -0.8745332295075712 -1.1691451421260446 -0.3969446466511293
Ni 6.180450521953992 5.748866870522886 0.3283933632696689 -0.24072956077772092 0.22562844347022432 -0.49947458429625596
Ni 8.008702471217413 8.714909614532838 11.235814254665264 0.006690267535982026 -0.12973195198121526 0.38225644851133517
Ni 0.15054092060497384 5.150764617412247 5.678879448412497 -0.10063477750494282 -1.192629855511546 -0.2236237543353697
Ni 7.401923115220108 6.058961995569037 2.465253972623998 0.4055205612455984 0.3793778414119595 -0.31305417848406086
P 8.742013067842711 1.8085535628149463 3.57517809244549 0.2779131118065536 0.9434447077673044 -0.28455555682373573
P 2.092980818065458 3.2298539296794693 1.207284848598545 -0.12246292912362779 0.9632422021092057 0.78818170139452
P 4.756242644174564 0.9522825124040256 8.13634038318739 1.0950693460565526 0.02273677947588342 0.711932037602161
P 8.605741665649791 1.4489308065277227 12.134363239570375 0.8809684436099536 1.3668979422319234 0.7476441462917898
P 6.752421520716927 7.8112279642657585 1.3388133736115273 -1.0753939791148124 0.5734115407950383 0.6081594857991849
P 1.7796238292116489 3.4213135234259164 5.826290251798144 0.22780796762004635 -0.19504388581514798 1.1465788267897545
P 7.128217306468305 4.358604182674966 6.203002812084878 -0.640331442546039 -0.4090095482354633 -2.206425345088271
P 2.319057963642484 8.4458739951881 10.113868485807803 0.557133372460305 0.9850125039067615 -0.46499814778594106
