# total energy = -381173.8850509975 ev
CRYSTAL
PRIMVEC
9.24836722436331 0.00000000000000 0.00000000000000
0.00000000000000 9.24836722436331 0.00000000000000
0.00000000000000 0.00000000000000 13.53592027214060
PRIMCOORD
 96 1
Ni 3.0538663060635765 0.48659543618374657 9.593231308709237 0.09126696313679765 -1.9038841503203916 1.091167182788669
Ni 2.0657985103817467 6.184817751891542 3.8533922658957698 -0.7426384655470822 0.7218729508649567 -0.2856595885211919
Ni 3.4694416816260034 7.289572195252712 8.196960935715751 0.04049050391487865 0.2430641224481685 0.5731310334401419
Ni 1.8230473707853831 0.879274629320895 2.8639168687415775 2.12735261002482 -1.040462200234634 -0.9103178433063485
Ni 8.819057897603633 4.382495971773465 5.685505810947624 -0.8849328275743406 0.5492493417265379 -0.10680465376108059
Ni 5.068817294138832 1.794423674616123 9.444931892614465 1.4934304134392342 -0.2001531820172553 0.4371610709690149
Ni 7.5234541508018 2.0379146835803508 13.557984087672432 0.16161697361527003 -0.24463840891382382 0.39675464212751027
Ni 3.400698568984287 8.99657105568854 12.027828803543594 0.3312812430150488 -0.8294692472893973 -0.07573184361567603
Ni 1.2468278587253627 0.7601445630541822 11.561733297869955 -0.4524725045151046 -1.2182704388977856 0.823434353949227
Ni 5.866045034747096 7.775324180357093 12.256775830409024 0.43042503779676194 0.8298695680516095 0.8324141888503342
Ni 0.6848415836296368 8.669197357142666 4.097499216108744 0.0437519482749698 -1.0259704343763623 -0.03073753829317287
Ni 3.4881418798987807 2.6539669127327796 6.77110041219123 0.4900473774450851 -1.4837741212963929 0.1498945429720193
Ni 3.3773094485926687 4.316573611096732 12.27859550290406 0.22072663529323275 0.020332283799448854 0.021265851357311762
Ni 0.02507047353009074 6.3549414646649005 10.198991030117961 1.360155481301767 -0.9778039019734642 0.5555691132969788
Ni 1.1356254927353189 7.233508593902775 12.467461956438846 0.29894036479049807 1.56457052391917 -0.8317642139711611
Ni 4.54968795217666 2.5707131121138196 1.7568947257679028 -0.28515873762537347 1.8732327439831225 -1.6323771991504985
Ni 7.866614811984482 8.370835786184182 8.877072904411312 -0.39021529834709573 -0.8438517412633144 -0.4440873657752029
Ni 4.123791398932522 0.3519401360691058 2.2497919992924356 0.3379694536685018 0.03125330158732682 0.7920149590976812
Ni 5.206710447574589 0.8021978130868941 5.250894521386751 -1.2102367699600318 -0.8693509139756834 0.3894167137052003
Ni 0.686719926987303 3.134456576958224 9.071597508936845 -0.30932196513513827 0.006355767014698731 -1.1738191505629463
Ni 5.708813545708777 8.155136120350367 3.6997186236801705 -1.242329022508886 0.2514502896293347 -1.6741727950300456
Ni 7.225601240033722 1.9031474782238205 5.3963787345368 0.597376793361384 1.6205611803521767 0.36804570422859195
Ni 2.243616864580896 8.254186131973235 6.4237826099978586 0.8082705017245951 0.5612059998677819 -1.4616366659674054
Ni 0.9613215180335258 6.692858301702843 7.703820430136532 -0.3070043727455551 -0.013433756907402672 0.4090550567614181
P 6.17123190062413 3.9450204629222467 0.8653382649404561 1.6033216765454386 -0.9140616266194967 -0.0290830334088854
Ni 8.245390934862746 4.168331534877969 10.32230320798653 -0.40426072069656827 0.6573894264695904 1.005805786503029
P 7.94687214166359 6.411162288255508 12.525558348876991 1.4750768506327114 1.0368659982429433 -2.6488741468187866
Ni 1.8815525410492735 1.4194948724507555 5.324462507143654 -0.39678189582101986 -1.034017987271187 -0.4361573122948489
P 3.036377643880678 8.546933944103046 4.300659945830676 0.2819703125950628 0.2157582355443639 -0.31190849491539185
P -0.14318229457927986 0.9909902796848948 9.03714919116907 0.47640099030624394 0.13071642738167163 -0.6252395812099232
P 6.396873561088624 0.6050614696928008 11.416642140321583 -0.38610384728188346 -0.20174855152883317 -0.27486249790568795
Ni 6.810118348142278 6.2811025017520175 0.6395652776631648 -0.6165919328372542 -0.0529392712011927 1.3799830575506558
Ni 5.3175891207161925 8.34205486777425 9.972697359773035 -0.037239086857116514 1.1067632374547134 -0.6304715190328238
Ni 8.946565134787992 5.019615981175837 3.5507560996644485 0.653229638664946 0.4182251532964603 -1.3492606887661343
Ni 1.2770052805671386 2.991874501403624 11.374179187626417 -0.7239588868597079 1.6937774566348507 -0.5079905921870671
Ni 1.8097204737967227 8.593434733873334 1.0477576817710135 0.11844532332380248 -0.6405641273821355 -0.39309544810836816
Ni 8.749769131303117 7.863026445550339 0.6959479476779936 -1.0587609985438218 0.33785555379845683 -1.730036438966885
Ni 4.432279931863652 0.34235050422487123 7.6309155523005785 -1.0519568311377947 -0.24814822183929522 -0.43503965375063786
Ni 4.5783023999788215 4.063556784021248 5.441805788886974 0.4807708372391655 0.018159187407530017 -0.7414765840284973
Ni 1.9851804943858042 3.72577867248978 5.117620002479887 -0.32630821528048964 1.0255492876785435 0.19746637921371152
Ni 0.8433530466743606 2.9679119822519104 13.790124575696906 -0.17318796628232108 -1.3893467581537426 0.2596513373828883
Ni 7.533710589913821 9.01518801865743 4.777462286094025 0.43558524184146274 -0.511417615590745 0.4377922767951105
Ni 3.309028754305868 4.3995499607027435 3.166714881397119 0.7152557026587553 0.20020126164637134 -0.7314842487024757
Ni 3.6946579172039766 6.670625227198514 12.511832847266396 -0.5815547387274629 0.3309881372546622 -0.2444769436352951
Ni 2.394235771143925 6.023803680710017 0.9552148212385136 -1.3512887749397566 -0.203095809585347 -0.010762380722826625
Ni 3.3099258459144036 2.055856515751066 11.629372155480134 1.4314825109815281 -0.025036374143337526 -0.7982586260145479
Ni 6.585087079906271 4.926457179394591 6.402814712112577 -0.5719899778571633 -0.7936735777470266 0.40304381757033175
Ni 8.267078355708275 5.258788002705155 8.20532608375617 0.3250378332084983 0.23178649265182016 -0.5609378338080597
Ni 4.3945188490012645 6.167810004797755 4.515176745512617 0.2446924020802108 0.2626929524226895 -0.3542134263311899
Ni 6.073948327117037 1.7745026918863693 3.237196687053317 1.247265540578555 -1.3133686028552156 -0.5122717360609241
Ni 9.321614165725638 0.04704459375566828 6.549259830604139 -0.699019443305551 -0.6182155844836061 0.511143535993752
Ni 0.3329976305783533 6.77465086032027 5.206970326690051 -0.8100635890692759 -0.605808211958189 2.2089116018452346
Ni 3.9273283366631855 2.2922632755179913 3.915034482279406 -1.3919921661963899 -0.30199252135326055 1.2880152116920913
Ni 7.422517472290876 2.4137960675568437 8.827003169777788 0.46638782904461606 -0.8048625044843106 -0.8799222617336266
Ni 6.410255948279875 2.865356839498784 11.454325536900345 -2.3350103279492362 0.814427008244294 0.3131842763040219
Ni 5.779720776251497 5.29318267994376 11.984108072923057 0.027651957389313662 -1.048394053487201 1.0052108332315075
P 4.656395611756927 3.7754701489089837 10.469370741583806 -1.3542301169562678 0.13441058840380724 0.7313261258580566
Ni 6.129484771542371 4.333239168607881 8.965340244834266 -0.18815435778416625 -0.05012519879116529 0.36678509234861345
P 5.841953038456005 2.616030110895524 7.228966720820796 -0.45726375525616086 -0.35966005126805806 -0.305238539094384
Ni 0.8481788446262573 8.369744478866583 9.672470393170823 1.3692304470198418 1.1741603359524488 -0.6667739530082839
P 4.45305176436645 8.29617371859955 0.6045666820530414 -0.15001872725470938 -0.49122211447947656 -1.6660823047124274
P 2.619905176709715 7.282460200954114 10.292565083581922 0.25846323061205806 0.216794133008046 1.0849692815080734
P 0.07380289428120006 0.6457505855785125 0.014090812110980615 0.7385043887740508 0.3682272241117787 -0.5407798708029462
Ni 4.464371765694777 6.026624432675001 10.097282112954328 0.36723297851930947 -0.17223305856821952 0.38182321762865856
Ni 6.640281334748968 3.8333556785772878 4.145199519091683 0.2243269510499814 0.8460623757613881 0.4035438971352018
Ni 7.026576380078154 6.514485045477795 10.391985954725431 -0.4721962081962771 -0.1770659611804886 -0.46554579275929503
Ni 5.168089266572058 1.3353069867548664 13.265824471690074 0.45342972622205135 -0.8663797471625014 -0.5738419434642376
Ni 3.7517850807702193 7.244865588699496 2.432851403126196 0.46002409161011737 -0.0929536068106012 0.0552748613129048
Ni 5.662867657964387 7.5170820258710656 5.829243932389511 -0.3682367371934755 0.8784240799215453 2.374064099417589
Ni 1.9931803319258394 1.1537430438809022 7.682974610696949 -1.411736952923485 -0.40389279583418825 0.4761981302668185
Ni 6.658352644059059 0.2512402157558994 7.216702461211731 0.7748459035175623 0.35356473700359753 -0.4273762236681091
Ni 8.387899023480559 8.52052985603738 11.393360300988306 -0.8002550876192862 -0.0620718296300802 0.8530953713487696
Ni 4.600729690192217 5.307785851591986 0.8793939332564631 -1.0431083796082294 -0.5454669918659703 -0.4580361146458112
Ni 7.797483267924637 7.682849757741121 2.8540895538629165 1.0279820654897522 -0.913326291115369 -1.1510276065897274
Ni 8.967151999948824 2.4432058749294603 6.8149700415220495 1.1739772734073652 -0.6745831646400576 0.969933240976136
Ni 7.301437850239839 6.311659106644823 4.591600627029478 -0.5457297586090537 -0.3997985711601566 0.6459762995366423
Ni 8.252096001009017 1.8919754507690656 11.049033420714526 2.714425193246719 -1.8823699303977004 -0.11052426870451287
Ni 6.533074263345393 8.902681632906525 1.1342197409363761 -0.9396980962406785 0.006743232261104515 -0.031130402856217355
Ni 2.982496657165941 2.760794801085324 9.200676043691207 0.04154439910068974 0.8627892015977658 0.4115246013478332
Ni 8.382257519550592 0.7626434718441447 2.17465364080224 0.2808886494951098 0.31739548617189206 -0.7774195777820094
Ni 8.213641290614257 4.290502464246605 12.753029336353531 -1.442602789264406 -0.7907378921574704 -0.9546359484974332
Ni 5.749395380536148 6.456359058264935 8.085316497778408 0.8800572446495941 1.6876093801509258 0.08066656191313205
Ni 5.945756710767403 5.630923798006834 2.762004487501783 0.12985613626390538 0.0975671943232126 0.4060689775499006
Ni 2.3973709675902506 5.06767974498574 9.49684205230055 -1.5060270191573224 0.539473750397013 0.1189330615934984
Ni 4.080194596431102 4.679026366046484 7.781394808520422 0.923445638937558 -0.2718489078903447 1.1759822196525358
Ni 7.857967588747565 3.245242766428844 2.176101935089835 0.06611257535835711 0.2449099174076556 -0.2864370901171647
Ni 2.875678017180495 5.757062276860645 6.327514507198161 -1.322235566327542 0.8327486893716174 -0.7693319156778686
Ni 2.8748919059771385 1.2857634842092356 0.29805267549740017 -0.99135567251597 1.1635391087931766 0.411554169034188
P 2.630633282543751 3.7832017838031686 1.2124313318133393 0.11682192878776654 -0.22254749055205544 -0.6173797188458722
Ni 1.0989927106589246 2.861232067772939 2.897269255008202 -0.8266361487159763 2.457211775881362 0.10978559076627543
P 1.1271817335745644 4.533484813020426 7.1151424427583825 0.312188745159972 -0.330309880240715 0.9243218708949242
Ni 1.1786858899450365 5.056119286112855 12.643212375754816 0.2761639903259308 -0.7705135946907955 -1.0962589954892796
P 7.621967757132966 6.990202552280513 6.697329887194874 0.5166063588805361 0.4385258125270254 0.8398369636769665
P 0.6706804839287089 6.945662416335066 2.1539705926235864 0.6073135928591218 -0.8692305863477353 1.6666893421688072
P 9.08276583704476 1.396290719401103 4.061872656372646 -0.18385778729134142 1.1517053493830423 1.6622834997916274
Ni 9.199646700433163 5.034108172418885 1.1034457994167595 0.2146035531146304 1.1780553001314809 1.7305840839402389
