# total energy = -340884.3223632731 ev
CRYSTAL
PRIMVEC
9.11258842753839 0.00000000000000 0.00000000000000

0.00000000000000 9.11258842753839 0.00000000000000

0.00000000000000 0.00000000000000 13.33719427826009

PRIMCOORD
 96 1
Ni 6.6655848645417315 2.2031868908358683 11.707002157760222 1.3601824778849607 0.6397460023562144 -1.2967903867815602
Ni 4.874970402844621 0.5111451178296413 6.258691400346968 0.013240152839357842 1.147888289629797 -1.3202342196267973
Ni 2.374011468563867 1.8784506990128145 4.844241844295779 2.0315736179502815 -0.7482329289157243 -0.6298027751005734
Ni 3.300743459697017 4.476914326651595 4.737144329377192 0.08323766507441795 0.21613284527496326 0.03812945988186981
Ni 4.123983787048193 3.327015051374699 2.1995035826998577 -1.702065921895888 -2.537438679153914 -0.8076891752998284
Ni 5.094465313958155 4.920779383546565 3.1726113575187713 1.9877378517122541 0.4061839058612101 -0.004591990246056608
Ni 5.6734427155652245 3.163188941356884 0.2984099246163863 -0.4723396757526769 -0.4660790395549457 0.4396079898476107
Ni 5.816209634335339 7.907521280278076 12.573572841832652 -0.6263857789992244 2.174757581671345 -0.33700734686554856
Ni 2.4290606136644137 6.029061468677097 11.109856077871168 0.7681556359815803 -0.2544710787335295 1.1733216421012373
Ni 0.5760659296885755 0.10030043540683546 0.2722759330199856 0.2037290722939717 0.7517972492282149 0.6497517074186745
Ni 8.305868959292358 -0.015872306064580625 7.218222330059888 -0.644224092732226 0.3401034692923691 -0.3497679889653266
Ni 8.71054988708083 2.8420066589179074 1.5709746604317647 0.19051745869970416 -0.7675177452872652 0.2564045483108165
Ni 0.4567165399830839 0.32638465902197594 4.866728978108826 0.7353483596435723 -1.339040553700023 1.188043007471812
Ni 2.175420834699241 6.79916629444223 0.31473239253628343 1.0376923507989808 0.4757996092768193 1.1639908516186146
Ni 8.027998808398308 4.229006365641769 3.63850609630094 -1.2058098445369299 -0.165671860410934 0.6298814508573088
Ni 7.7928484708185035 4.03718638478322 12.910950927216042 0.539548055278374 -0.10940301061587611 -0.9482917514469605
Ni 8.389367604641855 7.618725136175028 9.280099404973113 -0.0362353281829505 0.014632662311510284 -0.31727978652963423
Ni 7.304504871093578 1.1217322652610409 0.5274110877029198 -0.47223965983970284 -0.4248560283494167 0.24997781884886625
Ni 1.7080635255167023 7.102141625728931 8.96427441311593 2.4981797336532914 0.6543719797995053 1.0142377193204664
Ni 0.327532845130678 5.019641852541074 1.0212650694907988 1.3438320615513952 -0.44958309878245156 2.0039437720481557
Ni 6.540879095513264 2.250572349290237 6.950358712229057 -1.1877277902242382 0.3409460197983225 2.371679658345812
Ni 3.65034790462045 4.301232739432025 13.242446836939374 -1.278515242621456 1.5566479266379836 0.7530308645249999
Ni 6.017862097823171 6.320737190640064 4.7593644643570245 0.6058362369826469 -0.4150377567074143 0.9055188792558082
Ni 5.63801297278242 3.3262495939688974 9.429769109277686 0.15017196500312202 -0.5513041673730377 -0.35868226073582093
P 0.6994740661624472 5.94714841366819 12.509714557753673 -1.99674365475529 -0.08728509567091419 -1.611197736859406
P 4.233061467374884 6.514516377953939 12.51560949103716 -2.219445925717655 -0.28829265526866477 0.6067651765548197
P 2.3120823193992734 8.86563702504908 1.3101049540170353 2.175815333511898 -0.48562533711798944 0.6679833999353528
P 6.500929509000965 8.113593349025594 5.834235244983144 0.45809550712883684 0.8690814623643807 0.5877948060999038
P 5.05975546564033 1.1812556911502592 12.525652474453038 -1.2726135324250405 -0.7121246132289414 1.1969444237265
P 4.141097227620751 6.465891607509225 8.21955270168246 -0.05691059714411489 0.8094282694781222 0.04903222283730265
P 4.489079631850939 1.5956597505100414 3.7542332322111216 0.5543874342840517 -0.08613812655066455 -0.7399326365801451
P 0.3374008668538002 5.879004479375541 3.421750429189595 0.04075069955480078 -0.023990449377326424 -0.2447559083282946
Ni 0.7352437084837805 7.966479725701108 2.7232286284903178 -0.3723618151054426 -1.7181142336080024 -1.7599519955793947
Ni 1.8140064755148733 7.112201923062321 4.500942399123227 1.2879661036217107 -1.3653403679368163 1.587624577525156
Ni 6.020112907099753 6.057556531866868 9.428315651465482 0.4075514756326981 -0.11338719207460472 0.2045798503300412
Ni 9.265315141935352 2.9209125598325953 10.220958641537381 -1.6051929254262225 0.40337343299560857 0.5237385990499432
Ni 2.4581571076730286 5.468072316106358 6.9237772925537895 0.19758696395197584 0.5321111393843545 0.22326354278247354
Ni 0.5096962163115174 0.5926654202886675 9.282740233023128 0.603426856210206 -0.3763189999809777 -0.6172763604987885
Ni 1.6669839780720306 1.396759288647829 11.306006360625393 1.0909540383365985 0.6889546028703812 1.1566241268408983
Ni 4.505536966075668 6.711238931244884 1.5107841930889192 -1.0327098099827245 1.5048142297961438 0.7483545420952531
Ni 6.083755222839236 8.713730180350172 8.314486733919338 -0.18937074668977064 -0.8220639559642617 -0.996516133670987
Ni 7.150903084996109 1.028938779983957 5.0915802685453375 -1.185489902032655 -1.0237076064841144 -0.6784526748977928
Ni 1.0273714148196973 7.581181272938105 6.769613259766583 -0.021549958256633854 0.6697122097010014 -0.7135590316826227
Ni 5.039580195444566 4.7187624165321616 7.212514204833769 1.47529410884984 0.5676319579987837 -0.7764811251281402
Ni 0.9723040445428224 8.337125136695914 11.311207825949575 -0.22718987442007324 -3.041022657632853 -0.020844190438860877
Ni 4.990463345238981 0.5650059814335626 10.257342472300989 -0.6896125481693544 1.6716816531770757 0.8429919643661803
Ni 8.489113994688301 7.297406164913587 4.908380796090217 -0.9332312575694123 -0.005870599848164083 0.006576624776253189
Ni 7.192903003845376 6.523191561886355 7.275439359884722 -0.273121089734549 1.377366702973731 -1.5413177240388165
Ni 2.581587114358495 5.347075370460762 2.5735580129269287 -1.3592900479776784 0.14161867611647225 -0.6842965352730797
Ni 3.681312479202747 4.698805848452341 9.331274788845015 -0.36936596570191227 -0.1285638998150431 0.17869886879822128
Ni 1.1249307837067108 3.4496887132425273 3.6067104536780588 0.3516508078103363 0.7327983395282089 0.03755173300152888
Ni 1.1413516675787823 1.0301689793861377 2.686617894281419 1.6210077809712922 1.937065522168367 -1.5157442464450865
Ni 1.2374256845950147 3.8912482853319283 8.310405205680548 -0.6394827213924986 0.1381494866209492 -0.701293069831076
Ni 5.318981261150219 3.1757916507881125 5.08052396532559 -0.9309573739335709 -1.0409067439712203 -0.44743468498088107
Ni 4.242957738121316 7.262058435424262 6.153368106343969 -0.530672350055299 -0.3822209672877095 -0.618308915528361
Ni 8.502217896468567 7.056596910083752 0.6506433512252204 -0.2320536302702778 1.5613383901351174 0.11202527873007158
P 0.2734787946576734 5.948041447308291 8.019201515784491 -0.936224278759465 -0.1341218535187948 0.25306262842177707
P 8.576576615889268 2.1650051464274442 8.037259931749688 -0.13524799670343804 -0.10424692033623335 0.9758938294349452
P 2.1481195205589936 3.824079397972861 10.568565607135199 -0.014106357494395061 -0.23318054478586941 -0.18795792550264404
P 3.913255185748717 6.551413247431197 3.8377637716191932 0.003967212177864136 1.2595235320103018 0.35603222470748364
P 7.3050880767360935 4.311356824882564 10.460441103530494 0.10851700846649699 0.5697790862487736 0.8614226602675422
P 6.733564772247422 8.293730991857508 10.375763289272538 -0.6732647029389501 -0.6873592333588033 0.8671068551365131
P 2.6128797421147065 -0.14538952164380006 5.860869517669765 -0.8862008956534867 0.04596104011114665 1.3296863661786327
P 6.797762955864928 4.395493351403561 1.7894243576828532 0.7045185187469093 -1.309624819542067 -0.12060942085465681
Ni 3.102325965007513 2.0048058464990213 0.09890529815888088 -0.0880577121708806 -1.3486991598357094 0.9751410104293207
Ni 1.1742025479110898 1.5067208900264573 6.865360134867717 1.0963548976371957 -0.2670183192709208 1.2321559386306262
Ni 7.282734897969061 1.299691999521688 9.613235580566021 0.2140937033577474 0.06527028196271985 -0.6260973012245282
Ni 2.5349124377809416 2.0709905743363444 9.189486562043747 1.190370627163724 -1.0191215297753289 0.12843303066413364
Ni 6.3774083764338565 2.34630920054439 2.5782127229612537 0.5698657324253088 0.0685882905923593 1.3493465636117212
Ni 4.318264166711105 7.479876630315564 10.436847701514301 -0.1448546665552667 -0.8767299800485739 -0.3135054070888665
Ni 7.5610515656831625 6.512620959615764 11.884146315380164 0.6044591541294623 -1.6236778716042874 -2.1059427768904766
Ni 7.642636567518156 4.521420207246045 8.19735990446712 0.5163446205787172 -2.112732031898168 0.8163165119575231
Ni 3.201534712352265 8.697291071301771 12.528719771629142 0.8657272011801671 0.35165389313412987 -0.2318389431563104
Ni 0.28711487158673443 5.693699999054467 10.283309703533982 -1.331193032631146 -1.8443106616321334 0.3399839129953693
Ni 8.475864291497407 2.837277225660635 5.946614416001761 1.560081892020197 0.6209448104893113 -1.7357656281411782
Ni 4.053279215481376 2.766609104446476 11.303432054468978 -0.2898355742757524 0.29410926195044185 -0.47358074724862953
Ni 1.2930124723972547 3.4911418768019358 12.578721454145482 -0.49603779070056503 0.7212116631318741 0.42472927296356533
Ni 3.543894649685078 8.712682232711277 8.029484160269089 -0.8734294549204313 -0.10609065841319147 0.9437015609731166
Ni 5.413569926295671 8.407146264150407 3.57259383484973 1.382631550917096 -0.19335467103818313 0.008924813293455597
Ni 3.1836102514330835 8.898369441735252 3.8175848563881636 -0.44642321299723114 0.261054388378002 -1.3593363278345816
Ni 3.4826124942801497 3.010553089604831 7.20063138986752 0.2513140211617865 -0.1129922706290312 -0.5558272520543718
Ni 5.320894904664723 4.894799394690142 11.793880662059856 1.0648149180473856 -1.2809274516073748 -3.344183488262602
Ni 7.80796625458308 9.188496023710288 2.853572355816039 -0.863177695285436 -0.6883948737121693 -0.8377623405361249
Ni 4.985733911981708 0.6963612060455218 1.5569576773174358 -0.7343813677446127 -0.40109954935976727 -0.5790607686610156
Ni 6.134621689972367 5.729658271950801 0.325939964719558 1.4270504433521036 0.49370477169201427 0.9238369608387056
Ni 8.091413309433683 8.757962683299693 12.148436887391773 -2.2625993211766775 0.879909149107504 -1.3895640163708713
Ni 9.002690351040178 5.126988141116548 6.136029584843753 0.8273768835367429 0.1583565576964434 -1.4947054234969162
Ni 7.272064057228664 6.398021050861506 2.6320416925065997 -0.00841547775720486 0.32007329011437136 0.22224615726155272
P 8.6523568990636 1.8336349904207792 3.7485916288786028 -1.6499244640056425 2.3693846916640484 -0.38121900838575634
P 1.943532803682257 3.347828202741964 1.5524223421880627 0.18760619859018013 0.06020752272783179 -0.6412146164819409
P 4.749781666643444 1.5925705831223431 8.261524371508417 0.43398061635850427 -0.35806416753584785 0.06807201307757309
P 8.905741525560172 1.7911338792224762 12.379369919169136 -1.021483859359918 0.6483784812202318 0.23068708894005432
P 6.486659195935669 8.001490289428355 1.313781883341331 0.2809341580210646 0.6656341829768859 1.0573198952219212
P 1.8029620186597397 3.5668219215064614 5.961392300227809 -1.7602340455961878 0.6354517458562347 0.43822319368494206
P 6.882883641907669 4.455299267525873 5.62721546706654 0.48462929175330727 0.5586680639372765 1.4768606820060113
P 2.5695038224526305 8.842919342755478 10.097696306474138 0.7898927705483557 1.259358210077031 -0.4315792060058632
