# total energy = -381179.4833910436 ev
CRYSTAL
PRIMVEC
9.07944832085244 0.00000000000000 0.00000000000000

0.00000000000000 9.07944832085244 0.00000000000000

0.00000000000000 0.00000000000000 13.28869038227814

PRIMCOORD
 96 1
Ni 7.1186235178290955 0.3017654563508094 7.557676590231237 -1.2467772880882269 0.4341294832315426 -0.3977972244594117
Ni 0.6984111489166369 8.2616988382848 1.6051411628779986 -0.1957000313419081 -0.9647187866547321 0.447766614399003
Ni -0.0499741921675675 1.5114648615263404 7.016003051817589 0.131996836755992 0.42991390248829836 0.4608275613480192
Ni 0.23967020051366789 2.9526457126660346 5.285736194075819 -0.005046561284971955 1.6971324891500126 -1.241433250167494
Ni 0.08321950058143449 5.689454776977676 1.7441012133322786 -0.09611529236803447 0.4694872939055463 -0.49179547048444333
Ni 6.448750891254185 2.59953688332266 13.130542169769962 0.9154160837648622 1.7786724548070336 -1.4985489656127224
Ni 8.916190879199592 7.803177612534119 3.9895441471556476 -0.9190367112365849 0.1858133683558155 -0.1888981779287263
Ni 0.3170933812099667 8.778337613510347 8.519193811979074 -0.4771304122731008 -0.2117509141571837 0.7800487878747404
Ni 2.924944315470626 8.396038357427136 0.6190340709156996 -1.1930731136965516 1.8603183499142995 1.293008551141625
Ni 5.061783426759455 4.994604587739846 7.131349272764882 1.65182733745531 -0.8716883038596084 -0.4665526367572546
Ni 3.2892935019847367 1.3425054054760754 12.34656266696004 -1.0355423943355135 0.36442713363939816 0.39297537759073614
Ni 6.157454946901417 0.8114747965257042 10.911118211345768 0.4338595173996076 1.3363984880914854 -0.7786328813638203
Ni 6.4339150725005645 9.007257747069126 3.577594136296611 1.3092854339247773 -1.457760985062083 -1.1183141755171062
Ni 3.5017525955188438 3.74391964435396 12.813965409176324 -0.6130978036410667 -0.24481941457637835 0.2125826660298597
Ni 6.416264624730038 1.7685766824963767 1.871247085474312 0.24569358965121557 -1.342905693082384 1.5232729507219638
Ni 7.476099561872893 5.2816241118766065 6.56772253596422 -0.09204857849782858 -0.9180704906685736 -0.30539023418089983
Ni 5.984200911738263 2.460367097609378 8.873802566205004 -0.5039963834260095 0.9013652620987509 0.2851793064506637
Ni 8.9878186479556 4.465209187453812 9.721926556365345 0.3438649932173304 -1.306247675539718 1.4895830146686861
Ni 7.653339474901923 6.0956783797045775 11.039898384207294 0.42074200618104307 0.260982397489486 0.37709650157695057
Ni 2.762867081339115 5.0381496224658955 6.464390241194891 1.0525026763389358 0.3173018980168213 -0.44298693362217256
Ni 1.7205464002401618 7.068050990009225 7.43648411243238 -0.9538836437124412 1.0293840880436014 0.42991878758430474
Ni 2.0401883826276936 8.817833214231431 3.5672290379556477 -0.7508801367305842 0.22586112830632069 0.8907409496156852
Ni 6.312550085181316 6.963192439956857 4.9106360326619765 -0.23290517963729568 -0.1646004817236262 0.8424900850290974
Ni 3.95048617584945 1.0420482976457046 2.8634873448589304 0.5023146248482123 0.02743264228965598 -1.224875088698497
P 1.4349795878540617 1.4216327986448678 10.628387818652833 -0.004448008469024598 -1.5468941896853294 0.49304219840735086
Ni 1.1303277748436587 3.402078410526646 0.5054247484552903 0.1508430229282176 0.13517163493954784 -1.1060083615665597
P 3.5615226046100843 3.558353877103956 7.803265683184003 0.27139536529269387 -1.0650599441786561 1.0710369876976973
Ni 3.238666497474216 7.304252841218191 5.7126355167939975 0.39834075566770755 -0.9545004513608336 -0.2912967322023112
P 0.8518075223931065 8.927022661190454 5.817204432441078 0.5962118265190054 -0.1277527167676574 -0.4505171805609467
P 7.874778142944801 3.4242322647242194 8.055458258988365 -0.34381357115410466 -0.2992815501800007 -0.6838339938143643
P 5.990020838189347 4.541603666641674 4.556838073181883 1.4764786160762442 0.20759652566917797 0.42435697722581106
Ni 4.153275656793222 8.663537067414396 10.98481700229131 0.22756988346731127 -0.05253046579854824 0.5300727687980871
Ni 1.9380627465562563 5.300418570150778 9.010077823755095 1.358653442834944 0.3373297632019739 0.6121539516705586
Ni 3.2287608192243993 6.217688007863181 10.891888847491241 -2.2011496985116286 0.3507882026997249 1.1044708418761109
Ni 4.291909755048449 7.9677607744355194 3.6102846904106944 -0.9485095238847212 -1.4844456934421209 1.1576916488734643
Ni 1.7397494336942063 6.404652010173195 3.4663681690521293 0.4726505221248763 -0.10436339130943961 -0.6132633826846534
Ni 6.483761244445105 2.8290017837879375 6.065490121581006 2.774717305268557 1.2479407122687087 1.4789964974020915
Ni 5.292746436217602 8.2165285822877 1.6481959073882009 1.317812240448866 -0.38692300074906916 -0.843212822127735
Ni 0.2042549039222517 7.0819062283311505 12.73095110412967 -0.367765968204644 0.29313301408010156 0.4515363658540804
Ni 7.035719074108585 6.342339755518299 0.13242012374177523 -0.4908248790410579 -0.687230678200739 1.950769502018021
Ni 0.9089708218367554 0.765103329499775 13.041534520806989 0.6629054711918132 -0.057885816573190634 -0.4882139237807721
Ni 4.289658051834925 3.4269197814629417 5.409294776138565 -1.2068750525766505 0.09079388015512106 -0.5515003425442437
Ni 4.433313085078371 7.134594267637921 12.905005946645376 0.6262718791291795 -1.5093545408686586 -0.9584990309972654
Ni 4.187359906243096 4.477066947118579 9.719268093861633 0.7996328806542551 -0.3031253494061231 -1.3274271378308107
Ni 7.632992430944235 8.872491493850035 0.437755619219833 0.9417788900291072 0.21900631016801636 1.5420561448667378
Ni 5.104992521893165 8.86455605591205 8.798056359635876 -0.3125394436311714 0.3995489170431958 -0.2858740185248431
Ni 8.162787326961698 4.436136793543717 12.914986076372415 1.1592564222574229 -0.10526739118094773 -1.46855190503
Ni 4.712596919142864 2.711359370329757 11.110262293740227 0.6488631341661342 0.3562096308256123 0.6207236956174407
Ni 2.3598576033605503 0.4380307265076144 7.470290530759939 0.0003414424998187668 -1.3265743029122121 1.1754554006147884
Ni 4.7531275769862935 3.336579269468738 2.8775069211976496 0.8698350527009535 -0.18219248377377656 -0.36371699494625104
Ni 5.483178787832317 0.5953348945933609 13.22119773862509 -1.7736181802125777 -0.6128052121013123 -0.8233052845705304
Ni 3.5980401462423144 1.45448224310668 9.625450153114286 -1.0011101807995726 0.1076780575049694 -0.7255277740087247
Ni 8.002171884029291 1.5666043519123505 9.461335490752473 1.2977910601319327 0.20990023410169015 -0.16648510034084876
Ni 0.8148396401181719 4.231858283055518 7.448377281946069 -2.2454207525148617 -0.6016029156275897 -0.6264631692043792
Ni 2.085658260423369 3.4279457591368456 10.633251679183012 0.4337528166184143 1.3236051929815593 1.6533455738720495
Ni 6.147576506996926 7.146606377926195 7.566288447078121 0.8074629182216351 -0.6926788457995039 -0.05647350960669628
P 2.7773215632581882 7.954114363427752 9.321392136031967 -0.6912709097083837 0.5705470747630496 0.4061437966518941
Ni 0.487777024519297 3.4060642883925207 2.7435169608203167 0.2706021799674372 0.3491334407051213 0.7730481881871911
P 7.427025143045891 7.194663898527734 2.16349183218923 3.4226923804027827 2.577637877080619 -0.2086460499796149
Ni 7.491698054295612 2.8623596773624804 3.6917845434572842 -1.1681827782127752 1.2116832725985711 0.5614839361195169
P 8.583901225132871 1.925796411711616 0.6169158355942678 -2.116796431775529 1.2905513478503838 1.3062368769064407
P 5.077173091868016 8.56811206429288 6.208622178594215 1.2301548490401975 -0.69171545344497 0.4768697024125465
P 0.8204489233654099 5.213364818492443 11.683749311548496 0.16822445162945865 -0.3765318873227322 -0.46374499210513037
Ni 6.452627815738761 7.9079816858958365 12.049360541395993 -0.6079771945850496 0.20762172248015856 -1.5467322101861685
Ni 4.109222172954441 5.399157571953487 3.867912224052215 -1.3494244680375083 1.0008402149676376 1.1358704392333148
Ni 2.0077384338973134 8.408141262199827 11.765181976676619 -0.12603881940034423 -0.5568808901298666 -1.5615407359539106
Ni 5.0080784892272225 4.941816674500218 0.833986380991878 -0.47233581909793493 0.052709157468257606 -0.6806350272610924
Ni 8.253264030682526 7.6399291295536385 6.405202224748758 0.5687349612549754 -0.019451680966708438 -0.44716677603147503
Ni 0.7282035430881525 5.742179134078213 5.814585919510511 -1.177161841782934 0.9260115998925212 -1.9438282948134975
Ni 3.9325088679350255 6.594294449773491 8.176598075986261 -0.4260379644726598 0.4244495369396174 0.24986828985419549
Ni 0.7245608683733713 7.10800056315239 10.279971248264092 0.979654324918642 -0.43073974082370337 0.19426766977075574
Ni 7.18265178823946 4.183719047418003 1.6025099387196147 -0.07802886717996885 -0.693077109679187 1.405450605694141
Ni 6.891582830097733 3.4943528450389163 11.01306861406228 -0.7165409971290821 1.0835289495171208 -0.6044552974747204
Ni 6.80553689721642 5.007034352656435 9.24098181679837 -1.8986100464056461 -0.1683185540051617 -2.063675640691149
Ni 1.8017348282052041 1.4477725307083162 1.8567490222027194 0.347893140540117 0.14489631842647951 -0.6490359122985725
Ni 1.4106648249273808 2.3879675757358325 8.596281053083032 0.2044870335059188 -0.9259645487046697 1.6920797572174535
Ni 8.731487659551544 0.9757229267796084 2.8400986856732957 0.193588384315544 0.3146238369640259 -1.1722883157407165
Ni 4.734187847537057 1.707245008273176 7.130910735405151 -1.010358695981034 -0.9897788149471534 -0.2029412862853537
Ni 8.219279655165513 5.391685185886027 4.052186893733819 -0.8669479609611456 -0.6764099334361513 -0.48760097278712156
Ni 5.482506908647637 1.6271915113633373 4.5250118825594425 -0.7392736628399075 -0.5662921561414377 0.1759364755617357
Ni 8.699273776480645 6.358219710842707 8.417136271770948 -0.9332500266224895 0.4398185631965199 -0.8187773147931898
Ni 2.338584455661815 2.212489075704478 4.0377151608627075 -0.25947933058139827 1.24499191405303 0.03280161991105318
Ni 2.774361663066217 4.427965289946251 2.065434696964486 -0.7566111256770905 0.16517358061827683 -0.06629846611691807
Ni 5.304340891877561 6.822560863044473 10.192797647886326 2.0387660219336627 -0.7659300890851712 -0.5584598045812125
Ni 8.825396394783306 2.476292450175994 11.495900063015423 0.9760041297605643 -0.39015256342996035 1.2122792543113574
Ni 2.1143493174989154 5.71478643812982 0.08334298108024062 0.4671190507836859 0.5179469320688305 0.14328320830308872
Ni 7.976803905083381 0.9643372984338061 4.990035809284018 -0.13912007806433457 -0.9104772517023482 1.2569136051912806
Ni 5.957380221041692 5.987197129724 2.606802257965651 -1.1015906921148382 -1.1745359741243129 1.2001678157598041
P 7.330837466255279 8.245156083224154 9.610434561281522 -0.4636184938295951 -0.44228193713534797 -0.492286551188249
Ni 2.2751645082970393 2.470853860559459 6.441958555875003 0.27931384880882215 0.5740985395597338 -0.5062198734398894
P 2.0137944260078795 4.468359756063057 4.41827661051419 -0.1918361775111277 -1.0267389371112703 -0.15312899074891692
Ni 8.417819954238603 8.93908924816938 11.371637823698451 0.9408617775314764 0.3632547105978518 -0.8715129546240089
P 5.011283534527117 5.182984984006755 11.839957590207337 0.5544509405321355 -0.3742369206409684 -0.3320769994434668
P 4.330206868575238 2.163923105990207 0.9378716141713032 -0.36213062429573767 0.5059529929317479 0.14145695372762734
P 3.6220280490250967 6.701014286756392 1.6881554679246522 -0.03423912368852813 -1.4302946613210141 1.4122920540960064
Ni 3.4056284748673225 0.4728249888256232 5.432696146552019 -0.04444563190788474 1.6300462370244764 -1.651201530945853
