# total energy = -340863.2770008948 ev
CRYSTAL
PRIMVEC
9.29136029465979 0.00000000000000 0.00000000000000

0.00000000000000 9.29136029465979 0.00000000000000

0.00000000000000 0.00000000000000 13.59884497632961

PRIMCOORD
 96 1
Ni 5.952918668293645 6.916562789767245 9.332098068960812 2.363406619703743 2.6081769262097403 1.7577465032876438
Ni 4.629262217002106 8.381104134264177 12.138437245345703 0.6419144707624428 0.5459768416228533 0.8462914610530586
Ni 3.77506102615347 8.151496043458156 2.9862115457084117 0.0632725348064007 0.2981672340698994 0.7352869102780175
Ni 2.0627562732139455 4.20824281676363 7.652165343747787 -1.2807197064719427 -0.002823842602040298 2.045030771896452
Ni 6.157467960908348 0.8292585346585764 12.902502022722413 0.048755057916516034 -0.5353039352900394 -0.4030173352077704
Ni 4.718923841972893 2.3014048573978494 0.5004753952747644 -0.3664739888660979 0.011067570668071262 -0.22752771737546623
Ni 2.617812834263673 0.8388704466826469 2.180819727740246 -1.7509438785435136 0.9928003753822966 -0.527989146796181
Ni 7.068532275572655 7.096359899073951 4.502536427454017 0.4223738853575113 -2.14475075089661 0.4131927330788755
Ni 3.511149233856035 5.8843763048315205 12.25783586831846 0.7544642545374168 -2.295893564453433 -0.11877211053560191
Ni 4.229510740033903 2.942443664818527 7.053462618625493 0.6808900806946919 0.8940067648511507 2.118247562399758
Ni 3.093558345494681 1.0277823802480406 4.485973648938687 0.0045151142615341595 0.843485101952515 0.6556595882626772
Ni 5.4235527179220755 2.8837408517029375 11.41631180919108 0.056804667693869916 0.5216058689776566 2.3115564678016707
Ni 2.354737264375292 8.194496458003732 5.103523898025049 -1.0423689303390435 -0.6397742844909885 0.6370193474536707
Ni 5.509033230847593 2.054171056480991 5.322968170017023 0.19027191834780133 0.12185614877756434 -0.5890482188910308
Ni 5.813223069181127 8.925373426237108 4.137054273944855 -1.5065654081592956 -1.3018060948285968 1.1339963621390534
Ni 7.642180848183682 7.832384280803059 6.996157226069033 0.3228734785673278 0.17045154118776448 0.20008813310727475
Ni 5.766450362434709 8.471360406281402 1.8210759182292156 0.8518704978027329 0.885437792235217 -1.259535873305476
Ni 7.9804606867263175 5.53964826237907 2.4569171388096174 0.9270737226084486 -1.7612632581916507 0.7871157220238509
Ni 5.2636205365104525 0.6177741708647856 7.457388703686894 0.6516630655087744 0.34200222897697874 0.0930389674355559
Ni 6.974001977909153 8.733079437595096 10.8227360565723 -0.3543648643073897 0.4395226292226559 -1.1084349687301813
Ni 7.759660805295665 5.705647701936384 11.510415633425968 -1.160002299284512 1.4798696440356642 -0.28310622597171886
Ni 8.880542613751714 3.7951396553308663 11.36376545127815 -0.7672590923092399 -1.594202744963306 0.36174984391755116
Ni 3.162602442402237 4.495875451397897 5.670364691090367 1.802976835880353 1.068266366931096 -2.0506200930587717
Ni 1.6723704872271472 7.739061859952636 2.0534797792895065 -0.381858184631652 0.15993084416209874 2.292726222469045
P 4.125754121790506 0.15406933318814475 0.7706346981038424 -0.06420918768805715 -0.1507494347731468 -0.30326007521177445
P 8.282132566472589 7.044133163948479 9.586206547216104 -3.0674186311278784 0.6930709390315999 2.0258734822417113
P 8.330103858671986 1.0633868721535387 11.670474177334958 -1.4195340803704004 -0.09924149670184199 0.8166476700446967
P 1.7535119349856845 6.49833079755895 0.11938561506861602 0.5317169892697294 -0.7636497776914267 -1.409881901992617
P 6.623624788515537 4.151333236147457 10.115011299437596 0.7221377744905693 1.5296767973657783 -0.4406459441938218
P 4.0813507118697405 5.639233059937297 2.9091332097218667 0.5848640056063541 -0.664472815678933 0.6667019621197681
P 5.885054574118865 4.209915261581739 6.208348377955242 -2.223896762400157 1.8742095060740949 -3.697337620091342
P 3.8365233732189368 3.7892210589467843 12.656403626009848 0.1233684716570327 -0.734534091272393 -0.5600616018506934
Ni 0.0046029397938371075 7.123295552005589 3.4967801454604577 2.039786235668061 0.16263050248144895 3.028581860766339
Ni 1.968681252195373 3.0642348130171877 11.602928776811629 1.1640263328422407 0.25978914851233326 0.07988417522115274
Ni 4.7491021795796415 9.059401295688259 9.792746049164355 0.5028902948460242 -1.2477049421088189 -1.4897953877898082
Ni 7.143940954149122 2.0531397155098245 9.970414507872013 0.9029452049913611 -0.27600920991562145 -0.11455575846140917
Ni 8.67223961165637 8.914335290437597 1.0290692336219738 0.3953004261794869 -0.5310027368115242 -0.37231013593190077
Ni 6.023198516094581 4.790039912182884 4.161762787860381 -0.5200094710248141 -0.27935241535624145 -0.6239216337294481
Ni 0.10496263678445504 3.7656210042912606 0.47352023048691444 -0.7239144067750177 1.621252035771614 0.589246708055082
Ni 0.8691091781300486 7.920995982082479 10.189247408369368 0.3787780030444315 0.3157067856155595 -0.015819226420443724
Ni 3.762108870173234 1.2091032726112443 11.08628176928177 -1.393458209218955 0.5524120557252358 1.6800523937392742
Ni 4.152689774722145 4.275800296055092 9.769505570144725 0.16041266889452374 -0.8129954180040901 1.2592630792600636
Ni 3.3302371613372577 3.3674490585401595 3.444573851327208 -0.09835369478024997 -0.09273274904904673 -0.9731975135497045
Ni 8.501826776051269 9.463064435258815 9.193553669364759 0.6218302984180581 -0.6929534396171292 -2.0994299154726233
Ni 9.385946146423839 2.4271169595589637 7.860553826356057 0.2486087064154815 -1.8152541105858093 -0.2986621714284469
Ni 3.9542263229733345 5.711287557517449 8.101851377304643 1.2362033692271226 0.3487745147038058 -2.7633496868615635
Ni 8.83335179580077 4.576412960749895 7.73184061488245 -0.5267524461756025 0.8236595825861558 -0.1979003814273366
Ni 3.6991877795719725 6.879174356722433 0.913485643106523 1.3487858060122448 2.3767290478442615 -0.27447811798307564
Ni 0.04032821938064308 1.5012607996145022 0.024507820537351916 0.876002100743614 0.10690749788753201 -0.9369269612534444
Ni 0.12747188576416796 1.890503748308927 5.066004456802817 0.7040762890031681 0.6951198511408285 -0.03825158728203089
Ni 2.247394181133063 2.9286181209888342 0.2930922378293783 -0.0795473607070243 -2.8563421173299 0.09448521296377922
Ni 1.071944214806191 5.637356205196976 11.568835989194497 -0.6076005279719213 0.6894433695813417 1.2911866674415375
Ni 0.5644761419197154 1.7179910653210917 10.357546459551582 -0.3426509183045712 -0.23485124762007295 -0.09527274186208108
Ni 0.8647115773944348 9.400812322584796 6.581201367432208 -0.7947249018296765 -0.6283724704119501 1.0924301086614927
Ni 0.2876688709386582 6.704162297867535 8.14893069893438 1.7958032009500493 -0.03177497841875173 -2.815002635151165
Ni 2.5681040577254644 7.706950919444963 8.21103693725482 0.3051467507115261 1.9024448467707042 -0.6722203208348357
P 4.153832612014519 6.681389174260966 10.089254720102725 -2.463126084483268 0.4086223400993737 2.0006589306492963
P 1.7700784300450538 0.74875261593092 12.218263036513996 0.27486661167074594 1.520308468777001 -1.5411138355581264
P 0.7295278627467691 -0.017199236682220165 3.926707172627378 1.677452237112266 -0.08298518274397966 0.0016205663225584994
P 2.3531763158783914 6.271305704860896 6.481576617025548 -0.2784409592855656 0.7904339877638065 0.2672278641785656
P 8.082823600954624 0.8755936183442572 6.705440789017379 -0.4732351909837528 0.49357364543078863 2.2928102975424194
P 1.0020638954895804 4.04386936522392 9.855654131861476 0.43970903420184915 -0.14264377494687694 -2.1415016478316926
P 6.580354924527045 7.956907088871297 12.686307868493627 1.4127985614187797 -1.5246243225435356 1.7524297190604208
P 4.974380496578783 2.2388275471203105 9.445226882137684 -0.7360268737678356 -1.5449650909834167 -2.270920439447863
Ni 1.0761810750120646 4.369262087307024 4.125930657632417 -1.414967029825008 -1.7120759978337223 0.6314606224189706
Ni 2.214456309576437 5.870504304201326 9.529975235887274 -1.222183915019579 -0.6328983833067616 1.3177055396676725
Ni 6.471608845909625 5.6147967828727205 7.828446602392424 1.5554297379601665 -1.6185261522000187 -1.988739039283259
Ni 8.81599553513285 7.911026352694535 12.263832512127388 -0.013770828531847253 1.9096213099144856 -1.572550713911169
Ni 8.127450003517804 3.203456552764574 3.1573658318495395 1.1064850440926621 -1.2421341328892608 -0.3800980074074357
Ni 5.8692406792276435 6.23542247215238 1.9433976030896212 -0.12664174309166576 -1.1003735318782855 0.1085396341743163
Ni 2.961193629501537 1.0924037897477117 6.925266006773477 -0.49350885363112423 -1.9057795675708922 0.4101963694547129
Ni 1.7338421256527148 8.714886954518123 13.79113234842382 0.3123221854140428 0.9382940168043001 -1.7549416868489969
Ni 5.446678913212468 5.080236962204915 13.405414541751563 0.30639167886222074 -0.11741739627992036 -0.28877319444950916
Ni 8.049105255149547 9.190223645904704 4.8686857006184 0.36052625592309523 -0.10898469213153487 -0.47578084022374184
Ni 6.199297664081248 3.4446602609761436 1.8599407483940142 -0.5810299765722445 1.2983734149979638 0.4233827862379999
Ni 8.97404157044405 6.543821296611486 0.30165887184213125 -0.6744942044706771 -2.158190678451599 1.802469043005999
Ni 2.617534093460655 2.1641435946316894 9.181885579350427 1.263112792023457 2.1917338045143673 -0.320122655295068
Ni 2.412157869796998 6.237355075053304 3.9858754828840075 -0.5141190736823081 -0.24214958105369908 0.4986397470997865
Ni 4.554661886754391 6.688599269699031 4.993046839020888 0.4327498292751966 -0.9751255838103529 -0.8128617206397033
Ni 8.00932894255888 3.851389549379897 5.336771414582474 -0.10087903230526499 1.1353245940321737 1.1789865536964985
Ni 2.666713262473129 7.677673843767972 11.631649300018593 -2.9201964927817 2.2743523479475476 -1.2694361631383235
Ni 7.418760803204661 2.8363456238297786 13.065076666946645 -0.8875592094535939 0.2905138312896997 0.21442588988618555
Ni 6.643452550970217 3.3694559923218894 7.721491898002402 2.206911797806386 -4.067771107825821 3.74571601139473
Ni 1.441470897367143 5.439924094419332 2.0646582146265384 -2.146542295579394 -0.8185649416720677 -0.31416849459416213
Ni 3.256500927578898 4.69811119534755 1.1053819615362295 2.0452979095149098 -1.0288883793541055 -0.08907792590527885
Ni 5.205410165480195 7.4091256627803395 7.10270403975064 0.45339861587379987 1.0818420487330012 0.9782317335395022
Ni 7.1139763178246875 1.2816595036368277 1.6149303699492292 0.24533980585622264 0.4220959491057763 -0.7662769309016286
Ni 4.869546080563715 1.3594746444793504 2.86456905927136 -0.7526053469518071 0.9239380051929442 -1.2056933735637236
P 2.016438843112456 2.802850270667116 6.0208617390292805 -1.1052923093361415 -1.2035817265373594 -0.8602592360870603
P 1.3054360941342624 2.8387335033756327 2.223546976298864 -0.2888238451817865 1.0107009098118012 1.1660927284529659
P 4.31884716740117 8.660337379367501 5.705830741730367 0.16603515728762372 2.7940334890986653 0.32407032708890643
P 6.797168812474539 1.3761061790594238 3.708023863027643 2.1416975658925823 2.3081775240271085 -0.023906888524584634
P 8.93810258957493 6.019138191730619 5.718504156907584 -0.9064269928923744 -0.35128314005827244 -0.03712055900138123
P 7.3648430405408805 4.782746194503913 0.606053120097879 1.0408049282860334 -0.5176890504217536 -1.169495840597244
P 1.69441888474587 0.3676386781885101 9.064336866173699 -0.7192725371276323 -2.0490056973838 -1.8917362021039483
P 7.77538178658588 7.636029967797085 2.3016585115285957 -2.575369392761416 0.20708050526470786 -0.19285561991457753
