# total energy = -381170.86071548064 ev
CRYSTAL
PRIMVEC
9.21295385425003 0.00000000000000 0.00000000000000
0.00000000000000 9.21295385425003 0.00000000000000
0.00000000000000 0.00000000000000 13.48408922533928
PRIMCOORD
 96 1
Ni 5.655685071965428 8.958059231189216 12.53355601911965 0.9260936180833663 0.7770601375600616 -0.6342386993847399
Ni 8.565900629933473 2.37347806911407 9.958270034561641 -1.067197302236633 -0.8666404570230558 1.4665752409196033
Ni 7.675339641544029 4.337348202038919 12.915330699887791 3.398592916251418 1.3533911659947402 2.092998300914666
Ni 5.573173855669642 8.45475555251137 9.700400372547636 0.9916207532518986 -0.7842962502971847 0.6417221522459786
Ni 4.7793949493689905 8.99883576572753 3.2584569286565275 -0.4761611063812961 0.2822104536303269 -1.3950062704323654
Ni 1.9837793265844292 7.554235360815119 4.061961029231614 0.7234387526901799 2.489808735980777 2.4441384876371712
Ni 5.2767102079271115 8.121532218187756 7.36136861725763 0.7717428391122064 -1.2032567390977729 -1.1282856849075213
Ni 4.980347902678915 6.8827215674512 11.42396349772653 -0.9851438872783035 -0.3988354359159389 -0.7900287819055878
Ni 4.158395782953463 2.951222416357119 10.93933171298199 0.4693656807260175 -1.1455236460523626 -1.9155173636839462
Ni 7.367848087827173 1.55346066973499 5.846229229811867 -0.40359300520558233 -0.20226842858804522 -0.2154818419545257
Ni 0.7044860345431274 8.872434036431173 2.745090861586736 -0.7442073526960991 0.23021272040679705 -0.863791674720351
Ni 2.283089777122337 5.886985495851315 11.521601463244743 1.0464353870989331 1.1014446534552773 0.8304619502199697
Ni 5.694913830226644 4.317116554988278 7.412459975128321 -0.22764830211373052 0.8292447899834171 -0.4506524205872303
Ni 7.347726996224895 4.137777191833547 5.8279452012432404 0.5097595111620318 -1.1846092991999146 -1.060043207690355
Ni 4.50603739033457 7.271710912520503 0.3230319645752445 0.22179312888453412 -1.8955530047468774 -0.5100603302319021
Ni 9.12204059997536 1.054689764440074 7.428951162842642 1.0255294901842016 0.5628733602678757 0.0539204041675394
Ni 3.641152904827701 3.169937945037552 8.299376318903361 -0.6976505879824824 1.4001970706046853 0.02558427622700755
Ni 2.719746946344655 7.08911016363903 9.217709757217287 0.765061827547605 0.858760797164663 0.6932113212642061
Ni 7.6950461502149405 6.0610550493006885 6.9036515564173415 -1.5175625306007476 0.4992863795448498 0.5911554950420206
Ni 2.508779512003743 1.547030027821808 9.86491977784915 0.49456223459630316 0.6780875782488902 1.3372924606606647
Ni 1.0155162839030392 2.830698551732122 8.596066605315038 1.7251436296509577 0.8913793545306326 -1.629304987983078
Ni 1.7222972652951258 5.393512039123849 0.8365371472508945 0.8843049641823545 1.117269536302676 -0.9598491172672566
Ni 4.167571885167688 4.808765846817736 1.3395579882400097 -0.5059902739275866 0.3955138277418737 0.36496038043504886
Ni 4.21408809006691 6.5474437443788185 3.9464287431002583 1.3576424850719264 -0.5988556918997557 1.328027747529287
P 7.7088655812604605 -0.001663859497880636 9.931422565221807 0.04491820066892909 0.6799416007384935 0.37165219063292765
Ni 7.588046902106492 7.35981439191271 8.776551138655742 -2.6411515813635478 1.2442774044845084 -1.881523523237005
P 3.663328485178746 8.966479871172954 8.373187742708291 -1.1242685933283285 0.2850774907654768 0.9839719784573893
Ni 5.16855012761084 5.947238215209785 9.05153202019031 1.367942581446354 0.77826032851575 -0.0910065103865594
P 1.2233236750115422 6.101398574999577 2.923525512655687 -0.9607096654953391 -0.9827951845404688 -2.4447210996135187
P 3.9920190461194296 3.9309647997603214 3.4585070124714785 0.9685523014682095 0.44540891280010386 -0.23657388673813445
P 9.179372812906207 4.707156176817041 11.114948121413057 -1.8346430566353824 1.007494744169678 0.3291485129427622
Ni 8.063822274141662 8.38380659352367 6.7340760819439724 -0.4019320725633917 -0.023301393730101806 -1.4365650677107582
Ni 1.4271418570249046 9.104950570249066 8.955781788952915 -1.0856737637742657 -0.8437175296782953 -0.4320381479201527
Ni 8.166730970660637 6.973745553271027 2.6130544896054175 1.1920372162328696 1.1999037634651402 -0.1377468518658918
Ni 1.0161980425012846 1.4767444015242919 12.462494662092778 0.0887976756606987 -1.5398786775994446 -0.4480808032053122
Ni 7.540508059309902 2.840860440027594 1.5921477062992224 0.8882518646452444 0.7156246559623998 -0.013343511186441536
Ni 0.24519171597284425 2.8261749913032213 5.750034012894807 0.44674100134796607 -0.023238915923282557 -0.12516875809056507
Ni 8.948118453790471 4.82907119750062 3.800058857238526 -0.5377182011584869 -1.4009074664081487 1.1075790484877892
Ni 1.2462178657769538 8.42473053532647 11.198954600147967 0.45168291873427374 0.461750844493237 1.2932736318775533
Ni 1.1695660882444683 0.6856132982119619 5.107017728937557 -0.9090898844365183 -1.639100633917261 0.10784955008582717
Ni 1.6596952426589193 3.577261068627246 11.424556811966086 0.6714271355095792 -1.4561758999631502 -0.33503891028526817
Ni 1.4358757374456734 1.7276499915867574 1.477990914204598 0.7353732993442368 -1.122590177184641 0.13033436145190458
Ni 1.4444069328777747 5.010400558725906 9.505999672144094 -1.281838136347102 0.055737145661304006 -2.356664672994219
Ni 2.045137600426539 4.009680278995605 2.6532506080398206 -0.9030706748256317 -0.9120821342956228 -0.29219790386034195
Ni 8.223961841097152 0.5657914606840773 1.4721932022333006 -1.4475804449846554 -0.04553706519985061 -0.4554614119400994
Ni 0.2798545342166211 2.180181080603363 3.3793152235128265 -1.0081758293971024 0.19023797978607235 0.23652786399154746
Ni 7.879213101281573 2.0346808976020956 12.507072461464016 0.006709293699375542 -0.4734005129170234 0.710984328976911
Ni 7.532769177924411 7.044712938166788 0.09611045773998107 -1.0003625040002706 0.268824262131408 0.9193254461215974
Ni 7.291832004122781 6.600344526421069 10.915586245264171 -0.7171056113833005 -0.10083223822772958 1.5621698848974774
Ni 2.3087570670508835 5.441456251897774 4.731418491255959 -0.7555652009110794 -2.192402548446618 1.0907820315351087
Ni 8.012653527457116 8.695361059967906 4.217243526822303 0.9940681863511267 2.006569896817093 -0.511713292454293
Ni 6.937280681218914 6.625486677969887 4.527417892752796 -1.8735651876218764 -1.6735220488199243 0.37986377990944253
Ni 2.6744192125153488 2.4202522367261405 4.5598474909396165 -0.05920582093619481 0.26242607191454803 -0.20032930258380338
Ni 6.467972802913047 5.159576710385282 1.5417307366635524 1.3619328849171641 -2.736301681604836 -1.936105472247943
Ni 0.3447118879994567 3.269741876048299 0.1642927666323688 0.02232077498438737 1.1479147719923586 0.917045391838169
Ni 0.3354722164024218 6.4776924694150635 12.531532854414587 -1.3389472226552683 -0.9030236236377802 -0.43859703208459305
P 2.723229442968126 7.752000632030544 12.716184406863217 -1.1237281474438259 -0.24364750575546423 0.14250544959679973
Ni 6.329511316790965 3.0564343513836794 9.139313967486856 0.5395226013570773 0.04269831019947485 -0.12404981399477347
P 8.251849452947011 3.286297554440833 7.791578561249511 -0.6721632423446554 -0.6413686255613018 -1.0833001213357667
Ni 6.482004131901265 4.3131457718011985 11.24074179574341 -1.595282608291046 -1.1011368924068714 -3.655330165311305
P 5.928093696734724 5.654367619539088 12.895104580609567 1.2121535273667705 1.0035948948946394 1.3252352723858143
P 5.359967673499356 6.2114196720299795 5.986747047273523 -0.2569611921452349 -0.14471068477823465 0.6703308171216068
P 2.589531054079733 0.44140091925254354 3.316950895090603 0.937879554974701 0.7216101841218734 -0.6512632589671945
Ni 2.6757274519876577 3.27666080452509 0.05499212260714018 1.300975114286869 -0.35263502610047653 0.9618640908147564
Ni 5.867610653525496 3.151650231287314 13.564589681496003 -1.6898866062208766 -0.6729546278976991 -0.5288324686330828
Ni 3.059345644857269 5.787697490266268 7.119154528027393 0.14971636552294215 0.08721001945860464 -0.03453042967670182
Ni 4.502647023251402 2.412319883306012 1.9989484553953956 0.31861033241559966 0.09572139936372547 0.5924641865511152
Ni 6.955467052474819 0.7687021667254508 8.059494028338205 -0.11607913708447104 -0.06268298085151786 1.2624144804048518
Ni 0.06591223701931026 6.969774770083948 9.884417152463573 3.104329902331931 -0.7212908531092417 2.038922087895553
Ni 6.005206121968726 8.686912781122079 5.134714632638988 -0.46005314507583994 0.6529331904704496 1.2445825944297533
Ni 2.373533346838252 1.1347226961016967 7.198831839663445 0.6497499076464616 0.9153703181285913 -0.20294514294009566
Ni 4.272046783871821 4.124132806914603 5.568605151765993 0.6980879326302171 0.2263771487107908 -0.0654047506580551
Ni 4.348670922542216 4.610779464705582 12.213604866372155 -2.5253467809863865 1.3265107966641283 1.1701746118318233
Ni 6.299403383019791 4.0584352317242 3.5774637536159135 -0.6068749626598063 0.21460972376221749 0.32256957417366383
Ni 8.754305539854066 5.154408243174258 1.5092467820479525 0.6471793187058079 -0.9757796724545839 -1.0647002468463922
Ni 5.090709879008441 1.6000505782664538 7.036307960204903 -0.48110945152550694 0.30065529059907575 -2.6986545606760237
Ni 0.817665332215132 7.1920188601580035 7.69565328388554 -1.663397558791413 -1.4894940544993058 0.8373273098812354
Ni 8.060754360449558 8.758036786236357 11.948993164598743 0.759881054677614 0.6095198564818213 0.23248017628473508
Ni 3.0547944455662774 7.477178213305299 2.074756326338701 -0.7751094415915941 -0.31341696114011824 -0.7663226965378995
Ni 7.887200732425884 4.920611108746147 9.199749103335126 0.5354224631457746 0.05140457972422115 0.10871035542422568
Ni 5.000100476119979 1.744878215623506 4.5895251797575725 -0.8161655882019557 1.0055419913186812 0.8508770235412121
Ni 3.7683745870327607 8.926421947049004 11.110390473054244 -1.2661238109356387 0.8563550159366478 0.1660140742417012
Ni 4.859741121467645 1.3638857146525436 9.175761334926312 -1.6066206590116845 -0.5747947942958102 1.4587153785555522
Ni 5.848023913256979 6.8890600798240795 2.372929898349264 -1.3506331436336287 3.6855717378046657 0.5374466926646551
Ni 6.861310662284675 1.8185081442340378 3.5309705811017684 1.8835588084994785 -1.2372986591738304 -0.9001146775211015
Ni 9.041261419037278 6.820147183677085 5.189998805888891 2.7631709951918544 0.13063183808766535 0.02903084001471129
Ni 3.616766215509373 -0.02822204208116142 5.4042746120221 -0.587409397736027 -0.592857565334792 0.27346510333752905
Ni 0.6004699409497057 8.375183268551265 0.30143311514649945 1.0463256009939463 0.7205706871137655 0.09590651879133806
P 3.159121937005925 1.6138055186337616 12.266220046839466 0.22791004041554944 -0.7283459601838101 -0.3045803366850948
Ni 6.153921625926585 1.6070247844674266 11.105105001327034 0.40567097078053366 -0.49069400989014855 -0.23439256281609955
P 3.4877480072683964 5.114949161062282 9.865337124666725 0.9827633028612688 -1.425695729096422 0.5586192129772121
Ni 3.7983811783096004 0.38843380394127364 1.0279113922554677 -1.0016519122356558 0.392301234341847 -1.1090846864990382
P 2.3296244079296184 3.6651157982606333 6.443803539309835 -0.6870856679824425 -0.3154566172779664 0.9525083606314693
P 1.8193557360048296 7.889789572508412 6.169240925888245 1.0034221167622008 0.8689667911633874 -1.493203642140409
P 5.816506397519163 8.790208421710327 1.1170338243634308 1.403525620757286 0.5079929061799122 1.9272945588245323
Ni 0.48000227534429374 4.93291040237666 6.746683088239099 0.6657419121993439 -0.19943147335988237 0.47183162576800675
