# total energy = -340857.36222279514 ev
CRYSTAL
PRIMVEC
9.45507749679286 0.00000000000000 0.00000000000000

0.00000000000000 9.45507749679286 0.00000000000000

0.00000000000000 0.00000000000000 13.83846165043095

PRIMCOORD
 96 1
Ni 1.830512454140163 3.2498897744567574 10.196178738549177 1.5590588500723215 -0.1952670575695476 -0.7203552286688497
Ni 7.390041278679763 1.7402637396460856 10.501482244692951 -0.7834727259546249 -1.2704748888154829 -0.4467304598250048
Ni 9.419535838270724 0.25949460128758 3.9253624002503438 -0.787231935886741 0.8661881999769857 0.19920058829599885
Ni 2.1710181592292366 1.1386466150212935 4.762216179394145 -2.357820640975533 0.38964888432066447 4.548325458178805
Ni 6.761647374647194 0.40667895580983804 3.404607934710695 0.3087133850168619 0.8562930523504608 0.9238634432012669
Ni 4.282648976841155 6.496640463191982 1.8332364619605659 -3.3997851367873064 0.35356293723138466 1.8767240449658324
Ni 0.013228598894569253 6.3636737086681245 11.869802146647258 1.3269828512045403 -1.3380103126632958 -1.807314029803126
Ni 8.243796954316975 7.366942524409565 13.48495819216629 -1.7527649909126524 0.22451901245612946 1.3332694555442006
Ni 2.2165159920365176 0.6457042598728787 0.25010949138639393 -0.43738938492973706 1.172427155311426 -0.15448704743870814
Ni 1.14641868870533 6.72606791811066 0.0002477230298318308 0.5741695020069854 -1.6671449416489867 2.1663590731950046
Ni 4.3421497793881665 5.40254617323052 13.385044497477782 0.1657561925946242 0.5177412438159278 -0.5026936054541858
Ni 6.055258536527496 6.721264738753615 0.7509553457957409 2.1751964689809764 -0.04183107710317312 -1.5084520836590471
Ni 9.049520836383744 9.565229127075252 9.341210921979734 0.03868713215755273 -0.23348727739301076 0.6742944297550452
Ni 1.6134995159454997 8.029440892892646 5.016691080050515 0.35143560647573674 -1.3441717042790011 1.0879602458155972
Ni 6.529440126951013 4.092233171582253 8.651487603416586 0.04245765494357849 -0.5533412524077245 -0.7135109520535067
Ni 7.700687849104373 5.636880813358463 10.188913457017774 -0.25009583248396927 0.49083670611559993 -0.8114093044638929
Ni 6.5398407121729605 5.9757318798895 6.404827878883623 0.21165706889179678 -0.43552842046159834 0.4628453631089965
Ni 4.077171233165378 0.2886474416646977 8.99154041029463 -0.11979592381442593 -1.5143784764458113 -1.7273169831531927
Ni 5.881408027003912 3.625265805271777 11.04439279327859 0.7644545329809093 -2.9785206824438895 0.28214514761003023
Ni 8.59406029935973 5.012987526203755 7.576931285548425 0.05120557633953762 -0.23633760235761236 0.17799901451771927
Ni 8.817984899188252 8.241083347081796 6.23565195966343 -0.9526482286434431 4.7689348511678835 -3.260386608250604
Ni 0.6215796296966987 2.8589317759637662 7.530655299864993 0.42750914970154763 2.0357951122307973 -0.62173388204951
Ni 9.063533261200948 4.024960295351204 3.776377798976941 1.2055511915589046 -0.8490980772639183 0.501196452083369
Ni 4.8110838018133375 0.9290407845201512 10.920497240083764 1.0678902145385996 0.8656433832171091 1.2658345618299942
P 3.030210504414286 4.46283438827265 6.930509385295232 0.10211496159489511 0.07181476794945696 -2.735191993480425
P 0.35765816113555904 0.8014861163426972 7.553378687559452 0.015575228730437693 -1.6780358775298778 -1.0859506715847362
P 6.655580315538282 0.2727676390462794 8.963890927235958 -0.5300874240861063 -0.3145577596127809 1.820452109846981
P 0.18369702720552444 7.597826061259317 3.396262883331704 -0.876134255446104 0.0922108151073057 -0.14638781537034146
P 0.8934272897047094 2.6667005958297603 5.345701301946095 -1.7938242228468073 0.7282881103626813 0.15353676771029687
P 8.013972386144369 3.407146623012597 11.68921016688436 0.06460848000900485 1.1869425753187817 1.4804324585176696
P 1.6079777507003932 7.848801637742374 11.247555933988608 0.048826791694715904 0.035499221347874345 0.06479797031199162
P 7.072076478289891 4.806611550167901 4.182730554613909 -0.8231849569425822 -0.2957336849277423 -0.26872553177001457
Ni 3.1005657359020207 6.773201479321029 7.964837185032648 -0.2963414937150703 -0.4904998916014714 0.4721872093352126
Ni 2.032737651164713 8.673955704019233 9.26563837874157 -1.2992380769911043 -1.080011680392482 -1.3100755339262404
Ni 1.5132756947158277 4.8216640335073 8.327238958537162 -0.16209751279611437 1.3039524517476382 0.5330796739452109
Ni 2.4756985757674395 2.2250350168410398 2.570895132303921 0.2391928124182203 0.8246132047486766 0.40579335529101085
Ni 8.381169774943947 9.2962699932357 1.7048157086864477 0.6639058874318695 -1.3201830546738877 -0.2954405791673557
Ni 3.854144865696935 7.92967091538175 10.781518001793875 -1.087797494985488 -0.3954582919135899 0.6417766596329979
Ni 2.145385444195874 2.4832720928245116 12.311940479509703 -0.36844525365985575 1.160899871398117 1.6440736616518201
Ni 3.104716514913325 7.854815067016155 13.267555704779678 1.295432587202085 -0.2526355681866875 -1.8306123382094346
Ni 6.139370905740624 1.262262297922872 1.0570871167262792 0.5222411885688102 0.5531476483396796 1.9190644576052565
Ni 0.008455675785442988 4.576437144128737 13.24693701733104 1.6667767596762908 -0.7163574203633662 -3.0035218324739175
Ni 8.520565982150464 1.5323560410593633 0.11513636942244922 0.6677748834689725 1.2022398677974844 -0.42293721406014906
Ni 5.1422006149702355 1.7108395385454498 7.460826716192587 0.6467856828118151 2.2670740691185793 0.5638133555836419
Ni 7.782426993871403 7.591680260900893 8.044768518986555 -1.601986502673783 -0.7964123168344284 2.37660229245841
Ni 0.027137963367302315 1.5336892069832673 11.5465491214259 -0.059585572873116735 0.04651716972493279 0.31658764555861607
Ni 6.913789026289331 5.60824138368821 12.405668662514396 0.8998704227207792 0.6180985992897677 0.755296520630725
Ni 1.4420033207130667 2.977186429937305 0.7779070441367957 -1.9785934662088247 0.27863842000835237 -0.6218850629153935
Ni 6.278313269228363 1.9071553121484386 12.845718368762725 -0.2902829462258162 0.2602907707391001 -1.895264269861865
Ni 6.0957168130408705 7.937471354298211 10.326661644220483 0.8465814814896518 0.17017591892887465 -0.8859484133230484
Ni 4.6786748968604766 4.766616572450777 5.183998675961745 0.08102805901760883 1.2388408068499699 0.36060056080445635
Ni 8.423244869705462 8.015702665322202 10.916996024894958 -1.1211310761406112 1.4427028051773798 0.6059275111448726
Ni 9.181674454244792 3.7787500779152925 9.881270764706812 -1.4590673625783321 0.17738066420742998 -0.7314001736291017
Ni 1.95265314495572 5.115698032809219 2.1380426310291796 2.7488777184976336 0.4148181844974404 1.2787361003830107
Ni 5.3543725534979565 5.582930141288981 10.829066640905376 -2.8891244539672436 3.6029441955104207 -1.6536973007845133
Ni 2.20706091456202 4.095977382262153 4.511684046044642 -0.2250707711945414 2.194502111288124 -0.9529035391873589
P 3.67825205943886 2.3457101706480494 9.27619780926509 -0.33760667101244435 -0.6852270175071489 0.9557433226289991
P 2.2682447208994927 4.844535865918109 12.757677414858945 -0.2025067698510964 -0.8627015269799658 0.6385563529234873
P 6.663711682166349 3.1325522629982454 6.467944303056882 0.13668318648806782 -0.2840307946685173 0.9518051639168575
P 3.988425875989746 1.1220340438986014 12.894249390423825 0.3267573870027663 0.3258772983906581 0.6920540677313114
P 3.0365170410897755 8.944200728395318 7.062527795548396 0.319464709996095 -1.454923772723604 0.21705612842018104
P 6.082233872562237 8.63543571838813 5.017134523184069 0.1564598548943628 -0.7800048220106824 1.0439126206770795
P 7.709462161000707 9.631792872495714 12.44827702364547 0.8149402004352868 -0.6650862808932159 -0.5035472117037327
P 5.582022453851429 3.9173236933815256 1.006497724698981 -0.862351599839715 0.020040977811275163 0.17997824973127713
Ni 4.355500348782157 9.286275976345157 1.1428077946178197 -0.40767334592254306 -0.43735056127200167 -0.5873628607688077
Ni 3.673344874229596 3.15127331639775 0.0978553243223104 1.162302151062282 -0.3645621165553657 0.8130887490488449
Ni 4.33578651224783 8.55464208136855 3.4521707564384068 0.7853174924728474 -1.6886421922908146 0.3499158273971006
Ni 9.44763632852493 4.883944628831814 1.5106481286856648 -2.4286334500230367 -0.05167891643153035 1.1144053273810035
Ni 4.094871138197638 4.310323988609008 8.677670603958964 0.5355142515286325 1.114402756277842 1.5268876646564156
Ni 0.22568229873102996 6.796829717929799 9.255786188013145 1.2830522112598612 -0.2915852099770075 -0.16588809018679818
Ni 2.520931666405435 1.5916866522118343 7.172515875285981 0.4821031828973439 -0.5207113821878452 0.7491929788361484
Ni 7.955303630415113 1.2931142157221567 5.655018488477791 1.3401597549061306 1.5080113965772028 -0.7997159272863646
Ni 2.411971353589327 5.672507545282368 10.760497473552572 0.07167644259937979 0.33762286896236043 -0.5245068446745353
Ni 4.439347975825999 0.5709439077897756 5.60099312129626 0.843402826651354 -2.5744448240646176 1.272208326566822
Ni 5.992977941202982 2.5085738801462667 4.420157005076012 -0.21282023596196253 0.8813919043006176 0.11995533221042566
Ni 6.752712326433794 9.49923268630326 6.924406132785444 -0.8851228320979595 -1.266353924668574 -0.6658133888672275
Ni 2.1086430131299774 9.375163159682906 3.1745157878455594 -0.2857403211604563 -3.22104410189724 -5.172259176093111
Ni 4.379478425257482 4.293768147951163 2.8258418413262674 0.019110238466889667 -0.4409732456262535 -0.39510862188365503
Ni 8.66131426543583 6.093750156926175 5.000030288032702 0.43406006344618797 0.7763392002336372 -0.07180499775744408
Ni 3.6889362969850423 2.681809809634007 5.3553596635862935 1.196732821936326 1.6725440011773711 1.0492872547254317
Ni 2.1825817189805465 0.8685717820397508 10.799563017153954 0.805677029965806 -0.6892929600464065 -0.12046261086414738
Ni 7.46382870329074 3.03238517223342 2.384200845538981 -0.667375848258341 -0.03773505265692856 -0.1860635366934086
Ni 8.110187254524854 2.059561705959861 8.187705652707269 -2.266230490171362 0.24241466178962767 -0.3084110232850947
Ni 4.572390370969652 7.435860584121176 6.264657300831947 0.2987189928083113 0.5463337107416397 -1.2573908019380151
Ni 7.51197395779088 4.096866159544756 0.1728842006056893 -1.294672311997293 -1.2820993604282886 0.4758515455606772
Ni 7.87484092110714 6.575344528089698 2.325913129431947 1.3717305877338763 0.3204029055396482 -0.10191004467294061
Ni 0.4937422547027571 8.744500037056458 13.019847803071807 0.5506374803233163 1.9401053374359556 -1.1651619891085803
Ni 6.126077066811481 6.781503037343638 3.871766293586155 -1.0027759985377698 -0.3101184928945046 0.5336663996866164
P 5.298682147173166 7.39800245391329 12.533010591448676 -0.18932163861939008 -1.0132267615574486 -0.7847240818632227
P 2.3717399989353405 8.228782291287475 1.3380806731753712 -0.5569515954668021 -1.0686209220570368 0.5180042676693273
P 3.925407784622221 1.1367461444489193 3.6914513475932584 1.9722212441338938 2.1690242787319933 -2.3834319137857336
P 2.8779648469199293 6.392502239887868 3.8850790426702475 0.8462503234024781 -0.8782389604939326 -0.4779616499251446
P -0.12208963339719459 1.8215774059267629 2.15863389875314 0.7208059430530231 0.5406626284987914 0.3046713537370044
P 0.3365288995032998 6.757449320248517 6.9223033235551155 2.0469498432960362 -3.584369517832027 2.1548562147617276
P 5.7848716859892955 6.1679725151009785 8.677891852771866 0.17909764689853672 0.5244875614008258 -0.28184330009889524
P 6.338353011191422 8.577750290716223 1.7822414471096115 -0.17736318070593327 -0.882344498021874 -0.4861724678707111
