# total energy = -340851.77281583817 ev
CRYSTAL
PRIMVEC
9.42327164371305 0.00000000000000 0.00000000000000

0.00000000000000 9.42327164371305 0.00000000000000

0.00000000000000 0.00000000000000 13.79191056946958

PRIMCOORD
 96 1
Ni 9.173781263189348 3.7994066531799584 1.286997482026103 -1.6923412384089562 0.0009507939490435238 0.5246284578540642
Ni 5.5906010049058095 1.5009575800528037 10.264905675096191 1.0440560882334793 0.360309769036915 -0.14977652933691624
Ni 5.750014494074412 8.6053223913979 5.767873478804111 -0.30453662793135294 1.0538905578253979 -0.348497092672703
Ni 4.1449391838198055 0.8032613624021239 12.099146474766188 -0.20015729578231334 -0.19264350390377144 -0.36568928818127344
Ni 6.361500024939208 4.680736995526228 2.421459520975947 -0.898346529877085 -0.5104562801187402 0.540119868621444
Ni 3.4052594632848754 5.029209586970036 4.139420915849295 0.8938982642977443 0.34397015133662695 -0.7278767338568753
Ni 7.043292586760257 8.598876873481524 3.1090276060878543 0.6723275358366615 2.019447524110709 -1.0958185655177515
Ni 3.349926011230845 8.384233588248774 7.368962745084117 1.1212200363099916 0.37885102237421203 -1.4738182956352617
Ni 9.279529219413858 3.8789579137794346 12.61910188190973 1.9234026799692938 1.7969260017005828 -0.8558132845005647
Ni 1.9208962648851962 2.948965795818891 6.552440012267205 -0.6351020758262999 -0.7409189117528143 -0.7758694596860701
Ni 0.8752099273072556 1.258477949900503 0.22855109209353658 0.5055878962828454 1.657563982828771 2.1948250418451813
Ni 8.616837629546746 4.37973884744894 5.74704804810939 2.295802033180891 -0.5389106788046912 -0.0548791685363829
Ni 3.0241446582996567 8.47006074787209 10.606144963100514 -0.17639798857918654 0.8364410506215401 -0.4313992287845732
Ni 1.2783233603272381 6.566870810713311 11.230352853232706 0.28122340712670924 1.740270200879751 -0.7855213809535375
Ni 2.906730691577378 0.4236750121040926 1.7142655876704207 -0.5088585966143171 -0.31431247637119414 -1.2174546278647098
Ni 6.4700561161623735 7.409301887037947 7.662716281795748 -0.14406842320854543 -0.8215240243003916 -0.046341820489333094
Ni 5.290366141844934 4.442460144600102 9.127762715317097 -0.6176548268841299 2.359102335901434 3.017487036404758
Ni 4.525582825214646 6.779167701265977 5.6453596373795785 -0.7057439065135781 -1.8721713925981434 -0.14555246395323965
Ni 6.633314300228463 4.478136651663549 4.953323036776522 -2.868287205506918 0.9147550531420956 -1.3194739444220052
Ni 2.6065806379627707 7.623417469049473 1.380280334303565 -0.4572496141887738 -1.2722101263390346 -0.04812565186263325
Ni 2.7488720422570245 1.3868888748222115 3.8710725199308627 2.7013940710943736 -0.00016197949916101135 1.339864849373531
Ni 8.30773546771495 1.3514479495539538 10.592035498223044 1.2517330894316054 -1.1863815606089891 0.24071284860717254
Ni 5.109674904934847 7.199172349001023 2.3284056542034084 -0.8348433671171169 -2.1542538052910385 -1.6249150864454984
Ni 2.491183251407312 5.368645260750388 6.1782654469682585 0.759225423371486 -0.06217955885253807 1.9125935051689318
P 0.9657063181112202 8.878955358146015 10.018526695069921 -0.8727267724264518 0.8304102710464278 0.700635124532103
P 1.204049131939999 7.399482837814463 6.11730535931793 1.822437772818442 -1.4678926741794462 0.7766857849397785
P 1.199120760784642 6.05167227117823 13.226938721930637 1.7440258112674418 -1.0632987385131754 0.8965069055651851
P 5.376947163212854 4.147379811217966 11.293285231672357 -0.7432951252944747 -0.5118608737757507 -0.6570731807807522
P 1.0218219017252785 2.1667965427036435 9.501026992559432 -0.29248329631124464 0.616009577971223 -0.5297025299428619
P 3.1944137565905755 4.145862664456947 11.718062766577935 -0.6538898979567641 -0.005184115304100749 0.06183271703608061
P 4.308169098070472 3.1877043870635884 4.573507700973567 0.6389299342128222 -1.6394263926877959 -0.15142692045614567
P 5.481724522441186 5.3367097925945455 7.223623854687296 1.506422197713212 0.9713756298496175 -1.5543187642841747
Ni 8.99742473131074 9.322169524343098 7.683031913485681 0.8501846254598777 0.053059084608508625 1.1955999938834636
Ni 1.6494212273810136 4.60231652754366 2.7184405282816697 0.6526447126957534 2.6136826865193177 -0.8099373479040568
Ni 8.893250461478093 6.6290455580996355 7.30443029509154 1.5537747188552467 0.748624250816872 1.8816495072919077
Ni 6.854384256833972 2.9547328381651217 6.6864144368641 2.511149920660714 -0.5747852812141134 -1.180903053992921
Ni 1.4590051739655177 2.5661830717237333 2.490115594711514 -1.4217130902995903 -1.8245234517028772 -1.3521819761779874
Ni 4.360034786099318 1.1489606849529654 6.369587076804462 -0.8598568584423191 0.5154017970494738 -0.6092388349062927
Ni 6.602368275612414 6.479828049026819 9.893751268411572 -0.9814350709681484 0.5234316093324857 -1.8190914820540285
Ni 4.1515260508132945 6.443284600957077 10.733430749368397 -0.517269960606464 -1.7167168390398433 -0.2993226878305813
Ni 6.521441217329034 2.7177940918356702 0.8749178058812209 0.25715222511011837 -0.29343486159123655 0.5167940494113099
Ni 8.976881998770246 0.09442401049335837 12.728871690541709 -1.318930156103393 -0.8025762795532952 -2.1279192811615677
Ni 9.110334374109001 8.659393125029716 5.5604710356282965 -0.28268585060484863 0.68777652340188 -1.3066521100669883
Ni 8.177383348800882 1.0852028279029706 2.4195286925825763 -0.0226115667519288 1.2222962722277273 -0.9670566907592896
Ni 8.460778825141638 5.6845416015554395 3.1889652208314403 -0.7975777978974393 -1.5310623648593955 -0.016318020433733187
Ni 3.436459916239728 6.676953471969303 13.156338627221167 -0.10913664432836688 -0.04241934550647533 -0.6528629993541466
Ni 8.73476987621844 6.695526740702017 13.774588182589435 -0.06882046120782341 -1.4048016592562322 -0.641098916839683
Ni 3.457737663981213 6.081892703865095 8.131282818463907 0.8738853115109273 -0.7011228628017989 1.0273963681896112
Ni 4.729059533355429 9.276353576814708 3.0232277739527804 -0.37063660488421973 1.7219947996093312 0.8484141638230164
Ni 0.40069259449261874 1.446170677763612 4.224489502092101 -0.3050724458301649 -0.7150243033742395 -1.3239283806489328
Ni 7.699303076915806 8.584393304713293 9.491068478913196 0.6061499115683238 -0.036152281550840965 1.0747753716942072
Ni 1.645350373960145 0.43283160531950493 5.746992450805726 2.2271983159695643 -1.291865438676117 2.2148814462754243
Ni 9.249534945250375 3.7085380431395945 7.922722255182942 2.905696499393312 -2.6725568351477067 0.0486522137900646
Ni 4.4596953087361415 4.082764436433482 13.726468245104096 0.3821489763991935 0.6591580883342391 -0.38065593679343473
Ni 3.51970509938777 2.3415888114621937 9.870401343199601 -0.8977335788834346 1.3228426037839216 0.05985888113916143
Ni 7.750141628317627 3.3322667998634654 9.75955633925438 -0.9407435067860572 0.03008859185526431 0.9928893355516771
P 7.3726359364347065 0.3243895356852107 5.4593348286264085 0.319110926201102 2.1714480576821376 -0.4982239997186064
P 4.542120667236926 7.760921851265483 9.10239903691985 1.2586393296331357 0.9084252542693259 -0.14248308099929655
P 6.270103711677621 7.0678307865471615 4.072117081618113 -0.9984822562584222 -2.9699720215429304 1.5578715146324396
P 5.816995110082594 0.6636197821401578 1.0663694768683682 0.672626812244635 0.029375110728007473 0.9568848924326101
P 8.603597932657115 3.0878553989906132 3.8395026747211536 -1.379961717394417 1.6538772780058033 -0.7836532173965473
P 3.605928036427003 8.791215274345763 5.032819642399515 0.1590648966173777 0.9448091922149986 0.23708862159102392
P 2.8868570113352208 1.6972820248916436 13.577474067573121 0.7902905202074068 0.10651334777290689 0.022891045665560574
P 0.750187610927548 6.44327517768527 2.0516158913997584 0.11330234567028229 0.13898458092773483 -0.5704907676038176
Ni 0.05064631665694679 8.477410899881992 1.2475752244191487 0.6078293561532757 0.14266100133805754 -1.444976431702905
Ni 6.563054385631247 5.880818930035242 0.4691894149346387 0.2344460417618543 -0.7511603869751644 0.7410497809037238
Ni 1.4767586180509729 7.584499356484223 8.450276588712104 -0.5296439087907846 -1.0621029184328612 -0.1344650957908265
Ni 6.084399294165908 2.353848488083838 3.467658484540219 0.24722699557660652 -0.013420901391596239 -0.12128227855196531
Ni 1.644954596544227 2.2690673116311624 11.535140098903817 0.3845655562604861 0.35655544420080526 1.1671887897306221
Ni 1.042355210993966 5.534099067147641 4.6465361728278465 -2.1777542024058234 1.2338767779764748 -0.21803931826905673
Ni 9.280235964799425 7.824773941033553 3.4069057088696573 0.22556776543561796 0.8225843472441059 1.3618958610316416
Ni 3.6292506341507305 2.5970725567089366 1.6996048613922088 1.6097936574230274 1.3722892884508235 0.13719869267190565
Ni 7.847766724244015 6.689448730386137 5.467168394480039 -1.4254702433491773 -0.4461005395504898 -2.105782082942896
Ni 6.539449089753293 1.0574418691578797 12.270566154544811 0.8819354355089133 0.4410660624503759 2.1058605015893153
Ni 5.331960463603533 2.7197729789152594 8.04773137898212 -2.0783967489514077 -3.6732384130502935 0.13209248179359187
Ni 7.566284172080197 4.943900707296137 8.26124387159796 -2.829567420339217 2.4721529705722265 -1.072301713342734
Ni 5.930046101957969 0.2934736655389466 8.367234948235106 -0.72000787263176 -0.32345583343335904 -1.0044292178704766
Ni 8.446973731943553 5.541995768922382 10.942323011816988 1.0148342152538845 -4.910527559142428 -0.9301803865582302
Ni 6.125079558559173 6.0642429157695235 12.011388486749503 0.36614385922018877 -1.9292285426224516 1.6704331254819553
Ni 7.367877184171886 8.483696222177638 0.20847198452597393 -2.3181567467270074 1.0813879919147182 0.5421662096275114
Ni 6.160633563089121 8.217432253983041 11.578943235574108 -0.7428732072657077 2.4739149475686553 -0.3467328016834287
Ni 1.924505377987494 9.054755916987975 12.761420613692225 0.7610318804526055 -0.8960281661565536 -0.22892742593647022
Ni 2.2954336261487334 0.8572953452738908 8.323431811564815 -0.7517810512782989 -0.06873690035508162 0.16203606343055965
Ni 9.177597688271412 1.9045374650272608 6.138668858832864 -2.2327349295170773 0.45465125733397826 2.916157546825636
Ni 1.944331941870614 4.850987247273532 9.82425369650359 3.5557886208705405 -2.399331872845442 0.9476078380060583
Ni 2.2535848760513306 7.535781041239105 3.8118500836018496 0.7228872510620841 -0.014004027588575883 0.3777958416368203
Ni 6.952772637776774 3.8022430579940356 12.546611478875663 0.2711089444005267 -0.3464191270977518 0.22927761018703738
Ni 1.903142820799741 4.075433130967196 0.3885733246209075 1.235560593436801 -0.19395090986128533 -1.3294616517623363
P 3.501904538943277 3.7497742805695053 7.568876514154458 -0.1761367644979999 0.19520020888735415 1.3283900159647122
P 8.497878246248026 2.240759803121233 13.46177419399264 -2.3370852082003943 -1.3186576191682968 0.4995175217190494
P 5.456328804919794 7.547861675696405 13.57682574647276 -1.1748668751011702 -0.2612675328300726 0.17758789512222967
P 4.131209476796181 4.979124897312821 2.0030408098861145 0.23624941351918022 -0.04746359279860213 -0.3940657824414375
P 7.870825470357131 1.59293813616646 8.367152023443198 -1.115228337502931 0.25468653717844525 -0.15949838461037047
P 0.2781759260865432 5.492156084332163 9.093048324305203 -2.741192176927918 1.9496418161714808 -1.2577438144020596
P 0.9432600846655967 0.41350541716936684 2.5216713050135127 0.18165075233769362 -0.6737827802259493 -0.2646364493023055
P 8.161759564143939 7.314852433710708 11.502867277617263 -0.60177955041477 5.076945810801082 1.5160900598202793
