# total energy = -340891.5638167467 ev
CRYSTAL
PRIMVEC
9.10670297000625 0.00000000000000 0.00000000000000

0.00000000000000 9.10670297000625 0.00000000000000

0.00000000000000 0.00000000000000 13.32858031624613

PRIMCOORD
 96 1
Ni 6.386458089711749 1.9484155731509665 11.553600565965061 -0.12477666485846897 0.036881960628013896 -0.222112717007482
Ni 4.759399858537803 0.3982133635031777 6.072008182100224 -0.6698304804464206 -0.48752255414070234 -0.09219101761296382
Ni 2.7034341207770933 1.5819527303007834 4.657658859889495 0.9007985909620035 0.09553422305358386 0.643872365819762
Ni 3.5385734430210456 4.394803889840456 4.87479544794105 0.33801393375319205 -0.5248642280139542 0.35109390686560177
Ni 5.007047544938932 4.660965503815811 2.497256539337847 -0.0667977743508398 0.31912892392323106 1.0489915778618837
Ni 7.374007196452623 6.140422289774287 2.7466736581677385 -0.7868858654012318 1.428746600107604 -0.8574287086168008
Ni 4.92003299601039 4.7280272660669675 11.513601193567483 1.3067436413395301 -0.15325523191413606 -0.8222534462672485
Ni 5.16650591770071 7.866971253239635 12.276582642458196 0.5077481371589578 -0.6267364774704238 1.283911216826047
Ni 1.8875281556589478 6.286730583137549 0.6780259255522004 0.42892068533709354 -0.07931493298124405 -1.3199881650542624
Ni 2.6892914107314594 1.8477227560392029 0.3287574489847994 0.2008538076287057 -0.4593581758913444 0.06735107575114853
Ni 0.7402247083027967 0.13690653299551478 4.757809828161777 -0.24456076159835302 -1.2640540728908036 0.07637230541315235
Ni 8.610879622980589 2.3617141904793804 1.355263210608617 0.26891013697699495 0.5371371318440362 -0.09178169798968709
Ni 6.92079389906625 0.9230463280845828 4.916300158375035 1.1252116739678881 -0.39337569835294833 -0.6395058613209502
Ni 0.6476031622235155 7.098046769850673 2.608096955808174 -0.09970018150581539 2.4755928494917105 -0.4088162012777346
Ni 7.4062813525387305 4.0704595492188975 3.7934873678931416 1.4631019376590222 -1.5742299013858048 0.5379231180804412
Ni 7.547927013871495 3.838721273281207 12.528892050219506 -0.36484699478563615 0.1621957289368755 0.8792584028973824
Ni 8.25589122614296 0.036029760479423065 6.68164367740664 -0.3195379864361916 -0.5961940859071925 0.6432848687474082
Ni 6.712487170422452 0.6357453240068901 0.2957702380393404 0.7059981886162292 -0.7794607765817544 0.1358707178891015
Ni 1.8717189189305383 6.297531133114447 9.230374945824938 -0.9444659499429668 0.33078090633986257 -0.8526490278399702
Ni 9.100100824758742 4.946005313492775 1.463864288765859 -0.5660551004299671 -0.4703900082254738 0.2593001246910566
Ni 6.489709890418376 1.9909894105388195 7.0376237942210675 1.4027267790050746 -0.7861980953055879 2.050065248996566
Ni 3.594188079369199 4.247357258579123 0.44441986479135503 0.017065440122718996 -0.14699305305450813 -0.03354312606276804
Ni 6.074316731357512 5.798684146070205 4.834836145037486 -0.6360019619327498 0.5836571297824463 -0.3011941938216813
Ni 5.287925591260549 2.584664497843963 9.543730227713677 0.4621959024504556 1.2208690528628974 -0.5143502158565078
P 0.1407659538051345 5.732050398868725 12.442229930704206 -0.8077236280821894 0.9997294984019622 0.5974534122355905
P 3.842281994226373 6.048572081454739 12.690501426273482 0.6176602262007685 2.2830640167889324 1.2337165982495268
P 1.9011426769198763 8.337396219644841 1.4467245627021845 1.5541141044725364 0.4835825956563478 0.07187981685943749
P 6.573701013889642 7.855724474806694 5.757027353693037 -0.17792779496015165 0.17429122664882887 1.059335640100369
P 4.6325981233958835 0.9787884582773207 12.6554606537599 -0.27583488912128623 0.2529042484670419 0.5047458599975243
P 4.211221860342758 5.993066725544799 8.061525038734098 -0.46617725569570684 -0.21662161198592372 -0.35860769874414367
P 4.803795036562569 1.350023213596217 3.7115698407370012 -0.27498513952648124 -1.8674788722184805 0.4332925891525441
P 0.239540899226228 5.521521634647892 3.7302167261777215 0.1436462480694623 -2.7890141815072034 0.6458400310690942
Ni 1.4969325493696608 1.0841894409355055 2.493591091306058 0.017918532151633654 0.0347973101848433 -0.37549907518284364
Ni 2.0245385050707667 6.440415306080311 4.815482579429643 -0.2129729594897429 0.6445848185057543 0.1438071991273588
Ni 5.985635655746193 5.757230433174054 9.373351096492966 0.9410283850163278 0.08727841080269486 -0.21780251966790232
Ni 9.061533936772099 2.351296122036235 10.286438333974905 -1.2192117197651327 -0.11236852100210325 0.24335157178160025
Ni 2.2602473035969286 5.154603456638481 6.936966493251724 0.4725024265827862 0.19125587952762546 0.2890303047656377
Ni 0.9688348316965882 0.05472855412829562 9.093863643747632 0.28409430091660104 -0.3321621029581054 0.32942927740797456
Ni 1.7623474136838821 1.219924851901485 11.447251575505362 -0.25684677805455763 -0.3532690601400497 -0.1714139051010338
Ni 4.180914752144518 6.971718583274352 1.6424676836325531 0.06390065530870286 -0.13560666559443743 -0.5077234545686093
Ni 5.84123977005169 7.987489363184201 8.043358987221524 0.011606731000992914 0.05562658822536871 -0.06170030522327439
Ni 5.41562889001774 2.7062025585452014 5.2195388036960395 -1.8415984049072929 1.4207628105711791 -1.1635406514550735
Ni 0.8250837005875525 7.426306992841595 6.975445956887795 0.7564329482280133 0.7529408759143549 -0.33724285991512243
Ni 5.384675205893395 4.083955683338427 7.557624742092741 -0.1135298883000561 1.506847972396721 -0.5264570264223708
Ni 8.30430246027212 7.400343782062392 9.208170071450006 -1.2231820172667902 0.30351641419695474 -1.0635445359753941
Ni 4.667749997688314 0.27871065096368997 10.470279904513363 -0.18182584446297717 -0.0480541751947495 -0.45741827855615413
Ni 8.484323768824654 7.0518393578921765 4.906863792535186 -0.5526532252017643 1.3644381678375213 0.4241237781690825
Ni 7.214831131489568 5.98128265162397 7.023268897991233 -0.28187312489556615 0.4184490963818084 0.35722393102273964
Ni 2.542382074958016 4.99825046966264 2.7585233003514977 -0.32383609959091325 1.2396280786379554 0.11693994242286958
Ni 2.1428345794382992 5.450817191122909 11.552147136136803 0.026439682248767367 -0.47117239491745305 -0.5396622122587351
Ni 0.9907364528554733 3.2835493270404155 3.6438205223954108 -0.38401662573555156 0.5263384985666354 -0.027708264548545827
Ni 3.597548452844305 2.632720570548926 2.6059778259771247 -0.3756741673081272 0.6820167380999673 -0.668777613701874
Ni 1.1713952306309243 3.550621611334228 8.434246008012718 -0.8671978721884227 -0.5339723609628094 -0.6752400814977662
Ni 3.6858743670314253 2.593825841247638 7.084833854200183 -0.3681356928392369 0.2723587576472277 -0.7674125871679687
Ni 4.2101928028829025 6.996953257798788 6.042898605370754 0.29654203976165056 -0.03960167355202212 -0.28630956340036495
Ni 0.5825230185853221 7.456304473131561 10.991320837888713 0.7233443932041607 -0.35555837039485855 1.7291537792516156
P 0.04693230553198735 5.786126002378687 8.006891194318923 0.5143044502202367 -2.0099730089613708 0.6931514145605481
P 8.750421635877718 1.5582479819113542 8.107788912252339 -0.04671797288182922 1.365269662599881 0.170236596963481
P 1.813900460411719 3.4007161702130615 10.70430305228006 0.44297459232699843 -0.40828526847492913 -0.5591964256369208
P 4.1359276384127535 6.401529683482208 3.8732857652182333 -0.3367476654462587 -0.769250668817972 -0.8264705696723896
P 6.901414834689491 4.0837644425715505 10.502868241859337 -0.5253115999640179 -0.40336032036948594 -0.5610530192296853
P 6.42633634295697 7.80631150332723 10.374647682361264 -1.4596517743268926 -0.21070601783243711 -1.5965010540791795
P 2.530051598846111 8.55124893052804 5.862229810221799 0.15339381437452937 0.18954275349126065 0.1391092794310572
P 6.904092205425752 4.131101085724933 1.7285433314627674 0.7098265612233841 -0.9150527868881725 -1.6780451335012583
Ni 5.4844027124675945 2.71907943684818 0.6733878816203002 -0.3343837931997725 0.38164632573116203 -0.5078237275918996
Ni 1.664577848294365 1.271496112035691 6.991106754354297 -0.6211404714398852 -0.37042114643930396 0.18528552087680347
Ni 7.117343873898771 0.7882388901731108 9.366073929978176 -0.2882252923658391 -0.3958133612601635 -0.3924040784682984
Ni 2.928132915153113 1.8247192237949852 9.184885142077384 -0.37505915943194756 -0.8247615574010828 0.6446118150889478
Ni 6.606084450413964 1.821122076037081 2.651467629724677 0.0704068318583368 0.8148437840667385 -0.19498809287654806
Ni 4.0011484312811545 6.886598228608199 10.102131410903716 1.6599144853388188 -0.6192890200534431 1.3308094240394823
Ni 8.20231649130815 7.290016072981357 0.43123244790978277 -0.012584264422913811 -0.5702074320354438 0.2606635806974866
Ni 7.702841141744173 3.802148753291984 8.395806613870656 0.37075487562963894 -0.26882734745520154 -0.18516853568296496
Ni 2.763501934982501 8.529939245076152 12.749134024057 0.601929445729073 -0.36003208989549607 0.3950841964036228
Ni -0.11809936957874587 4.994771709046135 10.204827702716084 0.08839709778817034 -0.056865345728476256 0.5632927071934816
Ni 8.740103741169603 2.3854553656815476 5.732555820895468 -0.02912931326578854 0.13719149358305405 0.16522525979181865
Ni 3.827010052985853 2.7303171085779367 11.50089916396565 -0.6586032442720335 -0.8292481324175268 0.1778043820084099
Ni 0.7538446935856359 3.7101346243151134 12.876968459340047 1.5083242998319315 -1.3203141809351133 -1.3397751178732025
Ni 3.2926833503345367 8.04438804468138 8.057260369632765 -0.6933293348993091 1.3924289966234924 -0.2121036695109121
Ni 5.686935791292377 8.373713751944896 3.8241833323173635 -1.2714670775254233 -1.3466492192852162 -0.8478215245443398
Ni 3.0870084589110784 8.388393757478418 3.438880541918947 -0.1405776364464676 0.24359505525097402 0.3075108800683285
Ni 3.2644252503528235 4.317824927821306 9.23617318374255 1.538297963375886 -0.08560076598995581 0.5539475185331557
Ni 7.17380543364309 6.235059149268314 11.697389034557153 0.5883110836146901 -0.3868983181587207 -1.0642413049321027
Ni 0.3629950102774996 0.1519945188317063 0.20407484367392967 0.5927732331511018 0.11441049113279651 -0.008467928261695094
Ni 4.7308048105382605 0.30175971672383045 1.6302583266730035 -1.0989242010262688 0.5563674408285579 -0.10563248782985032
Ni 6.113165927142877 5.639744855389948 0.3544073891744524 -0.9762093037928349 0.6682669926140427 0.7688542047105017
Ni 7.858028470712389 8.751778534652217 11.539458766589746 0.3163693589002229 1.0650666290468753 0.8649389009509169
Ni -0.009412688411569023 4.83633328704103 5.813500752151497 0.2817862216087147 -0.44344870374993955 0.36474723598297826
Ni 7.789099834308398 8.806664634745607 2.6207452558612196 1.7539353570716698 -0.2966834504355213 0.2993039187775039
P 8.707264969486053 1.5196993073310796 3.566928074056515 -1.1470606515221793 0.6509380144172918 -0.1380589837896719
P 1.789367002032494 3.5244398396785965 1.4519754877584061 -0.56878844020073 -1.3749573222012899 0.2714737839391131
P 4.846642075045959 0.9405403049021369 8.247752565506913 -0.15022724372108964 -0.0757153885554438 -0.27050139272351476
P 8.366055014566674 1.6421389316475905 12.477390911699823 0.43082227323518063 1.092288697987622 -0.45477826983014574
P 6.310326051088764 7.850369733334167 1.4702890678625713 -0.7192969626076644 -1.190812342686833 -0.5077882463682738
P 1.7503356721834376 3.2660098167069385 5.805836550751364 0.6482018464330515 0.13009139220316304 0.7398071667458743
P 6.935237130316975 4.046508919843485 5.897577478632698 0.4559836029921567 -0.1269829284811684 1.8293787229126495
P 2.5241231350729576 8.239043825251512 10.557128711443948 -1.2821286710043274 1.5700978814953024 -1.0691603395002747
