# total energy = -340858.2110251791 ev
CRYSTAL
PRIMVEC
9.36176517150866 0.00000000000000 0.00000000000000

0.00000000000000 9.36176517150866 0.00000000000000

0.00000000000000 0.00000000000000 13.70188963022283

PRIMCOORD
 96 1
Ni 1.4465986531011832 9.226824530587118 2.5591845094174084 1.5624136254771672 -3.362415694999912 2.767571438252395
Ni 8.075739351837756 7.906497363960539 13.081070675218173 0.6439446138185942 -0.005615803524880651 0.2923298014525159
Ni 4.622661689124884 5.606536383004518 4.1450543958881125 -2.4054469846042443 1.788874849261332 -0.9466462454237374
Ni 7.938458429709672 8.4085969068203 1.9749626277006003 1.5311307562034857 -1.029635284822459 -1.1572411915996068
Ni 8.619320875463305 8.155960316220977 10.694078045833091 0.8506332829615222 0.6690730334551058 -1.3035343903736132
Ni 7.619100539873658 3.3678294305184955 11.322323627516301 0.8117417481026472 -1.5635258847047397 0.2656664332287167
Ni 9.039177312697367 3.8764260382962097 3.211134080109641 -0.4685681245253866 -2.5250233362086965 0.03828449740249536
Ni 6.434518965913282 7.114529491050871 11.071331899029493 -1.2430928972581043 -1.5861775606659845 0.3732203064509959
Ni 5.964876662348262 4.23877315306486 6.750550620640724 0.05054814526119682 2.356100572960633 1.9367845005928386
Ni 6.724218784192984 7.271863313833507 4.039919902456388 1.2825953262281007 -0.6434715308369177 -1.4818481079182737
Ni 5.332845182894417 7.288386829078738 5.862805338428288 -0.5052343695981686 -0.483851018826386 1.9990815588598472
Ni 5.872429232860072 8.268161069883352 0.31132455927967884 0.2960561012641676 1.2239572048699179 -1.8408196177597393
Ni 3.0694418943081563 7.4576007316609205 11.832348840634765 1.2325603731578965 0.4344614126496647 0.40248434552243584
Ni 8.510874189570526 0.46770348203114576 6.164466683863136 -0.08817932535040941 0.7988515224035403 1.4841309904151794
Ni 2.3417425382021775 5.806456874824296 5.855543417308898 0.5110772015321908 -3.057350191148283 0.719403920499174
Ni 5.464930325441139 7.15222931875203 2.0517206752060813 0.8314099159555359 -2.9825655419372246 1.592474963638922
Ni 2.026297866140954 1.9897776208312397 9.930690705326917 -2.131720142964896 0.5184043313212233 3.216882257210066
Ni 6.069035659865793 4.078275053708349 4.431684491420556 -0.34056549653045215 -3.2329686212489674 -2.1765766371579542
Ni 4.564983854889265 5.709281754005318 9.743098721850734 -0.6414886960789339 -0.05798377560363563 0.1629251509037323
Ni 7.8227750994630325 3.005238909859548 5.47138339006354 1.09021741728089 -0.6124079766628937 0.7224401362223365
Ni 1.5739841896121514 3.97552968270755 8.118821258244004 2.523157486644551 0.09592837316820897 -0.6523333521029218
Ni 7.656229299909117 1.2697923590947056 9.564590458965172 -0.22995843830414592 -0.42714610993517405 -0.36322719979402607
Ni 3.8487245756272928 3.5973237380094836 5.441897574983439 -0.6990688084862478 -0.09606309897386037 -0.4547409888343071
Ni 3.8164452098677706 3.3861223193508927 9.01928262587151 -0.7899611618924459 2.390156634104077 -1.542268260877544
P 9.23170201015809 6.385098208417772 0.5019825207971162 -1.3267157135860828 1.4200596138565673 -1.0150920969009616
P 4.583042699596375 7.92787963524672 3.9739728211861443 -0.574732830709623 0.40487187191800594 -0.7188045963522782
P 3.866802143864427 4.783300214956566 7.300749975952876 -0.46305799334043474 0.3007612200493207 0.2230290581741643
P 6.687230450632696 9.091228726161098 10.747145210800566 -1.1893756102403066 0.8348688210384138 -1.1660477341476436
P 0.7504568706723427 8.881197528128942 12.186789008674733 -0.34978727223903633 0.5128332649913491 0.3860963910827157
P 6.799730780775439 3.754751178442234 2.4115738157756774 0.05481874761209269 0.9600447782178305 -0.9731538047959627
P 5.283349531278816 1.0438742458380965 0.6205979558453463 -1.270986795454895 -0.6062095611616657 0.0327576540469952
P 4.2274922262260475 8.82664652340715 7.9858448756681915 1.059009367109202 1.1985799024473938 -0.47816065330982815
Ni 7.38308108216968 1.4057345488261503 0.7715330122426479 0.1794671144228135 -0.05168303019658841 0.2639265677194745
Ni 9.526719310964303 2.23190094932269 8.421017160461007 -0.7680764460042128 -0.7303329087068519 -1.1929314459123648
Ni 4.471029181234229 3.071538929670724 2.7145635956656515 0.5164428367194783 -0.5028247317154114 0.09942893012229972
Ni 2.2870979158302718 5.450466398498429 13.440649516072932 -0.1217219371925452 -1.2805014198135496 -1.5209247622047612
Ni 0.469440089440772 5.559296916756679 4.262383524423767 0.7216127552250347 1.968147331174836 1.1869482317457365
Ni 4.943489376067699 -0.10999605800217672 11.970327214256203 -0.10219209468973367 -0.4378830367367039 0.19373725118858248
Ni 4.467097239929414 5.1982230020295885 12.477241512861356 1.2673222021191142 -0.6010452433519067 -1.7715664398898714
Ni 2.890107923748584 1.5499244535326933 8.111449804473978 1.582487513408907 -2.1054614663786837 -2.258986921235071
Ni 3.030974401876058 1.1336254870029858 0.9188394485215066 -0.0187651964226451 0.5653639879002134 0.8300240913516027
Ni 1.823381609517508 2.6173903471996747 2.750379836246504 0.21028281425208947 0.1367163537188484 -0.6372690015706315
Ni 0.3209250492989335 1.039895495708225 1.5104000178308004 -2.907763923445302 3.5296397303893148 -2.850803704010174
Ni 3.4793935841600923 8.19497079102374 1.8811465081677339 -0.5907011811134214 0.13148570144752839 0.31064942569731013
Ni 0.2057800205404525 4.3402546857891116 12.260779718442826 3.6967776338228138 -0.6710923778779797 0.9666792528152126
Ni 0.7696924892413943 6.667168188213132 11.81944177521346 0.7539263797560758 0.0012760384989461894 0.07190527078073422
Ni 1.3367008936316267 6.371448755031061 8.34240922818926 -1.8876028966618652 -0.3899407045294704 -0.4869617965412258
Ni 5.253644650897446 2.2159578635081694 10.010833030884042 4.027646986111424 -0.9153667185841654 -0.33077345014069487
Ni 0.9367007599868756 5.244591824131361 1.7649407914334545 0.8963320705502177 -1.0407157110063365 1.1787579826254604
Ni 2.775164172937849 7.704414304423113 7.1204330200671 1.403031454729687 -0.93725400557556 0.4667799222767123
Ni 8.010515935002898 7.551789449441244 5.958910409506458 0.16643290694667467 -1.3951111714413458 -2.151557489405798
Ni 4.35330498621509 2.9912149858723773 -0.16679014162071415 -2.645619901547547 1.3482810984616844 1.6148875270061673
Ni 3.754320537251707 0.1536312447206027 9.842067556845908 -0.4030286480616801 -0.17001111121623624 1.8388984894776266
Ni 2.3585375446327412 7.677620932960309 4.642501141537175 0.9461147984002996 1.2200015626562795 -1.3000675148709353
Ni 5.850925258628743 2.011637342133004 12.400798956836761 1.2293071563279214 0.07022171243072423 -0.6247690693314079
Ni 8.29355953835945 5.6268607748444035 10.947110639092399 -3.029082197441525 2.6604911622324243 -0.45306668645567777
P 3.7370293572755355 2.042680954911013 11.312183899832386 -1.1731586341608118 0.3250442609664015 1.7807385933074429
P 2.3776261834911123 4.488114402380147 3.7115129305602936 1.0525304442530778 0.02712848078567586 1.05191132261184
P 0.5051393079589813 3.455521083380863 5.6873256065239355 1.5714847345404999 -0.3153157208247279 -1.3668380355282654
P 6.006967157839798 4.471469184189767 10.785743767942824 -1.471313269825221 0.9891267831854513 -0.15817272382041148
P 2.3870160337976096 6.36389381066681 10.155977835621753 0.4161911535855671 -0.8460675179677105 0.5747091765605392
P 2.146680802423348 3.323052108468671 0.540918101479788 -0.191814837354889 -1.0091998997862426 -0.2819554001967273
P 7.091480825592652 5.513068521130078 5.3154154487960765 1.2125715887407955 2.5567564056459195 1.4754095513817815
P 4.177359974589667 6.6025813713990535 0.2727484703734471 -0.18980114935896988 1.089191547119537 0.8229365883772022
Ni 0.14924993869523828 4.191234110336654 10.011929293566885 2.729405468705635 -1.8433840360528058 -1.9863741385955083
Ni 7.852255297484127 5.74066239032374 2.384265547237242 -0.41496705137047885 0.6416203365607918 -0.7535584548936958
Ni 7.873553312885204 8.026140720807028 8.021881117726814 2.450954225007424 -1.0733368394754677 3.0731473060815393
Ni 2.7895532057604666 4.192207733897846 10.942616991886897 -1.172532827651355 0.4971266528893697 0.54976124836595
Ni 4.335115076797818 0.27350209245686985 5.924162346313413 -1.5288273048812897 -0.6041117980923725 0.4632778226607247
Ni 6.551906137392008 9.449391131969625 4.982418403514862 0.30820867746630143 0.5248408309751865 0.08773015362813279
Ni 7.352655345882428 3.9726462590840197 8.907159574858728 -2.201364642735912 -2.5219102445010115 0.749485827486219
Ni 3.3155907817545356 4.791781974056952 1.7151202865719553 0.7026398136669576 0.8330415380216878 0.6459086795235006
Ni 0.7155674448276249 1.9799477675692039 12.376314196625785 0.03830506622778564 -0.12807333333186977 0.36664908099138144
Ni 2.904590574221316 0.7865343044970151 4.100550437376623 0.6288918332505298 0.584254397046813 0.09237485148899574
Ni 7.586456065278688 2.1001341067863577 3.329477087796038 -0.529204764370837 -2.787652782383302 -0.4460177500286964
Ni 7.8026847517484335 0.9489553103868797 11.977492709195975 2.11588780391833 -0.1769219794034566 1.2613117342589761
Ni 6.102073328591244 9.337480593022605 2.692749747012443 -2.1258860527816226 1.7044544767327225 -0.51079566573603
Ni 5.725571225125262 2.182115082991733 6.134034394340375 -1.8431351532667937 -1.7427430879002759 -0.880371176345587
Ni 5.733715960685235 4.934576975776786 0.9740345426760862 -0.2660292158847741 -0.06966146905188003 -0.06480362673894645
Ni 5.707428124533048 7.3375360953889155 8.332132818736179 -0.350396623688261 -1.2232889751582998 0.7083705455031478
Ni 1.766808463553241 7.581381988642476 0.24487568740482035 -0.8266950269783698 1.9801281576857963 0.6776083246196266
Ni 7.790289774873258 5.238731359234186 13.204305205123058 -2.2950132187310084 0.2870508124417637 1.1169700027843859
Ni 6.31287219135434 0.07322491739015495 7.496015798208955 -1.2161045415947185 0.9752654518223269 -0.7517823368298795
Ni 0.40732758711922284 1.3942383013920745 4.443166696207115 0.3495242483856368 0.7703336174695056 -0.6967584151855162
Ni 1.4526463532985878 -0.10621203258454365 6.2395798692561035 -0.15510334086646835 1.515287618523642 -0.01389115615979543
Ni 8.85090285655185 4.388701819723429 7.204617755756174 -0.8187055810149901 1.4809785608291268 0.22962753732728838
Ni 2.044253731432939 2.072114344107051 6.227330935915106 -0.3793138209432435 1.4498507290760707 -1.75957841429006
Ni 2.6538356983892974 0.5007608104631204 12.418268946524652 -0.1568195522266267 -0.5315454966888716 -0.4723903264849542
P 1.6123018938040665 7.047414997683698 2.744050346922254 0.15823571584786297 0.8355342225365546 -0.5886209015456251
P 7.228780471250758 1.9880737795991532 7.509663379242665 2.136131898879347 0.7789938642476648 1.1389745320799354
P 0.8076937657759223 0.24202690231183235 9.034312939597411 -0.34725190741169226 0.2460705133746601 -0.1884963145046173
P 0.7262201972341679 7.2958762410879086 6.240087276919724 0.029899101552277537 -1.1843573310901088 0.19805387628606536
P 8.172989366776827 5.83042299325364 8.802532489090625 1.021017718356777 2.785684860023654 -0.42220110722507287
P 8.369942179087971 3.026733522325865 13.421137725436044 -0.5575262370233496 -1.3090900300845199 -0.10974265334348197
P 5.136079605883501 1.5577134420222298 4.104743571925257 -0.5925724299942053 -0.00781615361030912 0.10752739085971803
P 8.718302816929496 -0.4878060000402588 3.9198917770679285 -0.8543462130367351 0.45889460599136445 0.4918512634230432
