# total energy = -340887.14245014277 ev
CRYSTAL
PRIMVEC
9.09073889950460 0.00000000000000 0.00000000000000
0.00000000000000 9.09073889950460 0.00000000000000
0.00000000000000 0.00000000000000 13.30521528539891
PRIMCOORD
 96 1
Ni 6.360862780803929 2.364337571897202 11.741572995121635 0.029737893384064913 -0.7280325427084494 -1.0583619633331902
Ni 4.810255435280188 0.3701203462839516 5.65040607631212 -0.5519801103941397 -0.3303674729515278 0.2973395959622815
Ni 2.916945412195597 1.6295876856650928 4.776199708963713 -0.6047679436191327 -1.1318590040810765 0.20285206900565708
Ni 3.6046961779706637 4.721038923062506 4.86602348254436 0.24825106596574664 -0.23120516622705345 -0.1097735065814174
Ni 3.691667277663609 2.8930276779746147 2.5442496595624227 1.085028673991099 0.44473451244089857 0.3532690601400497
Ni 5.2837011206579 5.0828685154089674 2.70387212692821 0.6235359682552551 -2.032715959084841 -1.0362083100542863
Ni 5.2050207749024455 4.97300693499826 11.22104637263618 0.7240866706868239 1.0025579689896926 0.19274429114769387
Ni 5.721311113029489 8.0071683354285 12.064197866600969 -1.8526567196039836 -0.07635713590450076 2.889569511924462
Ni 2.0507161682903337 6.3266906930286835 0.21512506505213652 0.8753955775078667 0.9658876101518526 -0.1831003403000266
Ni 2.6236599916568917 1.8223295332337999 0.026398596884952767 0.5987219945353689 0.5358266405627288 1.3216151591347238
Ni 8.447687364269383 8.70438256046774 6.567068012782091 -0.5279114994807101 1.5435365860670063 0.8442065534995719
Ni 0.16233605294730089 2.5977059319074027 1.3655008096130365 -0.7578727659983335 -0.03129932433391384 -0.6264485139163598
Ni 7.06963133506965 0.7175111179298483 4.692775815615514 0.48649154177302667 1.088047663323081 -0.6018397142287442
Ni 0.6561377210189033 7.332990042930486 2.1987533979171543 1.045760729629412 1.0479978464900468 0.4039992395050655
Ni 7.629120864765721 4.027333723264351 3.9286837512210844 0.3847627598729567 -0.1933626414579831 -0.9333700971401215
Ni 7.627975431655935 4.1333226488753105 12.566270288984336 0.37346430414100196 0.16381758081101463 0.6863256498879664
Ni 8.121829826013544 7.302790608083621 9.06332675226622 0.8841653532806967 0.5156331963339894 -0.6567525642165399
Ni 7.063931441737626 0.5425643918881549 0.042493750225222365 -1.3781825140068071 1.246931297167588 2.192951478971552
Ni 2.223731112301636 6.430543294982504 9.123811983980135 -1.7333127957253116 1.1232108414877753 -0.48606011066256294
Ni 0.2622878188105769 5.058505334978624 1.2126482155556364 -0.0651944344194619 -1.3075424830917417 0.26710907921251414
Ni 6.436724997479756 2.125669311069505 6.817446054472596 1.6566424994557662 0.3784746128713998 0.2027453682244637
Ni 4.072905597703646 4.579514298831318 0.35678332314613204 -0.9019141926236854 -2.6482362561244714e-05 0.12624939274925356
Ni 6.046732295814934 5.694747973769242 4.816674406064466 -0.41763045713525493 0.8658637267580312 0.25970121678421726
Ni 5.28091026379517 3.1288050838109505 9.379738103661923 1.0757521337851796 -1.0841658117701716 -0.6897328757973025
P 0.38060287738627563 5.6123949694713025 12.240878196563585 0.024987266072956968 0.9837644904322734 -0.06943958284906104
P 3.985961770227601 6.517259853984386 12.302627040993848 0.28477795724718696 -0.9503733165663373 1.956733690021256
P 2.38084635386045 8.413960722703498 1.2761688450104796 -0.05126856836698912 0.606326289245188 -0.12974789282081525
P 6.443443053576033 8.084603249945538 5.869768334796564 -0.13313609256675782 -0.2132642654779166 -0.615015846599386
P 4.643522191894768 1.084806971616894 12.489592633023213 -0.46718435680398246 0.49917016568195965 0.2777896988548119
P 4.281992593934203 6.386780477597552 8.177757870283529 -1.4172866790971204 -0.8453329537945313 0.6105380133336905
P 4.684530515372857 1.3355840967480304 3.60699068048582 0.878679390465461 -1.448897621134182 0.3837785415828165
P 0.33421465458778504 5.651412421115717 3.5941381937349175 -1.4894837700866606 -0.8937162301939252 -1.3176541176044467
Ni 0.6267128171319875 -0.1416918938281717 4.275724529416769 0.17039394847695172 0.34088019955739357 0.6531959572135331
Ni 1.9713721985903205 6.434470494216052 4.455118444960897 1.0992378756119456 2.302557349626854 2.3028941641409824
Ni 6.2671008991029735 5.6599213527884045 8.98869723979426 -0.06345225491737458 0.4849301108231778 0.858890894984624
Ni 8.279526874866217 2.3881371265116194 9.96422262014651 0.5974248729905002 0.611286718574257 1.004648018749502
Ni 2.3804463613459212 5.172585018269809 6.939015597598319 0.8629771492388556 1.4021477665731528 0.00826429689132125
Ni 0.22089859336978984 0.3936408152120959 9.262944834789224 1.781970408832015 -0.7966943668512214 -0.37281895724751923
Ni 1.6666142654758342 1.3489383922898863 11.243359591429568 -0.8302354360314604 0.244508825314495 -0.8750867880181961
Ni 4.227311799050429 6.957260710704176 1.4827331611778196 0.11275778602072194 1.0061423439068413 -1.2690073031310212
Ni 5.778082777875568 7.921779024315733 7.944584052087212 0.14267848483955425 1.0163465381333527 0.7603788202496389
Ni 5.28467382972732 3.0993874525152076 4.9358494485464 0.6255033763942711 -0.27648563533140774 -1.1648819959743164
Ni 1.0897159706588289 7.222001210887927 6.768309701284518 -0.10697254679751254 0.15006166467750284 -0.10298168047056458
Ni 5.103059046653666 4.702693811828016 7.155916993044518 -0.1888326147981135 -0.8911461554739041 -1.2369965545523793
Ni 0.5888544347058069 7.620675568265799 11.25454938202349 0.8804585938530708 -0.528395123985348 -0.04014340498810506
Ni 4.868845247919577 0.7593939704965187 10.356380735833163 0.013210070932370796 -0.7704446891260731 0.23165845171438815
Ni 7.9371696453860965 7.3455261719653535 4.551009377727817 1.4359765421971398 -0.3862791965174831 -0.3900805725414443
Ni 7.323381131842847 6.393525805910729 6.815197005652273 1.0254335880362855 -1.57289601306573 0.56720849730812
Ni 2.6330598157483003 5.269828652994951 2.5758499772840335 -0.418154447959525 0.8436205990891149 -0.47478248086621455
Ni 2.561252068651554 5.244738213447285 11.246326808628247 -0.6060794633417046 0.3354572287696093 0.3918541195020993
Ni 1.6167061085494971 3.288265736023132 3.9070368835939453 -0.9723737320968284 1.621607362228504 -1.4909351578212067
Ni 1.7585489086445136 1.2105046193073248 2.4852280368221233 0.02051714611674531 -0.2190633886581969 -0.5779153422026628
Ni 1.4151007904884076 3.3256923083484025 8.039157736777879 -1.7625110145558225 -0.3690731170518418 1.0035717549661878
Ni 4.024997403349949 2.4235910084811487 6.805218101488695 -0.9807982087150979 1.184193808929051 0.06884720068070078
Ni 4.279356279633904 6.977105793868145 6.125002649242998 -0.36524063067962903 0.2662444172193737 -1.5387147391983307
Ni 0.5693293455534595 0.29598900630735603 13.553756354594872 0.004725430500127346 -0.4356549187371336 -0.11194660297333624
P 0.264514140783484 5.691820755822014 8.055881969254633 0.5160941951308079 0.29849813504675693 -1.194345552651072
P 8.649465406370837 1.7681578197321526 7.603970426340874 -0.20095176665915068 -0.7004340642648905 0.5339587341160545
P 2.1426508114590126 3.3480009817723055 10.204301763661816 -0.7691275129765465 -1.4114286776544467 0.5298382841897779
P 4.102641404863218 6.55985905678162 3.5894146457679 -0.3328395886411042 0.09275794586002735 2.0322727008998354
P 6.988696486050491 4.086768974627629 10.309971604335049 0.6199775614800355 0.5283997519710384 0.34031892773728484
P 6.386071399958161 7.911597396673202 10.197117352656555 0.5031697737596561 0.34312374417593167 -2.9895270608567226
P 2.511316639508317 8.561467053174672 5.834563539074718 0.6542079434178153 -0.17070248085630602 -1.5776366130745088
P 6.8906437755573275 3.9803164213293756 1.5489801032487298 0.6257633149238772 0.9673891343980436 -0.7884400972622292
Ni 5.331536589099865 2.4344453508072044 0.6961506085801552 -0.8827653876093765 1.7663193325583193 -2.0200890143494497
Ni 1.642560170170354 0.9893542124681616 6.9895491973655535 -1.2599315660819976 0.759045446150196 -0.1471203226609918
Ni 6.972005889307914 0.7673429126488666 8.87717296322657 0.026617088366896094 -0.582302672637081 0.36920141509959
Ni 2.995807572730383 1.6467055471390988 8.851547079153773 -0.4248228611186361 0.034220868856083005 1.8360466218511282
Ni 6.396834834894551 2.0890154515563917 2.54397057387615 1.8576122638370458 -0.3142985924141232 1.787924826643237
Ni 4.088141676211577 7.199865261504388 10.28265666096227 0.9806071757502145 0.975669886349597 -0.5317434716322907
Ni 8.479714037648524 7.019868629966778 0.16543326771320307 -1.0251533377917053 1.63328762677991 0.01999598350595266
Ni 7.975632561953552 3.951098786290897 8.094307613792326 -0.2609854828132796 0.037324447482071206 -0.6920041883299825
Ni 2.951781123915401 8.62079321567035 12.247250804579132 0.5095278547671999 -0.5207386358813547 0.5752110558976222
Ni 0.23900916353894266 5.092359246890041 10.05279550804536 -0.2179616709535859 -1.0027862829504148 0.49189651483868185
Ni -0.011198881332887947 2.765902784266436 5.484077370810713 -1.174300975295371 -2.4534029436582325 1.4392385007778634
Ni 3.9805164175866397 3.1788950555166187 11.501427489211872 -1.3602997201891154 -2.117445635323753 0.5148711213569843
Ni 0.8000286646030824 3.6048052668382624 11.96035071909053 0.8435133840872893 -2.0117583829965673 0.5948383432102466
Ni 3.3631461528905713 8.453914520461467 7.9448767738819335 -0.3797411382886492 0.30758107118463157 0.5844230614141935
Ni 5.88090812632617 7.918706354545042 3.4443073613099973 -0.972058514849255 0.2716236792534161 -0.18716653994960022
Ni 3.007716440776558 8.534431195488164 3.5532244139420803 1.267940038208771 -0.1711159142446408 -0.13586994655815313
Ni 3.479580337574092 4.442198686741642 9.012554066064165 0.6570760089942297 0.11225950622806473 -0.3287885585001821
Ni 7.486923525851009 6.3261997931244895 11.251249443778633 -0.4174383957291069 -0.7645170107877285 0.5052557097544073
Ni 7.828853490599701 0.018772375965917375 2.2471043112585223 1.4174532865819718 -0.13654229003482934 1.2048109709587702
Ni 4.806391871219406 0.31827313473605007 1.5058972731384752 -0.6847277092732272 -0.37007096218873686 0.12991835696040852
Ni 6.184984254018165 5.780464551484803 0.2016189541695392 -0.009170353645358401 1.0371385351780396 0.5379681123857638
Ni 7.847380416613522 9.02755833072845 11.450468442861004 0.8523291826067062 -0.33411742691226326 -2.771898347762523
Ni 0.3037934057101357 5.025069597059669 5.630448267984965 -0.6554384733908067 0.7384884479344507 0.9405740710877285
Ni 7.642129712226848 6.234374238823409 2.462263012044835 -1.7641981724502585 -0.5273697680446272 -0.3023601891053244
P 8.75441798773961 1.7309039714472472 3.39919002381903 0.14181742239083964 0.3050673036238423 0.576552143306549
P 2.1461780181780323 3.6990398669654776 1.3982847415480912 -1.3822065475645355 -1.8905810054535828 -2.2483222424323728
P 5.002288205209505 1.1671963388707 8.166168996248976 -0.37808020564645856 -1.0042633817165736 -0.08797775086256461
P 8.545567350722184 1.7924664557286965 12.259412395168578 0.9579472722588535 1.2038735467461654 0.37146681409499893
P 6.469688016972451 7.904397531411698 1.1755161831728829 -0.5793237925144152 -1.9857339339083477 -0.15520489944133917
P 2.1481052548389403 3.2908475058896314 6.032718012624106 0.12351785275070339 -0.38463291916331177 -1.1845648191152245
P 6.972869509509735 4.198721425000642 6.091220554169417 0.4728078736383471 -0.17044639898144193 -0.7060321271779582
P 2.15442331842069 8.556858048518633 10.103927278436595 0.6944703904822879 0.5355065382191487 -1.028623555728493
