# total energy = -340869.23653587064 ev
CRYSTAL
PRIMVEC
9.21822296068717 0.00000000000000 0.00000000000000

0.00000000000000 9.21822296068717 0.00000000000000

0.00000000000000 0.00000000000000 13.49180109522061

PRIMCOORD
 96 1
Ni 0.4044578326234242 8.742138700283181 3.521966841517813 1.6040590689320955 2.2830794434079 -1.3306212192880762
Ni 0.4064028776865122 2.0033411056423467 1.7841695562799116 0.47630637370990875 -0.7682993606482962 -0.24289674363236874
Ni 6.18330747377978 7.008283127220524 13.313641717797923 -0.5197065950724147 -1.252899598935881 -0.7638132998524846
Ni 4.726044683266673 4.642923966044568 3.392554051794212 -2.116509753773045 -0.3000816774837929 0.780927848045584
Ni 5.252359128181408 1.6800303686864928 8.165750867772742 -0.47559314969296806 0.8657223160841606 0.6036677685764185
Ni 6.705363099646426 0.09314184749738104 9.522499997817134 1.612553479556352 0.8763348014926844 -0.7888383611419123
Ni 6.003118867864231 2.09868518662585 13.072435849884306 -2.94903347161805 -0.6299454713260246 -0.8136777887830954
Ni 2.389750579360463 0.6428023641030003 1.9288421924368575 0.045068610203864316 0.38655533299700523 -0.44563388432671647
Ni 3.2065035778425597 3.0635658112632123 5.700839506791956 1.3917895632672805 -2.5475210030905804 0.8277093271754972
Ni 2.6701504880287596 5.060352760318565 6.706693289232225 -0.49913339890675323 1.6066260583283232 -0.4423927516815994
Ni 3.832660596588129 6.369884308267463 10.885334076895385 -1.607203270988032 -0.686324878557018 1.0150787271645227
Ni 1.0598744131450482 6.190580651764503 0.6074265113347231 -0.4933149924527633 -0.958276373463498 -0.4972582933712275
Ni 3.964508840840961 8.031054192598136 1.9253070038980225 3.43810691518564 -0.6948180036296936 -0.2723585005369116
Ni 0.3771829542695628 5.994923867574727 7.0845178318259165 0.8356674056803093 -1.988993064275594 -0.11353348784448189
Ni 4.869378833437077 4.373327814788304 7.457174638579003 0.60388682656576 -2.4426673024082834 -0.8816718974348816
Ni 0.11018542009047769 7.325288599611676 8.92108929884341 0.3793811838460692 1.5289486609505023 2.0806966007291776
Ni 4.483181378849061 3.686560979503382 9.812506216723552 -1.0133715146654287 -0.2423429280114278 -0.35349840254203635
Ni 3.3791240226358576 2.6406245196066234 2.988353407593822 0.12019418769410911 0.42337018783250957 0.8634288920642936
Ni 3.093792364636982 6.9272272919611275 3.9375418511368965 -0.9022934303399751 -1.0417240976661932 -0.2555332014494567
Ni 2.932925154229643 0.14921998558643082 4.14366961488668 -0.7267179376620839 0.9136533354374845 0.1994049909973211
Ni 0.7579554845939429 3.232793949974915 9.070362750123518 -0.24411056143481186 -0.22292518560644833 -0.4659754240975459
Ni 7.64884822858982 2.6929010625107557 0.9062444296525449 -0.061249333728784834 0.888174988660722 0.880784866844238
Ni 4.888958339190626 1.059929722483335 2.17351595586106 0.5976477876345836 -0.20175060841136222 -0.7597018487872723
Ni 4.691310418822524 8.454705287429405 7.824839777551703 0.23210350967160673 0.3151172316606767 1.5541567847850137
P 8.843953973846247 5.319735120437854 9.136242624779305 -0.2074144915653589 -1.898207411650589 -0.05780328416171336
P 6.579220935460189 3.0204982731838417 7.020714822822801 -0.057944180614951823 -0.6371178207047479 0.46278468507439
P 2.024782692451554 7.737038968488222 1.9078753441146128 -3.0501531591792115 -1.7304886960129553 2.1796079677851106
P 8.5759802298464 0.583539329950932 0.28951488761797156 -0.7068618221681052 0.35511279821700775 0.08635821298127062
P 2.235059578395157 4.860363411296318 12.761813996953764 0.36016604437019906 0.048958946397206 -0.2605381108632158
P 2.2648713117317754 7.061389310198959 5.967207436336876 0.2869083733266285 0.722863082692368 -0.2722484573216085
P 2.8063773882293015 3.5905624046834843 8.227246555546989 0.13895064236600585 -1.6625827761996013 0.34247634039991987
P 0.7052309360496867 0.8770429426816911 5.410833287885536 2.0640183687425484 0.52598754298512 0.4718318828783229
Ni 4.115125387219135 5.80192193162272 13.125242440613688 -0.018015976961446394 -0.06696232495316211 0.20594073523330986
Ni 4.4831537241799175 8.165188556166825 5.498597224056824 -0.7895639264540273 -0.1556479005160287 1.160354283307292
Ni 8.630211036036668 7.573295672489967 12.842252211268956 -1.2792942868793258 -0.7208488804758166 0.7541762909833528
Ni 7.7918136498383115 6.10525677923397 11.047046598356207 0.11029466919221005 1.7622744730649842 -0.5628054831444178
Ni 2.21311098931832 3.662777964040031 10.897773147076098 -1.2500140498579697 -1.0572713013721728 0.7422975372678958
Ni 5.660661881638074 7.791288211124587 10.58507350667058 -1.0258647620364332 -1.9190670287084177 1.033886089679013
Ni 3.5755274828925057 8.301498420374797 12.62178273610139 -0.1979302062240075 -0.8369629845632811 -0.6432319040222857
Ni 6.7523115096289255 5.174538889211793 2.498668493781867 1.2105620145099345 0.580555093818355 -1.6682726274955268
Ni 7.28317053850623 4.188364169333989 12.649386705018058 -2.1700663468432624 1.5052556882089367 0.858516799474657
Ni 5.559030972535965 6.828288103988978 4.084898833845365 1.4768406274013532 -0.2901111965346423 -0.9877754113638795
Ni 8.261039639417957 4.303942249907435 6.508606581447047 -1.5510010127648513 0.6914560291359962 -0.1854449292728032
Ni 1.213182680653183 2.4832233610652605 4.011342023035362 -0.17315299927932762 -2.2879264870875566 2.358199878691823
Ni 8.13333959553664 9.050174841648815 5.25946822179588 -1.374063606742427 -1.8437280496557857 -0.592317890781238
Ni 0.3669120101496925 0.6287362775543464 8.950016082767439 0.25651536285706794 -0.25045655825749774 0.4913370427907861
Ni 8.040327724984232 3.100217466101306 3.286454148158524 0.025455721068943254 0.3698364775804276 0.5297120430245587
Ni 0.9110203910136155 3.137818597913325 6.675675812320953 1.3842210068914031 -1.4841165922374764 -0.3866733466321083
Ni 7.3450801244953245 6.701804865549972 6.041344995198891 -0.10718183459484121 -0.20518817333800143 -0.5639185137029386
Ni 3.0856526736857655 0.9379265404455646 9.020267238792497 -1.706111038499539 0.8405915824548039 -0.31351414883961487
Ni 1.2342831932096208 8.523676032273123 13.672861120814218 0.7712939245002458 0.9919699090612013 -0.37673011937646733
Ni 6.9497658473130235 8.55871449807785 1.2941850502189025 -0.3779621920113555 -0.8197592190904849 -1.7224146607555693
Ni 2.642873766030289 0.5597157543061708 6.806168055963452 -0.26719701094063014 -0.021065819531363716 -1.4401810671967907
Ni 5.965370244483447 1.8751801506086387 4.171206290775099 1.3095733974788415 0.6553659682816585 0.35119135167541454
Ni 4.057207291809743 3.5597458850346544 12.145602519054478 1.2479281138632186 0.0407283309572976 -0.666919734557529
Ni 1.490107319232455 8.36223729203682 11.228335860103666 0.1951647276637284 1.779301346640284 -0.20432993910276423
P 8.579815010634288 8.286279134122863 10.85329061175889 -1.5363830057413606 0.4042200972666199 -1.2867342880971386
P 1.0904973501098745 1.6967706617413165 10.870277031369092 -0.7684520841760765 0.49227960920971353 -2.8531642338225507
P 3.37919776842024 8.401027574622006 10.199976707914471 1.142179412170478 -0.532067944851245 -0.2557563732038563
P 4.804869708548501 5.899902424397897 1.635853878374471 0.9804050870417375 1.138838006502071 0.2612737034776597
P 8.080224194335157 5.01402197128027 4.151872911576926 1.1774230658641205 1.550052532808653 1.8228180389759963
P 5.929916958641568 3.0954239901164446 2.4312630032116678 0.4776222643078548 -0.9941571465205072 -0.7260242540291689
P 2.2770485843779333 2.7388999955193296 1.1307017081105948 0.5438255996078054 0.6625897397236072 -0.42465393964093956
P 7.188010821983684 8.341726745755441 3.3619136002055954 -0.1740711402182228 -2.056954777027548 1.9648012975207387
Ni 3.4824234301096206 1.44377653019416 13.235794745981469 0.9813733644922775 0.45412520962717917 0.15179973041453212
Ni 4.538767263827357 3.6647045726570235 0.8278111788502501 -0.2750116218890425 -0.1178017762025326 2.0106489519824726
Ni 0.45547885354844525 6.713097188783539 4.397949688549006 0.41429959298980906 -1.970562625484548 2.471437432562441
Ni 8.685372882754766 3.945261191117133 10.999541407701622 2.0188260884766263 0.42261376928245925 -2.6862551585704058
Ni 2.7369272957870985 5.304183978156198 2.021989570868067 1.6266678074705467 0.8596480848656227 -0.572875208675594
Ni 6.122789839470905 4.3579794734137 5.283105589335076 0.6252588644836329 0.3222278745635289 -0.10012672752027271
Ni 4.530867246675384 6.10391091866899 8.785968585408606 0.41137316337163343 0.33701428884408413 2.621869850315801
Ni 2.2249471877117086 5.36000031871069 9.371634559416668 -1.0285009141076997 -0.5504107090244909 -0.446656669164276
Ni 4.619528115949224 0.9895762441824462 10.684063394869492 1.3405533908001235 0.41743556751562944 1.452898000542827
Ni 0.5340872505886484 3.570549642446688 13.173030630715843 -0.30568076883812517 2.391253980933314 0.8328461341814302
Ni 0.9970798777433638 4.191267909594049 2.7357464414146735 -1.5708126481741398 1.7655973667906302 -0.23441955939929307
Ni 1.2057251382075043 1.5123508914468218 12.868547192512837 -0.06655866175684022 -1.3381442671379986 0.8151790559189702
Ni 0.5768109489483352 8.131938425633372 6.70462932909182 0.5476776263640438 2.6031689314721875 0.059451361288097616
Ni 6.776702927813431 9.196855206785573 12.191002267564944 0.4639113424796655 -0.18562413516314483 0.19578127820180477
Ni 1.0979917654477442 6.1721995150071685 11.456549564453699 -0.14151171822496275 -1.3378627313418379 -0.3162258913438231
Ni 6.651224475686636 4.6206343027149614 9.366210556975336 0.425682380905454 -0.5433234631604063 0.4030327618267381
Ni 7.984271710630498 2.099837464506826 11.988828199680366 1.444730120020054 -2.1807425956101865 -0.3996995836884471
Ni 7.004393037094348 6.876130681607115 8.494127940115671 -0.6258666732709608 0.40395090276563334 -0.18123551917714592
Ni 6.301439002137471 0.5565373109992858 6.389662927638844 -0.7913289887742501 0.3338142938495477 -0.057486267141926804
Ni 8.054846426284534 2.1188177857622676 5.602646073064374 0.2657145128578327 0.8638125006559575 -0.21051395642628903
Ni 7.66813275120584 2.1686238448895874 8.887737767856432 -0.2135368024130129 1.2543988091892266 -0.2720749078582217
Ni 8.741253750870593 6.939091145023659 2.4009470330743334 -1.3710723853245872 -0.9948495446018414 -2.02441978051432
Ni 7.650793273652909 0.9651110802135574 2.5715376251525033 0.3590116190507817 1.4598530917044212 0.8960433356652051
Ni 2.5480551237605114 7.266291972105689 8.317655199910694 -0.5097188877320835 2.4407096644612802 -0.9729877115317437
P 4.413924869090861 1.2180683388685225 5.321692149190905 -1.6425531112422358 -0.8725102855402715 1.3571375204110498
P 5.099355062033851 9.198744942510373 13.749629560534078 0.7389162795004888 0.7257848843248533 -0.35209586576755486
P 7.84751937171623 8.832753832843158 7.6251610826461675 0.06613108730111836 -0.10886770693769637 0.3468204763012285
P 6.194277159206675 2.5915559183231283 10.638743844899542 0.7562491143519815 -0.7985856703366634 0.02401281797482961
P 8.119742716541118 5.637007921297393 0.45872827717279835 0.16279659574566802 0.8275257504097813 0.8352789119926388
P 2.6091903790135893 4.465205843905831 4.394306646800511 -0.7686626575249859 1.664016166212018 -2.159645922840887
P 5.112048555170686 6.430189923446238 6.941059235644367 2.265256042073234 1.4610345136070322 -3.483723427473174
P 5.81526991859595 5.484556948532704 11.471269223016442 -1.7027909729873705 0.23473940463255702 -0.008358399267024315
