# total energy = -340895.2366218545 ev
CRYSTAL
PRIMVEC
9.03968900932470 0.00000000000000 0.00000000000000

0.00000000000000 9.03968900932470 0.00000000000000

0.00000000000000 0.00000000000000 13.23049861091981

PRIMCOORD
 96 1
Ni 6.385735542788347 1.8626549781899873 11.228326616821747 0.8788184871464864 0.6895868371377414 0.29132295745455633
Ni 4.587967450173662 0.33007880950833274 5.9832940251398234 -0.6619279377698923 0.10655551386475197 -0.06127915852545575
Ni 2.7093031832745824 1.648486673223415 4.623159862298656 0.09711442305651016 -0.9524281422128371 0.6987821304837643
Ni 3.358190118405028 4.429140119502436 4.7237770214773205 0.5100593017906376 -0.9320053555821111 0.5195276462923891
Ni 5.3727028272692285 4.519057903121484 2.7494430170316972 -0.9619823615601756 0.4426053819130378 0.39647542032419464
Ni 7.2779980171140926 6.219784937412003 2.5775922068329797 1.171277615088015 -0.8789940934924022 -0.2748570985890492
Ni 4.983146481910901 4.539813028404418 11.687266188920765 -0.3341590787834761 0.011288942650257977 -1.127251587216052
Ni 5.656377298742976 7.804008463581249 12.42657351436265 -0.6699258683737044 0.6292355897431937 0.4200532076441347
Ni 1.816769518287475 6.483083950528725 0.40579885803619015 0.2659765082699677 0.9857470680799411 0.13593139592370782
Ni 2.9397971660551696 1.544186744863449 0.49972031978581843 -0.27774059078443136 -0.21343395828656145 -0.6005788452384495
Ni 0.44400962222214757 8.9725057455707 4.955840294218325 0.2703363279005602 0.8926451086169337 -0.6407330488598321
Ni 8.875419488802974 2.2547876348312568 1.193934966025241 -1.9711089849063212 -0.36118522966333283 0.5297444389243908
Ni 6.828165027423623 0.8440031921674407 4.909850877895623 -0.12160752310186801 -0.19988064508215897 -0.7888069936833447
Ni 0.889223330980744 7.4652822878509415 2.9082622119830823 0.35475027267126646 -0.21399214478287665 -0.9518709841577865
Ni 7.565125649675854 3.876751861373432 3.751930935668176 0.9536612432889899 -0.1510710797786237 0.008185106913953646
Ni 7.472821388236816 3.788397943901573 12.606666712729043 0.7932231204731693 -0.3941511430663921 0.17632471213908987
Ni 7.89306747677265 8.761465172898507 6.958196429702522 0.421669403091319 0.18755014854126412 -0.08766304783562322
Ni 6.805430210312745 0.8584178797877217 0.2635683958403412 -0.33386545880245727 -0.261516158505769 0.7336570879840785
Ni 1.7432226109260016 6.596432607289481 9.087433635949457 -0.04225505201446916 -0.7714610462057294 -0.19399821815945298
Ni 0.28492285248488514 4.7701262174107635 1.1694130024559846 -0.807906690627273 -0.07323427400480291 1.2033858084764695
Ni 6.283876330380642 1.8604854528990886 7.056710957286756 0.28878142197962525 0.06001186177725794 0.6072899387100379
Ni 3.157509028996877 4.380868181779935 0.20539257516488643 -0.20584380464412938 -0.3958838094867827 0.5918610057494774
Ni 6.168493743659667 5.750498537613141 4.728130535561059 -0.15352725462860012 -0.9670878011075409 0.7602163265298455
Ni 5.169716617239498 2.823203261046776 9.385662910218525 0.12435603238128262 -0.24184156289497705 -0.2886785778531738
P 0.1627993698913132 5.533148262219916 12.326272744288907 -0.02245832900351616 -0.3136553024031695 0.8504522772989677
P 3.92048587536247 6.305707178620313 12.556444010182474 0.2698172221722966 -0.3197958680832686 0.21363990364978047
P 2.347851230122109 8.489867725544098 1.3110459412279651 0.2826231156877133 -0.12335767302375529 0.9021605043065367
P 6.254063437008207 7.915250872872092 5.716845584475813 1.2441012839179606 -1.1660554474571272 0.3430034165479835
P 4.849458525547967 1.1588067356901024 12.489920940950284 -1.2661446368712452 -0.9693848246718337 0.7525498111235233
P 4.186668549178345 6.088185149141559 8.079905186887123 0.06431871668272794 1.00913896464132 -0.15827762482939195
P 4.610069489074695 1.1136263715071322 3.7343342776212434 0.6963856052271298 -0.2136818126313094 0.11738680015230106
P 0.30822897792236686 5.463985603883801 3.504388099976608 -0.5567628764947637 0.46626673008571956 0.01926990397320552
Ni 1.424998449194689 1.0375121925514281 2.6179580328078966 0.016544791732558604 -0.01911486645257998 -0.04240134778434634
Ni 1.8340172443501217 6.433130630705777 4.936431178584621 1.1400533669664108 0.48664812195554896 -0.9994729023064657
Ni 6.05344562542104 5.7400938559055374 9.308250631963764 -0.36242912937276295 -0.20449294704318977 0.2766365590869752
Ni 8.735313353454464 2.3322035289615 10.237256728997496 0.36688665092348427 0.345209937280999 0.07272391002728765
Ni 2.594869763868376 5.128477557334993 6.983851066267402 -0.8884621808838375 0.3389562430618034 0.3528502274350762
Ni 0.3277745928556238 0.1463742555014659 9.091654266609128 1.3750753358363932 -1.3797863681588174 0.3455295254039468
Ni 1.4486733939316236 1.053295489042718 11.687914334601421 0.991741595100479 -0.25751500776617586 -2.0875755872371986
Ni 4.149235198221626 6.802528470236168 1.5737673182359846 0.2981356095010156 0.6822931316898057 -0.47548439202924564
Ni 5.786449379621079 7.871336065108813 7.899228928598803 -1.6485023868471351 0.4157088146325098 0.5817930799905142
Ni 5.164021613350887 2.847031880491816 4.92822856504728 0.11658770128977342 0.30617802018951784 0.3093916420308091
Ni 0.8726490617271474 7.319842736162306 6.831250273181055 -0.4291184031701965 0.20866816146680195 1.1975033815537635
Ni 5.438918547085206 4.382260293841595 7.38350474391712 -1.1831381139710269 0.02835541121424149 -0.6340456095373274
Ni 8.09330562143391 7.0521323549540895 9.231619382813728 0.7390803158821787 0.8411960488080222 0.08708994894097259
Ni 4.400041361538253 0.3326768160441842 10.34078557191032 0.4685097604836254 -0.4888477007100291 -0.02355953248749491
Ni 8.286583205786867 6.906475850736362 4.964546418416928 -0.39924398420826723 0.692019357838634 -0.8760357821950266
Ni 7.231045873943555 6.118612741346417 7.085143490192858 0.3823176407665738 -0.6330040556466905 -0.6576102842311449
Ni 2.473186514115082 5.255584620315534 2.59913107312725 -1.0525463850926777 -0.32011674175779703 -0.8409250545348227
Ni 2.2750817359898736 5.410570083284127 11.325359539426072 -0.5571336295706211 -0.4950733699047668 0.7151330610379619
Ni 1.173432952026246 3.4869514444198795 3.8243017795282084 -0.3169820527835573 -0.7873651190304956 -0.8720348885657497
Ni 3.7240534396489964 2.927611665671287 2.621292773973783 -0.9551907925596388 -0.8633026508990744 -0.12605270335741517
Ni 1.0564864991580818 3.419479207872923 8.259045602063262 -0.41515808433536244 0.4156157406980713 -0.7611946312827148
Ni 3.5297091720280123 2.8854595972068635 7.387764245238252 0.4250290635921713 -0.5438731650162891 -0.17780746733220346
Ni 4.273377243304605 6.708497628253123 5.835853990339203 -0.5704979666926692 1.022063643122788 0.9126634607203895
Ni 0.8749577982242123 7.35547718906532 11.452504569099206 -0.5466052192354716 0.4959424027732813 0.03199120819461588
P 0.10468140322361574 5.561966789834024 8.041179160444578 0.179278138340459 -0.6911428687709517 -0.5242047400530844
P 8.487960351225848 1.675777493445181 7.955352739936616 0.023294708861882462 0.8438699960957595 -0.9368236029063608
P 1.8620131602914298 3.5119823424636256 10.311770883051162 -1.5974551904623326 -1.5507575292954776 0.5913367578148913
P 4.093270485405146 6.117853407494602 3.704976080591025 0.9267456498450685 0.515736297570757 -0.11227081908197438
P 6.791310216544478 4.065988704872091 10.561060186601903 0.013563597617047608 -0.5587323415163087 -1.067621020037613
P 6.265652317937092 7.859448874452429 10.223536289470301 -0.8676974375326606 -0.7345135224471028 0.09439856678724388
P 2.467048565479581 8.536132852372518 5.7425128766048905 -0.6091341910076283 -0.1429762185856312 -0.58233661119881
P 6.965938923084417 3.954176795192388 1.535081970392643 0.8423476459139622 -0.588185099559787 -0.44677159747558537
Ni 5.063274282654768 3.0134435099924763 0.4519283895339286 1.0829357960178123 -0.5282745392470838 0.34753421453880146
Ni 1.4846603946944095 1.2305818640640087 6.948803289161801 -0.3394727776869057 0.19066863956558774 -0.10830129291126508
Ni 7.079658207082369 0.6276870571628782 9.270901350112068 -1.8851066126025728 0.30554295770868023 -0.6701737227184522
Ni 2.472336783376147 1.5111466826208007 9.279897648318329 -0.23223335038125165 0.1962762155603523 0.207250712293985
Ni 6.3583091272359 1.9443918435246048 2.6396035674289693 0.5969877854530815 0.21347586726809042 -0.6125673850588933
Ni 3.975356785844789 6.799039150393305 10.249745962922104 0.513914670980986 1.2703815577707283 0.2628263926767603
Ni 8.07535279965172 7.1358760311827885 0.333741691374467 0.4498474081874317 -0.6416537609018885 -0.2960383606523546
Ni 7.4950861415346655 3.6493856108872245 8.405123355774972 0.51302712616971 0.3408349481417549 -0.181113648887301
Ni 3.154742884250981 8.422395488997141 12.399159754374399 0.27021985692735395 -0.27148381124144216 0.012786867352023142
Ni 8.95594503585017 4.829336178474879 10.233552264563286 0.18037034296337323 -0.10417852899214315 0.03071928346072774
Ni 8.655330187729989 2.436756568605405 5.600046478533656 0.30570519431815735 -0.26263381704997996 1.0524281143472585
Ni 3.51195522339749 2.560826296178687 11.340416044944911 0.17592696248003895 0.34859325193093516 0.42728289262335445
Ni 0.9591923295499768 3.291395858511477 12.51206908226375 0.41846606566267286 0.5533029429706213 -0.9341648251272751
Ni 2.911575257896059 8.463688787033917 7.885866460744609 1.0696624759476738 -0.6034019165095414 0.4198318356619479
Ni 5.782101289350568 7.86715068923512 3.56023439287096 -0.8314358840974648 0.8029673443441269 -0.06132800948552019
Ni 3.222242239864074 8.122756927257862 3.5839301288919327 -0.30284895581628485 1.0267502499651802 0.17195820764027803
Ni 3.4265934428893288 4.542479736574481 9.431122600782697 1.2512358380802129 -0.12524023475844884 -0.9240866149556666
Ni 7.1898158537277626 6.1732938183657815 11.540514074431133 0.23516980730175627 -0.7271668522740444 -0.8372460630213386
Ni 0.4838312589365974 8.936699538582156 0.1939383855978113 0.4133441710550752 -0.2191793454107709 1.0808645153110803
Ni 4.6300562408171 0.3047170588577242 1.7427606828328142 0.20026605344603576 -0.3612669907438617 -0.9462788347819897
Ni 5.966293986547887 5.524777510472531 0.3830414417035316 -0.16896544356054125 0.871497528005041 0.6761343111772613
Ni 7.98303045883526 8.686851582269009 11.287506746913115 -0.17187336123595562 -0.025495573167943184 0.5781508552522366
Ni 0.25678953327515325 4.900297734864698 5.774120148186674 -0.5684549681207113 -1.1205083549549477 1.1454740237613497
Ni 8.149234175495542 8.806446663929812 2.246208066274623 -0.05995349773549675 1.1595739534978418 0.8834937811349688
P 8.45922318081015 1.6036317378340796 3.5345544451776867 0.0828748824183605 -0.16359800860104085 0.015146625833451334
P 1.7700072085798912 3.039089106868644 1.5276332668938901 1.0702458592549697 1.2863090276342621 0.27749710731505756
P 4.456873884471094 1.0529339014942347 8.208254303096705 0.6580306595980151 0.1957188003949855 -0.2758737127790217
P 8.484290237608745 1.4861338639544783 12.277531646722249 -0.25481329256429663 1.3199853368407848 0.39750334736807674
P 6.432561130316915 7.926686079092872 1.4309176373633583 -1.54652292238884 -0.3407678423492454 -0.5374441215614938
P 1.9394380941103853 3.1893196935746824 5.959003477601596 -1.1341665691683307 0.5720043760348664 0.19734116648975691
P 6.915181070966094 3.8062965275514897 5.967219650672004 0.4061728501176166 0.6970072979715287 -0.5459192489120405
P 2.153488883123701 8.419918614290031 10.13190186896483 1.395493494481429 1.3977614645799992 0.32427344423864796
