# total energy = -340860.92549215065 ev
CRYSTAL
PRIMVEC
9.33367856558617 0.00000000000000 0.00000000000000

0.00000000000000 9.33367856558617 0.00000000000000

0.00000000000000 0.00000000000000 13.66078204342545

PRIMCOORD
 96 1
Ni 6.866852536064726 8.280904813960419 10.034841124127503 -0.9527179055391141 -0.8552473846947658 0.7793034250682837
Ni 8.924965958408698 5.710045768605226 5.596207559975822 1.3791646754144182 0.13645101587260372 -0.09015727501238667
Ni 1.0614072405131507 8.844033632985374 9.706599922294705 0.7778798052478797 -0.8245178168213929 -0.31178328219143725
Ni 7.873564421142439 1.937708970958794 6.912218879937413 -0.7499447694005084 -0.8791280479671054 0.9956751258269303
Ni 3.8853303083804605 2.452377331720816 8.212452549928344 0.8089875823962777 -0.6460241220554424 0.6558750467075931
Ni 8.723554512172981 2.6445857710522085 9.180018054420431 -1.623340542869527 -1.7106145827968475 -0.0034241951902005546
Ni 1.843093472998209 4.1709408674801844 5.1612889475835955 -0.22539318753096668 0.057837222723442334 0.07484327036313562
Ni 1.1906693527017806 1.5482892406725624 8.546335026987283 1.3234470701371401 0.06793934415445073 -1.3463777107913844
Ni 7.444075209476629 7.1634301672867435 7.31969274435654 -2.5156403523318995 -1.233912516310417 -0.193094475398261
Ni 8.59127762186052 9.355145862276252 8.153423567610881 0.4774620845809068 -0.47746131324995833 -0.32011699886811323
Ni 7.409727272957446 0.6234355819156464 4.715660872592971 4.723569278548891 -0.5765290033780974 -1.3050662536371072
Ni 7.178382720086669 8.854954036715657 12.946937585122372 1.0006278418465153 -0.26466164611328613 -0.2082192468548414
Ni 7.659440504923264 6.898344366992911 3.7414283216183692 -0.5304998290331767 1.3387230224596043 2.1020282723274186
Ni 2.565604184414893 0.19149534630148354 0.06053263790801796 -0.4329020385823447 -0.8573222649459235 -0.9333752393464441
Ni 8.727287983533762 7.112654956780125 9.116304498913028 1.2951279114774727 -0.6575912580677513 0.7122410842021476
Ni 4.229155019673158 8.127543144137949 5.681970063972155 0.8582185515079478 0.16066926499002007 0.11488228856289247
Ni 4.843553734160034 4.04418951478168 12.920626879075108 -0.71755658287779 0.04452996409157492 0.5499566522062077
Ni 4.976539984031043 0.6889850719647135 11.044987802857134 0.9777537654618192 -2.627653032656481 -1.0147874211763492
Ni 5.681475379016852 1.481208093997735 5.194143495558466 -5.046508577357147 1.4046679618918456 1.4369335067937703
Ni 4.360918557673511 3.8567319177568806 6.110686447066284 0.7432105360004685 -2.242675585669557 0.1811355032641719
Ni 5.690893060524422 6.566224088416261 12.495722370240337 -0.34167801286834054 0.6600626024263794 -0.06529830698717787
Ni 0.9686864792681619 8.018199101659084 1.1332765642081792 -0.18125685933338462 -0.029481297288568582 0.18130853850692644
Ni 8.745759333091224 8.133106016465513 5.898685009315712 1.8577279634793038 1.1566490665415627 -1.4117891463176588
Ni 0.2897463119996288 2.073317984460751 5.471716824186269 1.660686844728469 -0.8375692506887125 -0.7323185716783129
P 4.96552624351674 6.2506710890030766 7.76812185623559 1.616409105857016 0.6517736229447099 -0.7612103150119987
P 7.689634954553578 4.930543616866225 7.080478967225077 -0.3187401731252446 -1.3245292474577253 3.392695062709744
P 2.910679608613451 3.9557529119231867 10.59205145767778 0.3045260864083916 -0.49151522023986316 0.305786441178054
P 3.697975381818083 7.440565746397495 3.71637486205185 -2.075513513866342 -0.023056881819463516 0.033848573118328805
P 0.8965446121637962 6.1096298746711835 7.806672748139172 0.8533835920131496 -0.12232666065607964 0.03834877498152751
P 8.678444844456347 1.8540045430500904 3.442311929871021 -2.4183919748006866 0.41391187063308715 2.430255816117808
P 4.778329989487196 7.765088410754956 10.792345662608785 0.1868803761677491 -0.11310925582286974 0.13940212808112765
P 2.8437851355066632 0.7931451894591345 9.801378759627323 0.35891031758622705 -0.8455183303324599 -1.4450551074596403
Ni 8.633372511453322 4.564672757188117 10.062040396358631 -0.09931837268636443 1.8929502770167075 1.278968785219107
Ni 3.0891488733371713 1.8207113121903284 11.576091837917152 -0.6909747186242036 1.4825569610598401 1.9187926920011082
Ni 2.388740312376309 0.08816312608131577 3.022871356372752 1.186785738025943 -0.8405956962198621 -0.09437876929290198
Ni 3.299548651873968 5.845393439111929 11.738736784278204 1.416296033049077 0.7100240219461708 0.1296519906728993
Ni 2.8215989819452236 1.389672709909794 5.159526749101308 0.1766990647593731 0.671672932971798 0.48760611499344414
Ni 3.976940361895617 5.622337192662085 4.780358197803939 -1.0474216622716026 0.5075501622155388 -0.5153395763529706
Ni 1.3671038755338747 4.484067110508862 12.077538109854972 0.5952204091400136 -1.0062750128299638 -0.016178152421759236
Ni 6.705006552574882 0.9244495104821113 9.0995290787212 -0.4825387277728657 2.6935738037190067 0.8655472239588772
Ni 1.2737764251927592 2.3979619866374375 3.209805334039202 1.158021264298741 0.9938437290451464 1.3755934131233922
Ni 3.0004789285186293 -0.18774134084821856 7.583714505312549 -0.3619100236444993 1.1169761734319732 0.17924908487473645
Ni 2.4814984083349056 1.7882114439947325 1.462345663315231 1.4562946849292016 2.4698317786382176 -0.006478665745808198
Ni 0.7287708095208731 7.008799117201608 3.725090650943593 1.16405692896986 0.8416251659256409 -0.6765629140742478
Ni 4.52594732549842 5.013660023035605 9.606876102144732 -1.7556669950507957 -0.48243022721945944 -0.4618459753102046
Ni 3.4072032985620795 7.228532574140356 8.825534282392706 -0.05391629040248133 0.8408201535258423 1.6538423110028098
Ni 0.8461838169782253 4.0794521517842535 1.019522358684392 -0.7362456746468611 -0.8016820498738 -0.10863862164602581
Ni 3.3777462095255197 3.3694579031045864 3.2297094032313636 1.2548176418942003 0.7230489734509289 0.47199257682590323
Ni 4.975727954010073 2.726022115109238 10.378669568891562 0.5528565994618221 1.8520080302763913 -0.13837677214040683
Ni 1.866857018209578 7.172903850864724 5.8824005406078275 0.10761995057352433 -0.04085971432883931 0.8513657902521725
Ni 5.543756954196054 8.203360613797003 3.254476318870943 1.620091954025242 2.19516185635931 1.3315468164261388
Ni 8.468101067989963 0.6809655754817566 10.65124284599944 -0.6674766355022634 -0.25383678758364026 0.6893770351197804
Ni 8.600499296121649 3.1471763519621057 12.762844779161476 -0.6670454615021157 1.5145908495669336 1.0574916449130949
Ni 1.7893501527597706 4.087665788777971 8.748310227398477 -1.3350597146754042 -0.34409433561931707 1.2090730886692338
Ni 8.24481147958007 6.127494535132519 1.8176078641216795 1.7049167610811218 -0.5502194189492912 -1.7693614618187528
Ni 7.820829138171412 3.58309646804686 2.1199070402040934 1.963702665139921 1.5174640573496705 0.4287581916173003
P 0.29952894033271443 8.37158149963538 11.679381123216674 -0.8993199495339479 -0.5936234969665388 -0.16144856635820584
P 2.284212447952851 2.810706579250146 6.93597495820606 -0.6960675597660787 1.0083763754436827 -1.4953114325120311
P 5.883185502961432 1.6789420709430833 7.346317995365947 -2.7041778044870974 0.228602952717516 -0.013687781899737718
P 7.16599692884728 2.6210369004440843 11.14988901441667 0.3118244198420178 -0.10093045436849069 -0.8346127391635497
P 7.762101633666331 8.739291093958672 1.5110599976306973 1.4696875612963398 0.9104487124572579 -0.6947992345766163
P 1.8683410730754884 5.154477229085852 2.9707688967973764 3.643837591290673 -0.5876657367212073 -1.31087386145782
P 6.61575791969542 8.200168495783535 5.238022051093881 -1.320785721254893 -2.3260281790552844 1.4767007593893795
P 1.6166304339316533 2.322872543893735 13.23788514153233 -1.413790493018404 0.49894365149345044 0.42494318874658427
Ni 3.7978177396837607 8.280466131075526 1.6628722768384427 -0.24299213155965246 -1.7005908800122584 -1.2626829035748899
Ni 6.895814940145982 4.928144861516923 0.3807674104076222 0.16032653693862067 0.08533157148896917 -1.101924164194857
Ni 0.5425891263336207 0.05302836047284874 4.1256650602879965 -1.5782040555422046 -0.14565325119716205 0.5490092006912739
Ni 5.622775875546978 5.904568960180303 2.908940744327168 0.029376139169271988 -0.6819925697302512 -0.38352374525953303
Ni 6.454182612879233 5.1887224951426125 5.5533669094787035 -1.789174382779622 1.7574413133423992 -1.4059825669382109
Ni 5.586262525638542 8.644227579434792 7.836384646596105 -0.6891433218424196 -0.3171244918986926 -0.47435593485175725
Ni 0.01727757208985291 3.57348277929285 7.120259104574196 1.5676216520406678 2.3607907793474507 0.537624613003416
Ni 6.205486751859228 7.407860537277056 1.1467310616245927 -0.17989443176821923 -0.27145295800350666 -1.0617931005019263
Ni 4.915003042326974 8.964643425295394 13.025842635596792 -1.6799860592777132 -0.8411114595140159 0.05038539443108742
Ni 5.543635616376828 0.49046333256224073 1.3792469911348142 0.5879146195072197 1.1257302654755195 0.06170647587086146
Ni 6.2262635199819725 4.692973500501346 11.218890098738779 1.5298894275972168 -1.2195791304068804 0.270705795424837
Ni 0.6573840369992254 2.242294898249686 11.280404639614682 1.606928934280723 -0.06768223383832216 -1.7586255634584878
Ni -0.00378667332767183 0.6914146284527416 13.128681104229496 0.35428901676413177 -0.7377633968429681 -0.8336981977690804
Ni 2.5631307596383754 8.465067622509329 11.743928176205369 0.22706774701991217 -1.2168308782377817 -1.5808245238841871
Ni 3.114340471344039 5.32232476778815 7.454538262965217 -0.5841644084361681 0.4340608347771363 -1.6269346879786883
Ni 6.747297449414126 2.485847902470215 0.30074791873200934 -1.2187574058365331 -0.8182065298913843 -0.2540036521788077
Ni 2.9195652704521096 5.092940287381784 0.7007763078898992 -0.7623197460260935 -0.8610009993490915 0.46581267326743653
Ni 7.961534340080835 6.63230653150208 11.383297243582119 1.139242183919025 0.08831482248700918 1.4071277362862478
Ni 6.329596673569981 2.1578437760688263 2.844147282228659 -1.6966473219834781 -0.4284763987108233 0.7557068686952663
Ni -0.1672968516765834 1.4561565011668967 1.6065901960746738 -0.04860027750620662 -1.40680480572919 -2.623552894445178
Ni 6.499142941741434 3.7289165257205528 8.677752285518922 0.4019554696021594 -1.2066984177894702 -0.6525305557153923
Ni 6.527013305449662 5.925355061981449 9.398959082062854 1.6466537636741705 2.213031794661195 -1.3743307443608848
Ni 7.478693822669468 3.023841125558715 4.835479168974506 0.013909925212872817 1.9874203204718353 -0.3190253084658312
Ni 1.5477665546820532 6.365017983105387 10.21411215182595 -0.9516789227516383 -0.2006146950347061 -0.47055481593811216
P 4.878256350458491 5.726743719266318 0.8590502926553159 0.973796066365652 -0.6052842211339189 -0.7232955422440962
P 5.495072487651473 4.09091390886185 3.9483625053645213 -0.11529906438533691 -1.78391596259416 0.4478406621700481
P 2.801643577521851 7.019812857715911 -0.13334652985732406 -0.7919424539885329 2.3697706142485573 0.34207859074086894
P 1.2765485276781388 0.17528181354945316 6.238086490413725 -0.636230275893472 -1.3585002050865314 0.570531648144082
P 9.295316983719742 4.99431130770836 3.554521411619285 -3.9616382833207835 -0.992003333402298 0.027496662758372
P 4.384532764030449 2.0064795134243743 13.468014449475174 0.9083010699866356 -1.4756628050431684 1.0057841892364743
P 4.280667590773529 1.2099994006722228 3.471559944511377 0.03830069535241146 0.10896206642371557 -1.206342062891316
P 9.222262282867666 5.477571840647814 13.126713564822364 -2.183804265254645 0.6114960063715855 1.1071193352425515
