# total energy = -381169.95341814536 ev
CRYSTAL
PRIMVEC
9.23348337241951 0.00000000000000 0.00000000000000
0.00000000000000 9.23348337241951 0.00000000000000
0.00000000000000 0.00000000000000 13.51413625033632
PRIMCOORD
 96 1
Ni 0.5259004372593206 2.8396655033329607 12.60094595823989 -1.1556517356253 -1.3701190202723823 1.5188563097115069
Ni 6.981252174546351 8.326136740966836 11.413377789619968 -0.0988072373779008 -1.8617735943035874 -0.8429994205653482
Ni 7.2309625012425105 2.2562293839367853 2.693367421345387 1.781588600012564 1.3342012233298508 -0.543335033124632
Ni 7.070475325221731 4.381066298235709 6.410092894758785 0.0032192782682460685 -1.012111674116399 -1.12686386485933
Ni 6.854624182373924 8.763397583705457 3.7462403032937512 0.9562058640877146 0.2933667273574625 -0.3994537862262282
Ni 0.6773221792189288 2.940125803379337 3.4959445737462196 -0.42472644475008786 0.7799544283887212 -0.5558804738898103
Ni 7.363407587994828 3.5273568844776326 11.637563074638903 -1.3537233525231782 -0.07457381875183286 0.018443808527484364
Ni 6.756453786225664 3.7788492734815984 8.636668023214968 0.2349080689999374 0.14473022516226042 -0.2604434942668805
Ni 3.80252392507341 1.3772479259482922 4.548668796610875 0.8586029314305601 0.6160381172163132 0.12718758829280677
Ni 4.784043216886812 5.059367226701413 8.067952846499303 -0.24515468642861007 -0.5986669729277173 -0.3697822273037244
Ni 8.347410686859009 6.361759302238311 9.348484649944307 -3.2310027557718484 0.5522161376643457 2.1561978163912867
Ni 5.084177596758822 8.29445665921508 5.305784893195684 0.07789516981558198 1.1084866479037232 -0.5517276280637013
Ni 5.127630369922264 2.7047550764967836 12.181886158097905 -1.608995072781132 -0.17195615075774903 -1.007389071829749
Ni 6.914115516307637 5.091416647791576 3.819851480134718 0.615545750960927 -0.7167330585352301 -1.1839593243207416
Ni 6.778004736621643 5.10631949009625 1.4191596307222358 -0.9285014561939106 0.2571298565126152 0.45848682902998456
Ni 3.9448026717107827 8.882814225295512 2.76734332078303 -0.5009732803289695 -1.3015695533377585 0.9050535095836155
Ni 1.405022244196408 5.545196192440397 6.159148974672351 -1.2942167125171131 1.2290451609157864 0.24142812950664228
Ni 5.782312047696918 5.873732767435812 12.91221684251318 0.3880679129867897 0.22123622793979963 -0.06958767839115111
Ni 2.7032500186927804 1.290130009501825 12.84814662413158 0.08788107738370025 0.18381047899317376 -2.2057144350641753
Ni 0.2041006117964268 7.130077460956968 1.0748725796405052 0.2918564613605232 -0.38571149693947115 0.4897897529083242
Ni 1.1501504002460283 8.156683852506257 9.6207403732051 -1.3747097249668583 0.47901734488316855 0.9144997425981798
Ni 2.536484073919103 3.425289958309191 5.18569882405477 0.5774728553486055 -1.2473383027980196 1.3311099859990365
Ni 5.953916337803711 2.632743138991114 0.5470626580016267 0.9270621526442228 0.8139459548428175 2.438810647666355
Ni 4.361805251737846 7.35970496112731 11.602993835912468 -0.42526457664174505 0.03174412518081629 -0.8940111357265247
P 3.698351764676055 3.4890933290187918 0.6470003428841589 1.043225621912384 -0.11491648423493757 0.024440649540867585
Ni 7.637872883847635 8.430382769231873 8.315477607660444 -1.039190532611062 0.7087284430631987 0.7565039106752649
P 7.282143700062093 5.925264838626881 11.29854741926457 -1.5450175414879068 -2.09896788823454 -0.1486570710204924
Ni 4.692474761412556 3.083900374337253 6.214272870929416 0.5110075246365199 -0.9913513016405957 0.3884651484252084
P 4.553667804556198 4.933708750292301 5.409506459600183 -0.005853116346667339 2.085007055179074 0.20477294017745376
P 8.513447186439336 0.12137044669022057 9.902510277823229 1.3253172905766595 0.88701953490004 -0.13807646729116865
P 2.215352752658724 6.6675261070210095 2.5528199528567916 0.8356149551758191 0.10073659319012974 -1.4326222810129263
Ni 1.7849800885813703 4.418277236580093 1.131645576043552 -0.508764494238614 1.136554352674217 0.053388185813153216
Ni 0.34027971926002776 3.3409236199338466 6.295479511264698 0.5512833414374312 0.3154620165946051 -0.2181362488582372
Ni 8.583473925001075 2.6043686443180887 9.535669520041749 0.5805810619602839 -0.8084689908886463 -0.5640426979856286
Ni 6.489107506120629 6.393928758613455 5.506686102973171 -1.1946317164329234 1.400146162762092 -0.48784728446997266
Ni 2.7932857159126527 0.28060556235380335 8.89418064343495 1.0031063852939952 -1.083338944993502 0.22377339253935655
Ni 2.2876047607343577 4.382017347032104 7.78485886035299 1.9094757854755566 -2.047659467768551 0.5635212782645198
Ni 2.1394442851328725 2.3475023679403177 9.08390472148393 -1.2504475378509625 2.0066742836054408 0.15425693370577304
Ni 7.839449061266059 1.9099922211482723 6.65471187867502 -0.9370850840978636 1.5183158638270047 0.6270324114442879
Ni 7.735064530749121 1.161452184001246 11.491772834241637 0.09055451045080533 2.1143435993596618 1.6395477487570085
Ni 7.416961792063669 7.887758646729537 0.23896624534193395 -1.5489449015667711 -0.6518754386298967 0.6049301802286098
Ni 9.080780110681017 1.2550335388698142 4.7263533355761735 -0.41864681421491123 -1.3651066546594555 0.3550608619331498
Ni 5.930675659934526 0.85150076451441 7.250010254272444 -0.45241439758365953 -1.0200782372616433 -0.5633862953485522
Ni 1.8876102572408808 8.874550257598681 0.7258792220391387 0.6888162775203039 -1.014599473535259 1.2499235470266925
Ni 4.378130050495383 8.059787677075496 0.3433175353184154 0.4448468696490468 0.8594141144779457 -0.2053627512426528
Ni 1.0428388554722245 1.398965079046553 10.919801007909578 0.0852230709355629 -1.8934210460055392 -0.5878022622990715
Ni 1.0385175852128767 5.911682384457008 8.82831266582366 3.02826895751161 -0.46119137244534125 -0.9085144715490224
Ni 9.287037664213734 4.448618463230129 10.890840187036833 -0.17246831450747718 1.7832371913595806 -1.233272825843889
Ni 9.118009515992322 0.10086380327358478 13.042776451942938 0.6197379346654036 -0.1464613489207542 0.3293799122272779
Ni 1.8536864390083085 5.094602199585326 3.96872385731098 -0.607024086643161 1.7014519424609729 -1.6523094192980512
Ni 1.8888660109914606 7.967988384514736 7.20226483464838 -1.3955158630789322 1.0737065641100605 2.20357296324114
Ni 5.006006925785236 4.117127173527467 3.502228882589194 -1.3676358488392124 -1.572936379385362 -0.6589174330783427
Ni 5.949271895623257 7.068277756158217 7.538009990181131 -1.1716969620136208 0.9852439031912774 0.24907201920514527
Ni 5.73208189767373 7.485160300900299 2.1469640340628144 1.0391100570821137 -1.744132254938319 -0.2303243062839969
Ni 1.9532233907086705 0.9456564420541994 3.296719241216749 -0.8107071361905458 -0.24526755785739052 -0.5043743355907184
Ni 8.356930408306418 6.643214345070447 7.045095249234832 -0.018471062220993994 0.40030662114482674 -1.0916870598478812
P 7.9210638215702796 1.7976022604713884 0.4502920579459241 1.1565428799810016 -0.27247651417201463 -0.09358789796049043
Ni 4.440059024062575 2.0731478738890323 8.253975221029112 -0.6834619551869262 1.1814062188815848 1.5090601495566913
P 1.7180835009126205 8.289802983551166 11.995201742804003 -0.09412474430056693 1.4572097405443032 0.4894984469201505
Ni 8.888095777834714 6.768983623281081 12.086110927559206 2.8713617306671844 1.5082762202028153 0.7352735405415788
P 0.3853612789058392 8.003528062352833 5.88035225172839 -1.1526420022646988 0.7117615734625677 -2.513835695022993
P 8.671939930032723 4.728263743304077 7.802170718492415 0.6554824392548647 -1.9339395749448756 1.230010095932217
P 8.034303262725496 3.3784854306497163 4.450312807445066 0.19375936267576954 -0.43757964656367215 1.2835726025397056
Ni 0.23384258536989952 0.665486700119715 7.633095479505356 0.5889700573549277 -0.4566842286036071 0.6997694340976981
Ni 2.184171279013815 3.590015303238175 11.16478471442249 0.9562953384777272 -0.5951003386223817 -1.3525391024070899
Ni 3.263787099107796 7.040900477698887 8.810216884938468 1.2617146261243497 -0.42591660840344714 0.6957731684541113
Ni 5.9596410975489995 6.647110875090628 9.874508815881994 -1.4151308090963821 -0.22660392000961618 -0.5846104948346512
Ni 3.7091918742582655 4.756038061552194 12.342785147481008 0.6689809879619316 0.5343883654543055 0.8923576592835019
Ni 5.935292401664598 0.33269625929421076 1.278014755853769 1.4421137654431293 0.4356513191927078 -1.5379773468116738
Ni 4.188095727402141 6.479827855243183 3.724496373093456 -0.5476629710760246 0.3826405713236314 1.951791258414316
Ni 2.423161531412745 1.5141158512780197 7.029918172471391 0.23853203890576982 0.37208644995686885 -2.833302461901617
Ni 5.105765481088641 8.964493619983953 9.241615389028244 0.28854410915783857 -0.33098608037213323 0.3822577340629159
Ni 1.3278210889861364 1.9026793022478372 1.1774852046814415 -0.2725495335017951 1.1972634976288155 -0.02110258630657011
Ni 2.8165171602983774 3.3012750419559844 2.7821150476225696 1.6197589961658556 -1.2702180356096706 0.06702351720840069
Ni 2.5628179687474364 8.616732932424515 5.026218097731147 -0.5792440883164153 0.1577585191011283 -0.5945845753282276
Ni 7.574817425298306 8.946137454865184 5.970045386711892 0.4764637252233795 -1.262447133415 -0.2872061070727054
Ni 6.239498747742532 1.9132793412600837 9.947133856689417 -0.8075325951173061 -0.5305191123068863 -0.017718500325685612
Ni 2.6854755630320013 6.715595621914523 13.310978675964726 -1.4217753109960933 -0.7393785638488879 0.9153062976598753
Ni 0.6575459043439904 7.798784800107581 3.452145544953022 -0.31184653132920487 1.1453711796348984 0.5228078597055577
Ni 3.821046292894461 1.693134628603309 10.565094894091422 -0.43405492123986533 -0.18570023981671888 -0.12118251974930742
Ni 8.791615109159661 6.097035331435956 4.753624428975711 0.5524449658457002 0.1503264883031153 -0.29577199436484547
Ni 8.458572594235694 4.680895973153533 13.358683468261566 -0.8091436483581679 0.5539174366261687 1.0294218832600721
Ni 3.7218602135655847 1.392021499484524 1.3459981245257777 0.6404653970207422 0.8430235889350643 0.41590601824498047
Ni 6.205501061642279 1.6508822082896861 4.859521404083421 1.2556995302785212 0.5177427864778245 1.862213252944167
Ni 4.268020760233155 5.770243884814508 1.6203313815651048 -0.9092014703137181 -1.5581929025276002 -1.8927749277811081
Ni 5.130815921716015 0.35793506298417077 11.925833351612974 -0.14771964680788752 0.18995721532085996 0.5964172576615921
Ni 8.965897109469894 0.6493354908512295 2.2204810293724884 -0.4309937658160384 -0.8800955540866972 -0.3565392462508892
Ni 3.3818279516622884 6.731467979982512 6.2411792417322784 2.694124276905838 -2.867657542342719 -0.9105536134662382
P 4.047479007787595 8.601100644926492 7.109894912809783 0.28983917382017826 1.1249062269123273 1.5277960354032978
Ni 5.274922898078495 4.125308039873155 10.497064434653764 -0.3934525743374708 1.406123206281133 -1.2120799938163578
P 3.3582456349050784 5.059782733457119 9.770018100305263 -0.1724382326004901 -0.5435556337758704 -0.10078904369461998
Ni 9.000393403676997 5.022507160728515 2.360068215581229 -0.1152144750913306 0.07299027631479686 0.6754267435872755
P 1.2000666118315717 4.932683833628225 12.716018245861946 0.9506260560070918 1.1456457734525238 -1.2397337509778843
P 7.7197092477549 6.925408066579395 2.7756682294706967 1.2078572139842618 -0.14118647367506007 -0.6986800576882612
P 5.476933049219546 1.2915057985373866 3.018355568647069 -3.0783671597195825 -0.544250860070682 0.08668114353832813
Ni 1.9885783988775654 6.3641323074875675 11.049238749098928 0.29674592824234053 -1.0069008193394209 -0.4948196020227478
