# total energy = -340889.7434844198 ev
CRYSTAL
PRIMVEC
9.13012772623680 0.00000000000000 0.00000000000000
0.00000000000000 9.13012772623680 0.00000000000000
0.00000000000000 0.00000000000000 13.36286481479963
PRIMCOORD
 96 1
Ni 6.414416896393812 2.329908168575898 11.263732686900024 1.6756655775254883 -0.6927667775276198 1.028284170111203
Ni 4.781657891880431 0.3485106711370588 5.692085927003677 -0.07109665883650981 1.0529698457833414 0.03672306645264643
Ni 2.8542148843380963 1.8455366315610249 4.761255708426208 0.11861681590466022 -0.6745643955869802 -0.07200862912781793
Ni 3.5430282417713714 4.534267950559556 4.63430858626376 -0.29634072238412196 -0.36395867864341186 0.23576733167643912
Ni 3.8694303085790644 2.706051171326761 2.1938345707216746 0.6826589996696566 0.5160283748898791 1.2807667576597943
Ni 4.907900168181129 4.974029683422755 2.2955396287134033 0.7200207281475663 -0.49334121770500844 0.02442316603937084
Ni 5.381835969185899 4.559366671724713 11.390532814005814 -0.5122599089863823 0.6006024993875334 -0.15005523691959963
Ni 5.44779201200041 8.195266572896585 12.643207339621734 0.6499039167258226 0.10773770709831122 0.06315863493635575
Ni 1.975102274360129 6.315565003321731 13.280710292152838 -0.6582168074668923 0.4460185213596447 1.9396479381835627
Ni 2.9238503686329853 1.578863860447204 0.23918013045448314 0.189029561300268 -0.8653492490154582 -0.1628773283849324
Ni 8.233731801077306 8.985013492527315 6.896588072622652 0.041081600531658276 0.618812851747973 0.17083823510322188
Ni 8.923887287288784 2.428504418071179 1.357814337664517 0.02026003580061672 0.27259632757933056 -0.00037460973059935486
Ni 7.119235367760342 1.0492981911051114 4.720003965258361 -0.007714080814806071 -0.7078522111058325 -0.14983592181994196
Ni 0.9940152676220182 7.739508856227873 2.702746065083841 0.45153816562629334 0.05457654969429955 -1.1278969341095348
Ni 7.978645162069191 4.096149640690076 3.6177820756789147 -0.5770450237825675 -0.5978575896525445 0.687128862515552
Ni 7.853425460075694 4.026998053165559 12.945074927158778 0.09817757421370188 -0.7527513856113681 -1.566068191510619
Ni 8.380115139178782 7.497341347975922 8.897970506677867 0.14190663967053624 0.02653198485225753 1.0565249101244514
Ni 7.180489394787274 0.7842213663207447 0.3382904061416873 -0.6973852501362376 0.5769537496203418 -0.8317572719926255
Ni 2.136988569369002 6.359270924826861 9.187811889952 0.8382706476311113 0.2084899840177248 0.7701929781265833
Ni 0.20370958417342333 4.8653446427716 1.3044907395950442 0.27017460551171535 0.4359940472441072 -0.42118500725573266
Ni 6.446025398639636 2.029809999795421 6.844820248320565 -0.3161438731529781 0.0234245495715274 -0.24986006232407937
Ni 3.7656024958871184 4.121613566964947 0.19902491562855545 -0.8883613936399153 1.3008910392134951 0.5189920855038933
Ni 6.034548801523857 5.652936852255014 4.428747412184082 -0.3370551693843486 0.4337355902272336 0.5958837537556254
Ni 5.491607495038456 2.794878184137168 9.195000952536738 -0.42541267218383505 0.8346114536119691 -0.8538911277771875
P 8.97329953863321 5.874607223724215 12.584624787972366 0.8803305529156387 0.07208370534012747 -0.2725109669543758
P 4.294446885137524 6.29020150845203 12.388084180102645 -0.39992764053885316 -1.1319047697173474 1.884611418133709
P 2.4116228118746075 8.481678680190496 1.1282546228126988 -0.18217088650722174 0.7660912972533838 -0.03590237032356397
P 6.665814963793807 8.147662086845246 5.639075492315785 -0.3223443455367352 -0.2360748356145289 1.0127567638995656
P 5.0159369697625396 1.2372236104366567 12.41333993946498 -0.7129429953651787 -0.6511141349838399 1.4268763796680846
P 4.1870126719871426 6.330784926269099 8.19835803415032 0.019517244097321224 0.7389425047527339 -0.09845808156859817
P 4.864805965234771 1.2863984784597682 3.5941432619398435 0.10046354203440117 -0.29208348976966475 0.8330312536090427
P 0.14355117247563623 5.780649079122314 3.2143838155900295 1.0004296097927803 -0.00569602194351277 0.65128614178533
Ni 0.48762916659353045 8.947890393124796 4.79243144261702 1.4661821192462425 1.6397806907034211 0.19355881662918922
Ni 1.6992537248647213 6.331871411470501 4.556028697021919 1.325248385011937 0.5433401753309545 0.983257468888868
Ni 6.071598859904434 5.887572005119094 9.242652915252338 1.16738882155657 -0.5592434768247724 -0.7646573930203348
Ni 8.76047626094685 2.522060837052394 10.169421139997002 0.33875389724301014 0.9175002199874005 1.1299908405240862
Ni 2.656675440493306 5.477337105376346 6.9460569307590845 -0.9980731937454617 -0.6401995449538651 -1.0857514110897364
Ni 0.6749556495451433 0.3853470845284524 9.362584447257163 0.723445180448083 -1.736258765727513 0.8452172541522733
Ni 1.775481161389964 1.1565041510619207 11.45838974941639 -0.43133932208091513 -0.020878129000589853 -0.9840298282785183
Ni 4.217242524943794 7.222040606145087 1.5157765037695035 0.28338699043693133 -0.2389704119947691 -0.5850393548419537
Ni 5.639186879874248 8.130999603714505 7.972699622883032 -0.08475024506420244 0.5069724353351979 -1.0559422981481041
Ni 5.469266072451647 3.0524573480190877 4.63476235361258 -0.07817284895700086 0.2519483123116758 0.1508391662734757
Ni 0.9178791323742042 7.239506540517202 6.67412338003982 -0.12549503108173227 1.4633937578678282 -0.10962566814964346
Ni 5.231152340917531 5.011326255252389 6.879270046319972 0.6659193183174724 -0.5839646337205363 -0.3087442382547973
Ni 0.8163895453972074 7.24105866223349 11.121070788866543 0.03302504877576893 0.8823974627469965 0.25606567691415905
Ni 4.654959109192589 0.47595538526149367 10.130013682633217 0.054713589492796096 -0.5622169576307995 0.6638112708355342
Ni 8.327032576481722 7.1054397447408615 4.591213470304627 -0.9222395344445987 -0.2913005888570531 0.5618186937511163
Ni 7.353158370660479 6.519833351313017 6.999468178054889 -0.021327557833182624 -0.8611452382364394 -0.9363818873832519
Ni 2.3981650035816133 5.522083861444164 2.3580782647137575 0.1365937120980551 -0.10774027820147251 -0.269910038996419
Ni 2.6354661537466137 5.002506551852774 11.584054088630964 0.08145229103922101 0.23187416726962004 -2.241914024913184
Ni 1.214854797466619 3.448640981165555 3.695994401975458 -0.04644903549115871 0.054716417706273515 0.21205404721989934
Ni 1.6532378810406438 1.228476948058985 2.35042082657581 0.4004773423947361 -0.43839931425149015 0.3381106072320564
Ni 1.226322237911667 3.5165508713170412 8.21711953364915 -0.21979718150042793 0.8541235555029677 -0.9816842108644769
Ni 3.9153274607424846 3.099842711004596 6.919505606270038 -0.6441266479224133 -1.3966042110471046 -0.28439717686900057
Ni 4.457839651223971 7.176189104620381 5.998148808238573 -0.34671274707877064 -0.7865248825173873 -0.9328841586426384
Ni 0.5148433383567106 0.2524261197838426 0.07005547017106094 0.6980205697273915 -0.508250530716673 0.3957701667270539
P 0.48854217936781774 5.734459762871122 8.072092019517491 -1.8524057799354423 -0.8120379391868273 -0.6598430302164056
P 8.961056037330017 1.8034650029218684 8.11656395874025 -1.8304076783977963 0.1595688328369897 -1.801201746257801
P 1.8484856628219728 3.337499936151568 10.30278217689882 0.3883695033876085 0.2460527727628472 1.2913440189550083
P 4.0339643406333705 6.449430936287727 3.780541210900006 -0.41368201401046817 0.22083256474347773 -0.7795314819186898
P 7.100701208442311 4.122225285523719 10.164463480632623 0.4468759842639336 0.5544691953645805 -0.47668946808094037
P 6.36263994196398 8.18438346062708 9.917583913452575 2.1582058479602506 -0.7628527357114281 2.2975560397575205
P 2.6103400421982283 8.645929678284773 5.568372696087754 -0.9816214759473417 0.27856282957541056 0.5031535758097399
P 7.098783881616307 4.301659686054394 1.639930719855407 -1.0044485011441862 -0.8035833806615708 0.08142915111076944
Ni 5.798188054516372 2.9797084901638793 0.47468903654355726 -0.31586182313618505 -0.5440680546359146 -0.6936095851438893
Ni 1.511967414475177 1.0561731772954945 7.145164017537326 1.5206375699816455 0.012891254140371346 -1.355420280609627
Ni 7.177987739785727 0.946045576460966 9.047087405025557 -0.605214544238248 -0.5957778243053804 0.15766441672542522
Ni 3.04633103230362 1.965086524226198 9.163584182973512 -0.4472014859241524 -0.9876396571169637 -0.6159548134738876
Ni 6.746863107767286 2.1207643323699172 2.561942148046035 -0.19554627937286323 0.1792920222975299 -0.1774781090172427
Ni 4.4101895145339185 7.019150907442973 10.41958664015171 -0.5187128637005777 0.9181501948665736 -0.6825453569099277
Ni 8.033197675332854 7.5180576078245 0.3166373951866909 0.30007422128462513 0.10215378525263052 -0.4832419244874774
Ni 7.690379638843476 3.691885844491165 7.953296275403879 0.5195515575517891 1.0669422488030333 0.30925820177673835
Ni 2.9649359434759113 8.170962172845057 12.243163488465578 0.3891482905351621 0.8798289306888717 -0.0037121587442645746
Ni 0.16240032120079656 5.077227517300443 10.307512496082403 -0.523310253263273 -0.7732603041979973 -0.12230326361731196
Ni 8.953039785171777 2.288968675776858 5.850462600908189 0.21134262297517153 0.9559274136153473 -0.3127075937779195
Ni 3.688389005565645 2.782388169384918 11.62581255388854 0.23302242194145031 -0.35507885965527886 -1.245499706927384
Ni 1.2954738254361833 3.2985416810727313 12.666606031001168 0.011088396603677676 0.7333511267078854 0.47390393491600313
Ni 3.1164321531133954 8.46195760426589 7.797792852700049 0.3533482501174172 -0.11557031576885257 0.5379076914614737
Ni 5.881463949659113 8.105307424246062 3.6136123463387446 -1.3352862288639133 0.21087056843475943 0.7650281460961922
Ni 3.2603229663410667 8.708124108469221 3.379494871717685 0.23306767335708897 -0.5000122019672808 0.8681856900229887
Ni 3.6093768800788264 4.373075545259142 8.987983523082072 0.2406845664723984 -0.13929208486582462 1.108324411294246
Ni 7.293392554455635 6.626537154243969 11.334087625261052 -0.21640718198227246 -0.023020886375205513 -0.43696052492243453
Ni 8.128890544205902 8.982922693274197 2.5090513180315748 0.0714463288664447 -0.2412080430760362 -0.08710280445677902
Ni 4.799479901234518 0.5723549260218389 1.5823369610405926 0.002844154317014456 -0.27154963148237105 -1.2326313356051481
Ni 6.195823377973958 5.635744821715184 0.061970742054747306 -0.8678527321636023 1.1288328156602427 0.8320717179092508
Ni 8.28583744010588 9.114076978300561 11.30937967356329 -0.6009282581580683 0.46779190848099433 0.09732319663320659
Ni 9.146835876641989 4.983762399596657 5.82908166775993 -0.06832372407706297 -0.8979729485877502 0.4445046558182796
Ni 7.238054850206085 6.3554271410471115 2.455680243297839 0.10742300407136983 -0.16100839349699367 -0.7017954633887913
P 8.949049919348141 1.5432746225054867 3.495511404946366 -0.3692260976899383 1.5233143454828604 1.0856485669632852
P 2.000301426930457 3.470087651233563 1.6001224498837086 -0.31208281570972707 -0.3816072449631105 -1.4485471797732987
P 4.734318179533637 1.1345005432015978 7.917871379761534 -0.05475164181958312 0.3240284181073774 -0.36889751070592597
P 8.73835396142587 2.0257744833330715 12.461072247304717 -0.9068136868078318 -1.9028166282878263 -0.44556960674768425
P 6.362539510558809 8.2136911706817 1.552377359865131 -0.06332678508310383 -0.7756452594904062 -1.8287686001324763
P 1.935221876379262 3.528903934153148 5.937602366111713 -0.04980483933726906 -0.22108119041917412 -0.36259136598224007
P 6.921686793787809 4.239839591107403 5.775603770531603 1.7836292845916766 -0.643552263476182 0.9981259013602681
P 2.510219061369888 8.309064485083747 10.007609712035622 -0.38729503937650717 1.7096470766772556 1.0574286528856434
