# total energy = -340896.7512325149 ev
CRYSTAL
PRIMVEC
9.04989434290725 0.00000000000000 0.00000000000000

0.00000000000000 9.04989434290725 0.00000000000000

0.00000000000000 0.00000000000000 13.24543514819003

PRIMCOORD
 96 1
Ni 6.483842109345721 1.954487598901783 11.358848287409192 -0.8760545512481043 0.23299516824794067 0.2076237793626876
Ni 4.596115581607715 0.5351338321161504 6.058912461584969 0.17593287601730992 -0.7581746135094685 0.27792416755014715
Ni 2.8588254488751925 1.748041407307901 4.849551540017874 -0.7423147636590764 -1.1561520723004863 -0.25537533571535376
Ni 3.5517487152160987 4.414004556119214 4.979211187405383 -0.5409282234553522 0.16760815820169844 -0.7325803099801318
Ni 5.142213360818202 4.55799742629501 2.8973598993313887 -0.45422573976078545 -0.24973227849696342 -0.9638291849609271
Ni 7.328685953377602 5.9344049190928825 2.6880150265535896 0.2727009714779949 0.6996897298996982 -0.0922990039457378
Ni 5.229725839895566 4.4528648027746645 11.549807394675762 -0.012509188210604262 -0.7425312505452567 -0.9304552374861716
Ni 5.780620063150623 7.683450864681817 12.501452662759721 -1.1328031131619007 0.6260512784779411 -0.5427161685937104
Ni 1.6194695572301228 6.622640340122302 0.38079150267738937 1.0601249687708838 0.15996041184845355 -0.3183568216438969
Ni 2.777086802440161 1.656646523522761 0.4928563453263039 -0.42211240416600854 0.8767448924469093 0.16958945029778535
Ni 0.6171783649827037 -0.019447318127130138 4.726872076199379 0.280157170645724 -0.1446204390572735 0.13926097451757305
Ni 8.452257495765608 2.197015719563033 1.2871565290017122 0.9236762668911254 1.0412492149123034 0.6165664789159575
Ni 6.846697626264742 0.5556879523313014 4.8843999684752895 0.5308883227208471 1.1124194072992262 -0.9217973047008577
Ni 0.819562058969778 7.422678156862349 2.5793502292396666 0.34933475808265 0.11155425263092399 0.3222235036881548
Ni 7.560716196507338 3.6598949535795433 3.7955193863817254 0.47955470544387724 0.2131197694802523 0.7763044903409597
Ni 7.4177278646125755 3.879798338181495 12.682676798594697 0.9373468223996825 -0.6669698710691739 -0.17906139434396257
Ni 7.922241378946071 8.854190456806249 6.877864557670589 0.3976483575863732 -0.42605647641542105 0.8587194024037662
Ni 6.842760922190424 0.5372677972212634 0.481780179541114 -0.9074220098157921 0.17747836612755885 -0.6591521747969681
Ni 1.7878156933001468 6.503842376022141 9.212332788709396 0.8041608504315957 -0.23744883314392012 -0.8195967253706917
Ni 0.07361998614751313 4.775792185496236 1.345961837977597 -0.15371803048316754 -0.12480443277261087 0.2226264234191069
Ni 6.6604869986022965 1.8819707948845212 6.924237121687168 -1.172812820785619 0.28383873326236925 0.6775497034675493
Ni 3.0453528228424687 4.353379313374719 0.25030197997122494 -0.006189416640163535 -0.1725991836583866 0.7534862068948636
Ni 5.950206034756697 5.652093462544964 4.780476410849953 0.5161214488243175 0.3217159679241169 1.0037581599453809
Ni 5.381329671281709 3.118593618413628 9.196265606149526 0.40860331393598015 -1.0765440335588556 -0.0803099499046617
P 0.08976499779942812 5.536852106953323 12.402018757757991 0.3921114869285441 0.2492759076858352 0.25130245119756073
P 4.171603133979896 5.9665048946138155 12.526751642621228 -0.43095468504798684 1.0637029159301292 1.6034276059956838
P 2.4418153637246367 8.586892775107279 1.3489283933696923 -0.19436408613930398 -0.6058205532533631 0.7052916494675079
P 6.42259242388599 7.6512151407445295 5.79147360153299 -0.9402357139117034 -0.05648148002649628 0.37968534535004933
P 4.776914372404777 1.1094627569814286 12.74032100611602 0.7547923273007968 0.2943907977466027 -1.0382885896220828
P 3.9489576313675574 6.247739413725313 8.232435560213471 -0.6551368829899878 0.23434474029729965 -0.04889261193564483
P 4.6201249515138425 1.2338626057298723 3.7075164030265957 0.9729748560159373 -1.1975128946354603 -0.6822098279473798
P 0.34117015990090444 5.506697858733491 3.5862939722103198 -0.9137296972013748 0.2876583641187755 0.15118857919309445
Ni 1.4439197051988182 1.0193982076765755 2.664240048913037 -0.2189769995919777 0.8645758611845433 -0.3354135200158675
Ni 1.9254917371681868 6.56168025128413 4.826080638829959 0.13599490217179158 0.033426140868929526 0.2028728949412635
Ni 5.911264339051434 5.703315864983214 9.175629131895118 0.46938059312435293 -1.2367129618736894 0.01941851373592785
Ni 8.737654966312016 2.335307156251886 10.180746606171065 -0.2921842770135871 -0.3218854036224456 -0.10292588753196469
Ni 2.431588983025834 5.187254685365052 6.939455424150094 -1.2167141501542593 0.32815195335744773 0.6442670301550195
Ni 0.7773850260080348 -0.17622587914475638 9.052725230694914 -0.486890319873342 0.6551422823066266 0.5973510823297712
Ni 1.317049235272699 1.1045667640981964 11.4741765219873 -0.016905774616403142 -0.18873157044387495 -0.13588511606680467
Ni 4.089927836805831 6.963558912958228 1.5154636455655301 0.11507743529283408 -0.44835796812609874 -0.21017817035342512
Ni 5.5887713512622 7.818176642967725 8.016587433302787 0.19432217715777503 0.720799772405436 -0.7181214542423245
Ni 5.277690280341277 2.8247887959475846 4.933593384583743 0.03992768943287318 0.019539098474192156 0.11947042215420715
Ni 0.8535588923619214 7.63591176927402 6.9099446234237885 0.6696610447480918 -1.3232524376278307 0.07439769818528477
Ni 4.9168709896675935 4.658596052709073 7.040849536284001 0.6939520560849726 -0.3876763339753259 -0.05273358294828982
Ni 8.201674969067248 7.002482508874644 9.111601128847305 -0.017849112366278935 0.5472202271116511 0.026856458071211814
Ni 4.7332305320214845 0.2665040059580094 10.379109432065679 -0.7027074336800994 -0.22973989453543656 0.767429299338517
Ni 8.310816695817302 7.078474472350614 4.905367668865605 0.0944877840669405 -0.11715411531620469 -0.6980879326302171
Ni 7.362532558522311 5.904974662426949 6.940621050551869 -1.2095135186407622 0.6750145957505213 -0.07085368958776829
Ni 2.3025193887547513 5.458896316387406 2.6127018051593986 0.6583258222409307 -1.0839084443437268 -0.46499300557961853
Ni 2.361081255570638 5.381510669170184 11.351536877704268 -0.9411685101386178 -0.6437594943909817 0.3671941548615741
Ni 1.099589322165151 3.3783346382687918 3.79322795311364 -0.2762177263820017 -0.11655144873519926 -0.152533266146447
Ni 3.438199689881694 2.894590631637731 2.781647044240273 0.0795285916539469 0.11989542550676771 -0.6541575497958539
Ni 1.0724034393162984 3.305881183512496 8.141386382395316 0.31318890428971224 0.25438160434351675 0.005097983348197672
Ni 3.429882836906296 2.7273938321595192 7.171900152444437 1.009704607336803 -0.19165979983426348 0.5856204241564044
Ni 4.2134769954784455 6.980880410885226 6.092913819924325 -0.03805232678703124 0.1558772429180154 -0.3849756472147111
Ni 0.6140398615965579 7.326776425654197 11.19916109032378 0.24410336234596022 -0.03456745356222434 0.6507986606259502
P 0.24947119966312753 5.639342161301943 7.785997933365306 1.0920531849380484 -0.6687061370339902 0.589264962887527
P 8.711229274594757 1.5621746756335566 8.035965972232296 -1.0942057125046767 -0.28338287667187323 0.712947880461185
P 1.902152059449415 3.3126957540135566 10.432661277328595 -1.1939719713617374 -0.3018673086293059 -0.23509190287596932
P 3.9770032541866627 6.2935137797204845 3.8970058074387546 0.1267103915460721 -0.3610188792887976 -1.2328897314728573
P 7.067849896297168 4.00782719459385 10.313425298338327 -0.4232768567877549 -0.23069531647017044 0.41809017038049284
P 6.319812772915812 7.6532875665675615 10.090809660377586 -0.10556769603018593 0.743623455168171 0.9847605357969557
P 2.5942517853977627 8.50499123057262 5.701471496499661 -0.8843407025162964 0.7345333199414447 1.302588738630892
P 6.878698052947014 3.909816837984972 1.6832432582446293 0.1416263894259561 0.15752891958882548 -0.5056953683949871
Ni 5.15148045270809 3.098747199942412 0.48395758413946083 -0.07015049287315661 -0.5220457847285526 0.08902418984920797
Ni 1.4990788117113865 0.9878412258210666 6.95177414043966 0.6659458006800338 0.5339409935042417 0.05167197445299488
Ni 6.7540810067324 0.7224213972150187 9.15925787288261 0.8956980365106445 0.25521824131219917 -0.7810569174242806
Ni 2.800390280581238 1.5319299284694872 9.400139817748185 -0.14846012451833787 0.046297340404642846 -0.6881002252898859
Ni 6.375632521721311 1.9286139507443696 2.5280898172448363 -0.34297719129573834 -0.37507638582312824 0.7065571464434928
Ni 4.144335802081231 6.788018110821347 10.513299456601702 0.16711373506378316 0.8557603197754423 -0.33872175845349406
Ni 8.266644161135128 7.268793752081428 0.49726273892121275 -0.7025871060521512 -1.5285809931984384 -0.8870763562799046
Ni 7.63849098918478 3.7741046212068787 8.165545980548876 0.47874146551396257 -0.010622769821168802 -0.015599397100153782
Ni 3.035904733064106 8.741501171442097 12.493915910683649 1.004549802608741 -1.2319065416239814 -0.4358181837878753
Ni 0.11453636881603226 4.707393083441766 10.072239277020113 0.26368231291915234 1.0566514083999867 0.3835247737007975
Ni 8.757953879504418 2.1339922547962527 5.772718600329274 0.020867844587944707 1.220962126797336 -0.09387277619076091
Ni 3.613251797719694 2.5972201507687425 11.469262429315219 0.7191869193923615 0.018493173708181054 0.559456621276843
Ni 0.8424953964289248 3.438462136819982 12.526976080002937 0.3629055547885492 -0.40594093661246866 -0.2301759536315907
Ni 3.118059674642628 8.461162591878548 8.113995066943046 0.6493416164644494 -0.26988972728144484 -0.17460233013134444
Ni 5.6351339603949135 8.061772651170973 3.6465608391356352 -0.09675986793056883 -1.0265867278041223 -0.8033527527080035
Ni 3.259491424696512 8.465416042257697 3.6181496005818112 -0.6998257412569302 -0.11276215689609612 -0.5158054602457955
Ni 3.489222994642623 4.357940460164274 9.267354336826724 -0.8378219901294667 0.3237646229230295 0.09226429405306047
Ni 7.244069440515828 6.058026476920887 11.389498469843442 0.5148603227237067 -0.21038334438569573 -0.24243368795302117
Ni 0.481631761272565 0.076189251174407 0.44544304345099683 0.9271642254397258 0.36999922841053695 -0.21824089275690153
Ni 4.647319884257119 0.35377394786481814 1.5750807300712226 -0.2953410774750139 -0.30012512912721856 0.3876179699335647
Ni 6.099963687680402 5.566897756440071 0.44965214934746855 -0.5677198897268997 0.7694779543374296 0.5654945999408069
Ni 7.883408281973892 8.881720235643202 11.066389184243956 0.35191280322247137 -0.28039422635719446 0.5886139595670896
Ni 0.03924215220013109 4.74774656267713 5.665443866798834 0.2794310911129768 -0.44546599129028447 0.4172692171410943
Ni 8.010984643665061 8.775926969829925 2.462631025888633 -0.35545809737156847 0.7801673157304757 1.200529569974597
P 8.512520742733155 1.5799396183873173 3.6762969822330915 -0.4454616204149102 -0.3309428858390236 -0.8327098657138821
P 1.592871917518812 3.163182448239292 1.609890243982616 0.4110921417961049 -0.1029279444144937 -0.6624781538464074
P 4.8373857669440685 1.2138804388423003 8.190685682268526 -0.5321353077540706 -0.5367962035648497 0.14690409288512762
P 8.306418447127374 1.4668792873517937 12.468285704686233 1.3674504723012837 1.1453930340117693 -1.0670628335412977
P 6.3673337685347615 7.65880800216603 1.4567325457239197 -0.8124128060277428 -0.46897564437645034 0.6285509049713434
P 1.7658696993226277 3.1698793701128443 5.95198162404263 -0.6672251816130896 1.0448955534156392 0.1834798351266324
P 6.777339235401359 3.8858527175509634 6.042912248243834 1.1380705322084272 0.6709419683430445 -0.20230288137040645
P 2.4694446914002515 8.369197564744715 10.42638246057742 -0.30379820710343164 0.6890296790826909 -0.777048567595836
