# total energy = -340886.2918055481 ev
CRYSTAL
PRIMVEC
9.13679405970683 0.00000000000000 0.00000000000000

0.00000000000000 9.13679405970683 0.00000000000000

0.00000000000000 0.00000000000000 13.37262166768099

PRIMCOORD
 96 1
Ni 6.757188940388591 2.1479871252475595 11.76842795579651 -1.2858308024462628 0.21502752802592642 -1.7125583367867798
Ni 4.975632930015435 0.918668068224955 6.146003220875549 -2.322421178430316 -1.2571496324614866 0.9883577662299108
Ni 2.9719614626519606 1.8947608854085343 4.631205955621072 -0.4560941604280919 1.3163981337101587 0.9305012602327587
Ni 3.6849785762928713 5.1046079111291895 4.96411782880421 -1.4351625309362765 -1.0064318501228022 1.0841570700194232
Ni 4.147939917539251 2.867299489808517 2.4934054417679388 -1.2693258628127042 -0.243287037092252 -0.19990069968681703
Ni 5.0789335205844415 4.873501849051314 2.7910666508369526 1.5950213842098595 0.5187550297924228 -0.8390802880166002
Ni 5.7688528195288695 2.8675553200345854 0.37843412087391787 0.3216537472276138 0.9356131275380274 0.7784233364561756
Ni 5.44529154110854 8.283800993690546 12.910316119380774 0.44701379539337854 -0.27699008577165196 -1.2145644508011082
Ni 2.712905948376085 5.686530307497492 11.408878674003352 -0.6460901994066873 -0.9196594324222483 0.4517412827760349
Ni 0.6071828901544459 0.32372848174665175 0.5238206109899755 1.3489932940373606 0.282658596911339 -1.3260071175548327
Ni 8.405886832288022 0.551609255617304 6.986459420594423 -0.47107880676238223 -1.6465753450277512 -0.06056027808156022
Ni 9.042419845128194 2.388485811339669 1.474157720164093 -0.19175364509965043 1.7904532494920455 -1.0201160324781142
Ni 0.48839177939698236 0.20062663167993142 4.723076417161083 0.2506383352510006 -0.04092887700387789 0.6813845038326072
Ni 2.449062754155211 6.948403760787333 0.26876427135518055 -1.8055589947852324 -1.3681963493283726 0.6995755729193371
Ni 7.835887951813277 3.949817681036656 3.76177150072365 0.2931376420657919 0.22822705743533597 0.9228211179796817
Ni 8.03246607016567 4.204898690014679 12.641539970193667 -0.5344089342795957 -0.02498315230789891 -0.5766066506935683
Ni 8.396293198810449 7.877140575766846 9.3282589567147 -0.03370741955477421 0.404541999382413 -0.32238754006984477
Ni 7.228236344137497 0.7501718855804886 0.4215287224551823 -0.10299042222131295 0.6223535179113797 -0.1289793900859069
Ni 2.2695064826301694 7.174448039106563 9.341297161450411 -0.34644483812936466 -0.5569343690756215 -0.7396063635889778
Ni -0.2067729528612308 5.147514294758417 1.3035756074977884 2.2116997061133326 0.36191413740955736 0.0852356693410532
Ni 6.761967483539801 2.39027662292215 7.291716046339539 -1.9602087930540497 0.5825559262984676 -0.8630339706187201
Ni 3.923220474319304 4.2487370266103 0.37599825164999273 -1.7253241210928805 0.6511357322503948 1.0736883092776153
Ni 5.894958847393139 5.786422873983513 4.828813790633394 1.5316177231422332 0.8222583313632548 0.6761813623651128
Ni 5.308751294738186 2.976283166113763 9.788986351879874 -0.2833947037464151 -0.2959653413225742 -0.701590803577153
P 0.6534881610728719 5.779177396509496 12.584853474173128 -0.1973321676286924 0.7026719524564737 -0.13717066764744762
P 4.301821798519545 6.307649549217027 12.909567815969524 0.8033882339316293 0.020217098377823248 -0.7484435022646336
P 2.683421514821673 8.839135320135286 1.596409848408514 0.003317751519323318 -0.1343293415439106 -1.255481500730444
P 6.496653265519033 8.423941136813438 5.962998723374854 0.5614569395363234 -0.4700699058818936 0.13365905494976335
P 4.815866953835562 1.3360093980870207 12.61226751025514 -0.047320639462834636 0.13175643861041178 1.5217891670875856
P 3.952129289865062 6.44066299318515 7.8725155307512775 -0.41268494020452157 1.2763899687483373 0.7239624864041339
P 4.935887877036912 1.3553428537427803 3.826495634239641 0.9133188349162011 0.3618542307058994 -0.7162617753257664
P 0.2523829137723775 5.985056770938245 3.61761482305148 1.0169664311055386 -0.721089535731713 -1.042621926890114
Ni 1.0582051829578287 7.515223037023796 2.224428283117494 -0.28510037358361223 -0.5922235312952189 0.4758304625147547
Ni 1.7728760562743975 7.088900238867963 4.771230975142234 0.5971757330941716 -0.5076656047474805 -1.585479249047379
Ni 5.646109131778644 5.877927863771997 9.348305082285938 0.8287894476135532 0.22637020673225533 -1.1063454331910043
Ni 8.592167784041154 3.11610352145407 10.38860123573958 0.4918301803771208 -0.43708368076386017 0.12450412792337266
Ni 2.1180823991788915 5.532228134002942 7.033183156668347 0.5295032694478622 0.19253088958530712 -0.039170499551874474
Ni 0.5460961142455245 0.7509064838010573 9.463924811919528 -0.32660363503372136 -0.06316531980457508 -0.5784501316602103
Ni 1.6274091623730043 1.3220757875600673 11.603530756225203 -2.695354549768513 2.9943825891768108 1.323476894933811
Ni 4.460007109374066 7.430150350062182 1.6038453711933236 0.35256149255006375 -0.5184902061668102 0.5064744126528568
Ni 5.596797855703912 8.412364819083832 8.252846450015618 0.6186051066125411 -1.453548489642632 -0.09982693689166679
Ni 6.799218191814155 1.261507981538314 4.976086114987329 2.880277802209891 0.4070323699044345 -1.2154800206368424
Ni 0.9158173885630472 7.66093662435747 6.739453509966381 -0.906556062271071 0.5972893758539003 2.024993136519287
Ni 5.243962289986299 4.883698510918907 7.188493118517732 0.3255803359755296 -0.7835043505235086 -0.6904162750175722
Ni 0.9556446726856634 7.7752744618225815 11.339140268056415 0.40791168718559423 -0.2536827785042792 0.534489409808544
Ni 4.546386357847389 0.4557578930237892 10.771472183677032 0.8824681680839318 0.29325951235563685 -2.1571432110236914
Ni 8.175986826990185 7.17441149193141 4.996586339209837 -0.2846751131207355 1.9221860339533738 -0.5128448349555749
Ni 7.161556023071461 6.605097870990777 7.043814729920258 -0.25309091055655125 -0.39227269509675666 0.6055891539688474
Ni 2.7228376432238215 5.411841739050064 2.673614994048834 -1.27766292192349 0.1876177685544059 -0.6473040172091303
Ni 3.3702525774657 4.496015213693229 9.130758935869078 0.33235853523962755 0.7391847026705269 0.3130590635800673
Ni 1.2709371527277014 3.526208510635908 3.610955014059286 -1.1308493318696395 0.49469696040195454 0.8648481410093234
Ni 1.627400025579216 1.2118951912685716 2.630528615581979 0.3325297707101692 0.47081732557087946 0.4733069247619526
Ni 1.11733851235484 3.7674107298497064 8.361459172493065 -1.095449612214107 1.1496986033656587 -0.19045575222383326
Ni 5.2198411543855405 3.193382523314379 5.203086101936801 0.5315190143263104 0.5894462256603978 -1.0342429587977995
Ni 3.9665288768752114 7.692184459112998 5.56464182364584 1.796056711721752 -1.2674970371340817 3.033399079649324
Ni 8.67449943286632 7.523400467464205 0.10798502474419942 -0.6457099332491332 -1.3169457786835128 1.244879813955198
P -0.16340698850445776 6.188971734702537 8.242816991474347 1.4260186596534794 -0.4640272992322396 -1.4119446980589165
P 8.628733232781395 2.3469956307476068 8.241853973409075 0.7501846533254564 -0.586753509319583 0.20199743431484565
P 1.711586443543379 3.6185084014839624 10.466817672642556 0.7887337172432481 0.5984458580558467 0.5194939648409762
P 4.20683569029777 6.725383761211984 3.6504451504911186 0.07072616287096851 0.16864868365107083 -0.07217240839919183
P 6.762552238342245 4.50881586179045 10.457844427463197 1.6621320618154278 -0.8065046680734239 1.6788686578438183
P 6.509691470254746 8.175529987300777 10.395621948086406 -1.783646510982857 0.17522916508206593 -0.7093578491170816
P 2.502065294920363 9.266627627896003 5.7566195663258934 -1.3302363251448317 -0.4524719902944723 1.4492259510078782
P 7.07401640178704 4.253259739535443 1.7321022003153275 -1.16541704254218 -0.9139873217381356 -0.7032759045890598
Ni 2.7224082139157777 1.772830372305457 0.3383245098232472 0.3121532639363463 1.716397765137528 1.5845639363219612
Ni 1.3893774106036993 1.8272582529015626 6.989294567706891 1.7702104400826093 -1.0357555387875839 -0.18015925539383165
Ni 7.105940359282893 1.0856429747036915 9.280826205442812 -0.5656653211907161 -0.8118847014384147 1.2172281136762004
Ni 2.597215865430325 2.0994342030572444 9.199347019478084 1.4627329843553776 -1.0121535830979278 0.3742199513601039
Ni 6.715095731406509 2.197188759796834 2.5077812731142397 -0.33568708539222836 -0.7295260965348405 0.3879401291596738
Ni 4.388182773405291 7.174036883386096 10.530537672521225 -0.5178865111445403 1.2256415345508762 1.5962740256700378
Ni 7.681695419844184 6.740212777530179 11.48829842664823 -0.7459173934086702 -2.76924136975565 -0.3517207418163233
Ni 7.51948991972287 4.48505106114743 8.441681135632543 0.8012927848551813 -0.2189273773009649 -0.9389347357120926
Ni 2.949695096190199 8.937127433513368 12.69204816625465 1.444090943774158 -1.0198807765388564 -0.992321121753033
Ni 0.412338021583666 5.518577764083421 10.221710387763695 0.2051195248835951 -0.2394638066914198 0.35852542344298255
Ni 8.733852045314247 2.7757488160510917 5.8737770183540325 0.272895089766672 0.5097790515460575 -1.1526674561859955
Ni 3.5531346419296335 2.8802006426374076 11.572385253560102 -0.028590667153499144 0.1122484504844712 -0.3168874361872219
Ni 1.3836760512798836 3.64652181123848 12.754418661690808 -0.6183901623882576 0.12668390918351086 0.18631499058258236
Ni 3.2345163689487033 -0.11569099662513878 8.065776992958567 -0.5958855535278382 0.15479378004584954 -0.65869246155173
Ni 6.155302649593145 8.401254477837423 3.6351327977815306 -0.774113653337228 -0.5463151987988785 -0.26146859309728515
Ni 3.4074667385649007 8.87498809896005 3.74251570781509 0.1103401777181648 -0.2256230441535856 -2.067053813134762
Ni 3.781216425263626 2.9513671294534336 7.033089047692329 -0.9469869165926078 0.0296666738264973 0.6513751019547104
Ni 5.149104096877558 4.591933274881398 11.841696818863193 0.8056490049413481 0.3665272107015365 -0.8068630798541071
Ni 8.484344480547005 -0.018463632887126182 2.502618984623926 -1.5209587007664902 -0.7790967083741163 0.16957890877482407
Ni 4.711926787701383 0.7781514891979899 1.4835585672927374 0.6494341761782557 -0.7618332933079782 0.07861199337694849
Ni 6.388537584623663 5.903492612791285 0.4581060490273479 -0.33470955197030744 0.6166310136053057 -0.29948775265353583
Ni 8.026262187183507 8.952979770735835 11.632468809511083 0.31512005987415403 2.2858562348220888 0.11887341200015657
Ni 9.279693243013082 5.245478997755135 5.632467898652912 0.04942097363528908 -0.9351582993887959 0.8553250320102366
Ni 7.44052061101175 6.202868798054338 2.8058700841325397 -1.281801883792528 1.5872695081785824 -0.3900306931401154
P 8.736245885286747 1.8061431224571105 3.556983973152588 -0.5421749513782598 0.919724481332229 1.2962404278153612
P 2.0619185277630345 3.464918897904889 1.6624981052370775 0.6706372926184322 -0.11924853595138815 -1.3112225030464901
P 4.973942623164625 1.303683421664489 8.293125091751369 -0.4336024070834791 1.9115720058829528 0.944709947632973
P 8.698346464653433 1.8299627438628598 12.406489554237442 1.1672633517222994 0.5991755371330197 0.9807817536548656
P 6.690042642839358 8.088310153798943 1.3629638534414898 0.43552250692432737 -1.2638733243385654 1.023784739578953
P 1.9834243323288987 3.707071343672657 5.7034635274251 -0.15046661342540538 -0.18718479478204536 0.8593457231338555
P 7.074829576434187 4.222989541715248 5.957609842398594 -0.31307757552282856 0.7486113953010656 0.11698519383850821
P 2.4496475089576535 9.170508557244496 10.391917891884685 1.038331012824244 -2.9146148849288642 -2.8402033027865086
