# total energy = -340891.05415650667 ev
CRYSTAL
PRIMVEC
9.10050162102134 0.00000000000000 0.00000000000000

0.00000000000000 9.10050162102134 0.00000000000000

0.00000000000000 0.00000000000000 13.31950401516541

PRIMCOORD
 96 1
Ni 6.6610576579252285 2.0060418032687934 11.395461739657655 -0.9916233243550598 0.43595085271099754 0.228802984543464
Ni 4.675428280097077 0.031848115948317254 6.048026928428905 -1.3247030540314284 0.4957845370391784 -0.1670628272211897
Ni 2.8429512463351725 1.7247634949676762 4.694698592567234 -0.3085020403370042 -1.325158139290976 0.09561521280316437
Ni 3.394414351295791 4.062291074730199 4.921903539529424 0.4964003162463063 1.3539318689895585 -0.8112172430577449
Ni 5.40023774252242 4.539912708435633 2.7490786606629567 -0.9282687713578143 -0.10663598939370023 0.024710615372802603
Ni 7.182206991533736 6.207306640328046 2.61529764463637 1.2575352979356793 -0.4549127385254811 0.9554023943498128
Ni 4.907081552318021 4.589583247024591 11.5407239487007 0.3426776577774485 -0.2667619802857406 1.3074357823105482
Ni 5.42530052436082 7.8757380294207415 12.595229118924198 0.28300878116190614 -0.1535025720382518 -0.5449468576964421
Ni 1.8955890134457491 6.665362195256224 0.39431473057293503 -0.4104951316420543 -0.336316234335795 0.1656273803262438
Ni 2.882329117437118 1.7002649442382014 0.22270474884342079 -0.46916230646595974 -0.01283623253271983 0.4031281497540218
Ni 0.5259452980343752 -0.11455620606521398 4.764400245573223 0.6830495502398559 0.9547115389303751 0.09348016873803254
Ni 8.434008309695493 2.139582566048999 1.3335483952931286 0.3740759695830719 0.09159786411365516 -0.11319487355814054
Ni 6.752062675493857 0.5883383380794269 4.864535796554512 0.8220996942982034 -0.07591979125676604 -0.46067149538612917
Ni 0.9660637639997767 7.683216914754307 2.7218272081520305 0.010716615086555737 -1.0995150405327323 -0.904496608638881
Ni 7.573628672598165 3.7970478505246748 3.7158085813913355 1.5721611917822342 0.16068083495424584 0.5358083857302837
Ni 8.0887807755489 3.812154683441067 12.627210102198164 -0.8756637435675887 0.15282122970051099 0.31085074307483884
Ni 7.895367811710294 8.957460070248487 6.987638263972008 0.45966285161595677 -0.4021254195211204 0.20643001616490256
Ni 6.8966423469051366 0.5177166243458198 0.15085264727228578 0.61735529336584 0.7479480506854539 0.5782084479630494
Ni 1.9439763812869888 6.548238737645399 9.525190322099498 -0.5502649274752459 -0.04962074835092099 -2.190011422506622
Ni 0.14041801195786682 4.610132179991587 1.5056771056227842 -0.7584592346294228 0.30275871009532374 -0.13022174713344026
Ni 6.408445930158228 1.8392205055637405 6.995643065317345 0.02925452598974317 0.5943171805994538 1.120918960129805
Ni 3.8432328969407537 4.363017155285733 13.980284534060818 -0.7355399068290881 0.6411241136506636 -0.36807552902526286
Ni 6.059487190291322 5.495911317492319 4.839215470516393 0.2730341864476975 0.7590104791472025 0.5808227456574448
Ni 5.231004811851798 3.188187880983522 9.308947839553625 0.5579856931582713 -1.2379427205157325 0.04412732933651755
P 0.22747341176401695 5.80024119674357 12.523916677107245 0.24415786973297948 -0.7568718355376448 0.33157357744448707
P 3.866430075918997 6.223896855030807 12.848353204940109 0.5627388915725404 -0.8278057435440452 -1.8683625603750145
P 2.6051460349265896 8.632854273082947 1.5822368967527445 -1.018912241978 0.3645196933532045 -1.0249340226920476
P 6.375411108780816 7.696894968894872 5.954551124633288 -0.17779692580924217 -0.47800844400268006 -0.6469070388810279
P 4.830964955623621 0.9346761334403567 12.684150121590505 -0.02886526097112448 -0.18802631684673424 -1.540664920946166
P 3.94726983302521 6.316212344852423 8.165655444039649 -0.04182593489685055 -0.17343839173023035 -0.2688270903448854
P 4.751663183314318 1.0640215649106484 4.0000864150715145 0.42067464327821746 -0.559188712327437 -1.0920174466041064
P 0.18375824152475054 5.55236172989014 3.5969451078445984 -0.49183763657628843 0.17262412335905108 -0.7126771432983016
Ni 1.5351454403616818 1.3020451883613966 2.604095837023847 0.32462028605510546 -0.5644980403554923 -0.5990212709433426
Ni 1.7861463793177164 6.571399514616615 4.731713973413099 0.6155951161416237 -0.6264955651042113 0.424136890795205
Ni 5.582129471136838 5.657863846757451 9.653457344111603 0.5345639718002213 1.525431391825863 -1.813018279276755
Ni 8.84069153220618 2.553791903512612 10.443530144836112 -0.7562606843162072 -0.4570022740646581 -0.9870727288698999
Ni 2.4477164550346187 5.0737026389844235 6.922999220093363 -0.03427691890499903 0.6639513959578243 0.10130712098161909
Ni 0.21871963912409056 0.24652349209165794 9.264780374377043 1.243735930158742 -0.31183727535782424 0.6311418056269711
Ni 1.53567326946358 1.2935453197204865 11.416107137943275 1.0165676530052234 -0.6987587334449965 -0.07817310606731699
Ni 4.197506329833668 7.17262416318376 1.3375580763672026 0.3920320398408603 0.2232486303841381 2.4138619481408172
Ni 5.666026996833357 8.130825093665607 8.075602338954788 -0.749047968617852 -1.518154655658792 -0.022064950219839417
Ni 5.489176946192241 2.8913477146781696 4.939205413469573 0.30682876639963935 0.5689172524691105 -0.054465478037732
Ni 0.5602114172994909 7.312362367660389 6.719556593268518 0.2560247963738945 -0.19969886808865608 0.8271382851633755
Ni 5.146424748523515 4.4177839748585335 6.980992167538972 -0.0207760562050868 0.8270930337477368 0.5177273598588568
Ni 8.169939050216604 7.233188002375682 9.335973599620983 -0.6821933728871478 0.5642357878330412 0.23925169068061375
Ni 4.690380404483603 0.06702246528876789 10.37870454067145 -0.9776115834570003 1.5910446589502985 0.30410211149709565
Ni 8.187020692014235 7.243644478894318 4.6371324586540235 -0.874618590132526 -0.9457826118718615 0.46751037268483353
Ni 7.429285614232563 6.039493387931495 6.999119456988466 0.06611900311626033 1.4489582991687884 -0.9690562376878215
Ni 2.17317251803358 5.317714392591188 2.5657090105632236 1.2960769056543033 0.3698197654098792 -0.004321253083173203
Ni 2.389800861853943 5.110013640994307 11.478202591580876 -0.10549313403850863 1.134651222114233 0.8196910848567108
Ni 1.2440749921701801 3.3808546036780656 3.7765589808692734 -0.9658562426932851 0.09162331803495188 -0.18034488904207652
Ni 3.9349568541481745 2.736156858218387 2.45501141724292 -0.6374788035885924 0.07147358255995433 1.2211454464527356
Ni 1.1073399532733157 3.8304648929758747 8.346720847094543 -0.9186374189156372 -1.2805631262894204 0.0437869152779633
Ni 3.8231298885598437 2.437933415645991 6.8259796809136235 -0.5574079662779303 -0.37220317804039127 0.9047699169049256
Ni 4.096836579399251 6.685228590591456 5.807384180572531 0.06963164425520911 0.39279951413450415 0.35927592845576184
Ni 0.8597025597666177 7.598964469489271 11.297590393513474 -1.181139081263127 -0.29151270486785924 1.3719373044280436
P 0.24127523272847515 5.847481901363445 8.33846214175019 0.07635559324260398 -1.1112402993894603 -1.620387373778474
P 8.41086573372779 1.8335508929692148 8.130118894729275 0.030270368848767226 -0.047219595108596094 -0.02278640176689624
P 1.8146764523254812 3.2964565503849195 10.442771162989589 0.3150030746803155 -0.3387623818834424 -0.1530135482169752
P 4.021065801771611 5.961893409450725 3.660452959354866 -0.33605963824029866 0.7371129077431627 0.4699814599331454
P 7.026379099950973 4.205860590446468 10.57669869709446 -1.0985123102998307 -1.581905672763508 0.6649443559987128
P 6.263247424627482 7.738502462927249 10.377971950280022 -0.12052457445033438 -0.6672172111932896 -0.024836342317389484
P 2.3393476801138955 8.450097996801626 5.882426008009447 0.746108940594186 -0.3588894916506207 0.1671723562158605
P 7.033987119419711 3.9575807015157354 1.5300118473206354 0.5088524259667301 -0.20669406845956662 -1.1879959562839604
Ni 5.448470401833793 2.7207861107510456 0.2784817241112333 0.8751220121315058 0.9774760863204004 0.42369157572767036
Ni 1.2435744645735527 0.8157798980872949 7.0676753568232655 -0.1691395072445603 1.5451574094998808 -0.36045889302026957
Ni 6.878778061956415 0.5417455891846404 9.32948676196869 0.2639983014976744 1.5489292178374872 -0.43737035876634345
Ni 2.606356401660252 1.5877099385093218 9.12116990640287 0.45817109756177865 0.3414206454418959 0.2733054378312132
Ni 6.33072764515462 2.0124212550003544 2.735186744731106 0.4696523587285008 -0.6146589774805995 -0.6206133952918215
Ni 3.8129737285991845 6.976362742295255 10.73770477417688 1.276927586419362 -0.4331498929270927 0.32371088686695865
Ni 8.313035339841514 7.065993584098598 0.6795435666867065 0.5282603981796967 0.5584580048089994 -0.6204822690305959
Ni 7.2969188161789935 4.332366665368618 8.38464081781504 1.2815709987286446 -1.7046282833064257 1.118116200573687
Ni 2.9801140088146094 8.570743348592357 12.426617752523569 0.5828179217106026 0.10815911090644598 0.4068727043981187
Ni 9.081800225752504 4.931361691005332 10.394514842373647 0.7587381993224224 0.8191244137199634 0.13485616058165806
Ni 8.49513637999634 2.0750782095963554 5.629874343554043 0.7558374807358597 0.9577809218843182 0.8999804659360823
Ni 3.7494795278415523 2.4365683403824616 11.32670653883438 0.5520433595319073 0.330557734585463 -0.02430335263205492
Ni 1.4109872948928017 3.5670599701252366 12.860088301955582 -0.7254876647994086 -0.5852926085033404 -0.1738273996385329
Ni 3.0288835977296378 8.505865871567682 8.089001917741593 0.7556847572080791 -0.6081695131015139 -0.1594420774511383
Ni 5.672916076663302 7.969891820597244 3.547942546084595 -0.8899202534866028 -0.44627974544083143 0.18246219249539544
Ni 3.0405049384731515 8.46667911100263 3.6999855389866783 1.5931077121269146 0.05042524653008735 0.8467743142267482
Ni 3.350158611252167 4.5738029769781905 9.379914462303818 0.18164561013137104 -0.5862431453420678 -0.7532283252477866
Ni 7.254028151398898 6.195849108616155 11.581868227193654 0.30474797261121067 -0.056705166001528154 0.5655565635269937
Ni 0.8122070410975505 9.048128369252114 0.40759509278672507 -0.5124326871188207 -0.056555013576909056 0.018097223821343027
Ni 4.513712363877625 0.6735062938212037 1.6017101504120794 0.986730515039133 -1.9792989769162814 0.5383933728486405
Ni 6.134912148852202 5.813245813754127 0.570636952112153 -0.629622026548335 -1.012919514729675 -1.2301795316305457
Ni 7.922004980352631 8.88519298579724 11.333592888513797 0.31897979993987646 -0.1833188840687359 0.6545555565652211
Ni 0.17769730735467987 4.670077185064042 5.60486070442513 -0.3126461444123648 0.16196895763805008 1.0847111427506804
Ni 8.080635826476508 8.794551988298887 2.6376612176536844 -1.1214792035086492 0.36159763461040306 -0.6860597978210894
P 8.69251716260094 1.494584504031344 3.584957926930459 -0.7670356634445241 1.213227734267556 -0.5523709180746551
P 2.051853729112841 3.2640405631269735 1.565494703670644 -0.6853918252197874 0.252482587548591 0.6023701328109174
P 4.800605681762726 1.1546170599002181 8.416754668414658 -0.4439189585181386 0.24543905043824826 -0.6243810898643698
P 8.882644845305318 1.4238827058822765 12.495653248800956 -2.184548342509522 1.1807115068074052 0.8150543574156478
P 6.3836288618672645 7.993280110112381 1.4214574221640723 -0.4327840249472417 -1.104423533577943 0.2077515631898035
P 1.696506437012617 3.028255663108414 6.01503487940975 -0.13528964857465087 0.338673678824378 0.9937324002782627
P 7.184982644569579 3.882610768042699 6.20507792744779 -0.7544580838898297 0.3709821611490966 -1.133007515863223
P 2.3710174262277786 8.66367767253344 10.280446423202601 0.14295744953255377 0.6539526328738995 -1.0852459322082277
