# total energy = -340882.8987599976 ev
CRYSTAL
PRIMVEC
9.14716415128945 0.00000000000000 0.00000000000000
0.00000000000000 9.14716415128945 0.00000000000000
0.00000000000000 0.00000000000000 13.38779934493801
PRIMCOORD
 96 1
Ni 6.477555091781146 2.0979386690094497 11.304470581916666 -0.8156287418618792 0.4136565600891715 1.0199851633272048
Ni 4.883945313987179 0.23572607705050325 5.83904828019817 0.9131535129829307 -0.04892783604895445 -0.5889870266357922
Ni 2.97309359178158 1.4438524075757764 4.818590656111848 -1.0334747131732072 0.4769234384686173 -0.5312711599815624
Ni 3.7414370796625662 4.726943389822446 5.0631986294781255 0.5034708499398426 -0.360541682542063 -1.1130860943489476
Ni 3.78846265016658 3.1238937387041967 3.117040683380017 1.6154241162359275 -0.6328335915070972 -0.8993176355411028
Ni 5.601211037679406 4.932315517610059 2.51105569894545 -0.8436499096651535 0.1434467304641465 0.38324709455937866
Ni 5.8766778837654545 3.4455537633635323 0.20023873930932995 -0.6420376266038684 -0.2998924442911222 -0.5983450708119243
Ni 5.754288828456429 8.290029064371755 12.295689296040708 0.7780230156939633 -0.06685459573070422 0.5875317822465043
Ni 1.3478803621122262 6.814756148202069 0.5096799821987257 1.463927261773795 0.9359152321594785 0.8463513677567167
Ni 0.33214816298649047 0.1393661918302187 0.2828476927772932 1.2948931697588473 1.4533075772764195 0.2665184968163668
Ni 8.349147185781488 0.08690446171707528 7.129739657803851 -0.20649017997887664 0.3094286659163316 -0.3463052272277068
Ni 9.1382090002899 2.1925386398619127 1.4803157477236368 -0.7798675251018699 1.8516704444313143 -0.6418512216246752
Ni 7.217423457900025 1.1039620849171217 4.871833554036904 0.13673589410287418 -1.7070957710103116 -1.0397032105814223
Ni 0.916353749761058 8.129889662929667 2.614329010772802 -0.33619667803879516 -2.218456308110876 -0.028835436174453565
Ni 8.201621723597334 4.542390207467071 3.677266979534808 -0.20893092820988535 -1.2699308433865548 0.09599727873293144
Ni 7.879229925812084 4.055907433359803 12.485568872036326 0.5877068743717878 0.7469558619755136 -0.2873637156964922
Ni 8.23002366804685 7.489633913575759 9.182570916615589 1.0186296777405748 0.5957302588968966 -1.1907663199402458
Ni 7.01067010833725 1.0089779331735542 0.17774677756797233 -0.1616822796355667 0.20531827115796253 0.07376006460128587
Ni 2.085599144673734 6.6790305276732695 9.173976241251733 0.7959852565993388 0.6579347574500991 -0.6767107525060216
Ni 0.34432761195091266 4.759040788557826 1.4267783111154004 1.2784656203304434 -0.8917287674502513 -0.12907066424813254
Ni 6.519613752193022 1.9520596963586014 6.862612281203995 0.9396559301488333 0.9659696283426975 0.6216832313172326
Ni 3.746028956027673 4.534002258011288 0.41641275315183296 0.1352420831661671 -0.33033250594853436 1.0228326600783288
Ni 6.347573890290767 5.574720850521339 4.890107758423778 -1.5702086960415538 -0.3044425255556499 -1.5494994885186604
Ni 5.775098626724592 3.201351924082136 8.99870285684935 -0.5174633075641928 -0.26241758727411585 0.2834975478728666
P 0.6730867506480165 5.84340050086454 12.259007338671482 -0.7985221640885796 -1.5039400547213064 -1.343299586086693
P 4.192373974178588 6.542298719096339 12.75169097530446 -0.2901273944845584 0.7742427227159248 0.25868768791803837
P 2.3186414437849496 8.712499984289744 1.0686384814128713 1.4175802990781394 0.42240936658113704 0.290054632265094
P 6.373442070291809 7.484904829749542 5.70178319195573 -0.26734330671050727 3.0279475696164497 0.08060099878251925
P 4.723284524192879 1.5670921491436771 12.84308943873105 2.3264907205139997 -0.20747182716585558 -0.9628138563225355
P 4.310774865951387 6.407414637662341 8.586492310873075 -0.2864136930783971 0.21960229188080246 -3.856402002488087
P 5.216161165987817 1.2144049439456106 3.5434695811927903 -0.29372436780719735 -0.2921374829360517 0.9869832544798872
P 0.7342574956759375 5.961215974136607 3.5816242319779183 -0.9285425938444911 -0.1019612096258502 -1.010592152148079
Ni 0.4100051647180532 0.1560396425041569 4.511112394632716 1.1198205848593037 -0.3120946427842689 2.0335685368931236
Ni 2.2748082335427333 6.734562960766027 4.798160465152751 1.4650330932434639 -1.1443260261998356 -0.8695185499017992
Ni 6.399758461332471 5.779333763690817 8.818235712685794 -0.6046931245171392 0.8675804523388219 0.47155806039164594
Ni 8.706499444657252 2.5237117151581234 10.567458875138072 0.39358344348838026 1.0705178819694339 -1.6025354331987176
Ni 2.6185861009328035 5.491481657448682 7.018352811442933 0.17470311737526686 0.47808943375226043 0.7156943328580706
Ni 0.5184082061580586 0.44112015803189353 9.3912470000667 -1.163633468279196 0.653207784288075 -0.5647340676256984
Ni 1.6260090329437848 1.2638179242729173 11.567259458596263 -0.43503656842684435 0.07945737209637929 -3.1259287115486294
Ni 4.551930699596168 7.147978188250836 1.4283443056048555 -1.1252661813549074 0.063401089964465 0.42684606219625193
Ni 6.229977948956474 8.092395437390676 7.898346584010167 -0.9426826327902991 0.5536112182396594 -0.4775168490782421
Ni 6.08676994821521 3.067098996969238 4.523576320399837 -1.3672501833650195 1.1082557628398397 0.6804193117058605
Ni 0.6441561001150277 7.432107398714886 6.197051817155997 -0.08784071106406809 0.7096476124433585 1.536217940918406
Ni 5.241928727184044 4.5053533401317765 6.976770718279309 0.47466729544458897 1.3709739120735098 0.8363317787371856
Ni 1.1353277105265873 7.930701018056023 11.240476107339127 -1.795563059914785 -1.6357324887759763 1.9290894459414258
Ni 4.634291764917728 0.6543112816698918 10.307132415027175 -0.1852826926633261 -0.4496406914932643 -0.21979461039726664
Ni 8.127868139669332 7.361527880720533 4.475193310747253 -0.037704970749941516 0.29213953981858076 -0.5901859320398997
Ni 7.74279082648552 6.228980908072416 6.694435266690155 -0.06878292310166863 -0.6097736243638402 1.509741491894432
Ni 2.514884701826792 5.6109253259259075 2.207728420523061 0.8082874710054596 0.10545970969741192 1.4176330066929457
Ni 2.866940752703758 4.995595598673425 11.77360575935775 -1.1471069313790825 1.1392712373847476 -1.5468561373585425
Ni 1.6764373484832962 3.7622743194229518 3.734031535628322 -1.8723529124813303 -0.09742501231839351 0.5887047195086829
Ni 1.7544809523619669 1.1771668390006893 2.5899499890829953 1.323832478501017 0.9478739471832515 0.29208657509345826
Ni 1.2262779629135567 3.8235511715541306 7.956275574090291 0.658806104311459 -0.8752755069902345 0.5153094944459835
Ni 4.17853431493475 2.6536837694844277 6.344505016743968 -0.20244583470617392 -0.8073729296109903 0.7985918409842504
Ni 4.359355454347967 6.985698350415452 6.236170579034517 -0.15060519588579868 -0.31230778723633956 0.16214250710143688
Ni 8.466551036670229 7.501891113434809 13.015645200687075 -1.0893558406115433 -0.860124510281409 0.1828242038205045
P 0.3484840833061011 5.988053753529483 7.948149233527022 0.8615931244071355 -0.29810038538770595 0.07188007396975363
P 8.909447573965277 2.107076685919294 8.1404244517936 -0.28536108344416666 -1.5179605373701148 -0.2735905731717998
P 2.03721979388678 3.3461606785363363 10.329209095519577 -0.07563414169554716 -0.03966466557947363 -0.12017413308945109
P 4.365054137566018 6.439823039976233 3.774569937371113 -0.41276310174062464 0.0024209507366667986 -0.9294771898436186
P 6.9307787773156475 4.459288221855524 10.40979012271235 1.4759124591601291 -1.3413452905737997 0.3357426212205121
P 6.224398178871383 8.138497144323225 10.17952032903194 1.4471418147853399 0.19133712638752207 -0.03430802925325059
P 2.4425946641506164 8.655732684047006 5.681594486128185 0.5447041455580167 0.6425932419970223 0.6457904087780814
P 7.403202360241304 4.588308971118141 1.4139119101290272 -0.6714417907975985 -1.4578028940436119 -0.5960732440586122
Ni 2.7257908638791255 1.6040741334945288 13.368466869197029 -0.038225104919469656 0.7974338161204072 3.122657754106841
Ni 1.560963549214152 1.047505788252898 7.025916601415657 -0.07713618016237037 0.4953960433515081 0.026835375025289272
Ni 7.075706444902809 1.0701175778436238 9.156370694558664 -0.14818141693565448 -0.5475565274051473 -0.25872214070039956
Ni 3.123207701398653 2.044427759177028 8.788755317591963 -0.5467612851973616 0.02763730210129434 0.3462062397559973
Ni 6.563913467803007 2.5834518437248835 2.322220729087074 0.3588995189529496 -0.3857541772519485 -0.40199532170115926
Ni 4.148229760357859 7.208322029646476 10.459901031658497 -0.017263672176454137 0.7148728653980398 1.36593583542897
Ni 7.719575324065915 6.537075688410131 11.180713110862182 -1.1029595474379068 -1.6837789506612422 -0.32700292735466907
Ni 8.056245844970551 4.1055307984608085 8.391646739501727 -0.7253927910927571 0.037373041331819505 -0.39368705894578004
Ni 3.455268051610034 8.766376780685121 12.219754113481077 -1.1157191610964203 -0.4777040253883837 0.9386750542928027
Ni 0.6010976546698723 5.2569026347730485 10.102138979832223 -0.9182278421820446 -1.3722322099606432 0.957578576065525
Ni 0.047513114349153646 2.519055808644499 5.792887116699141 -0.8287148856218759 0.6363048378851492 0.24323767191155526
Ni 4.179522208654734 3.0463166401932957 10.99747437598423 -0.33414648037798583 -0.9473026480608138 1.2524619971778301
Ni 1.2263877288824436 3.5189689022208 12.808844285871116 1.3086357161559203 1.9649473361802998 0.38851528493685344
Ni 3.4845755653028676 8.784607078684441 7.748228815527464 -0.8470144552620121 -1.0897998701274973 1.3161775330589203
Ni 5.880885579239457 8.148376081523056 3.2426989351290616 0.47736978197741664 -0.03653511881155643 0.6194052339163332
Ni 3.3785873751783764 8.595974261152099 3.606833816165637 0.5520775552039524 -0.8135093815260312 -0.5343266589784346
Ni 3.708818292574974 4.570901917885474 9.29399801049843 -0.4889821694053643 -0.5533708200940792 -0.4204015921224889
Ni 5.379648429480959 5.140523266260587 11.67562042308153 0.010016503695737589 -0.879631212855769 -0.340487077884033
Ni 7.924051029774284 0.3664573459949431 2.5943543485845866 -0.22727626348629243 -0.8305897340470857 -0.34813765245075523
Ni 4.365831646512301 0.5404830572176456 1.6426431508122052 0.18606225114182792 0.46277105822763526 -0.9623063205584974
Ni 6.363800959357898 6.214473505851182 0.2205948382394277 0.4227369251238849 -0.7074958562076783 0.0572119304346176
Ni 7.988675743956517 0.05781647996201518 11.26747945040174 0.13061872546154277 0.06877315290965574 0.051332331725389015
Ni 0.5078258520409425 5.019954496602271 5.7398445416673045 -0.12245804402762137 -0.45334282293519984 -0.3506527055631251
Ni 8.057425829136086 6.489428110749092 2.1579394917523165 0.06138148843127492 1.3119066735977083 0.4168807234534239
P 8.946365528167611 1.9445773161461362 3.692368032704439 -0.18139852711757146 1.6364125455621366 -0.659649940368993
P 2.166743637173463 3.212319373806764 1.6136310905189586 0.17626172011163838 0.7050142274364052 -0.8817354036829653
P 4.973075280723439 1.1190640528031606 8.104919734440685 1.0148864086480587 0.8633715564637969 -0.4001662389122205
P 9.0403251975349 2.037494208808998 12.565292809955375 -2.955609839283987 -2.338599330852076 0.9667103631634641
P 7.0946044858795245 8.10982078495149 1.1302958555695248 -1.568995392459743 0.9907602050238163 0.08363978560884305
P 2.135954282900654 3.2906282454435782 5.894473691471263 0.41115179138944674 0.47104769641413075 0.5392570064005165
P 7.199312073033667 4.053373668911327 6.125694790215362 1.1304667517192402 -0.5036479989476551 0.2701046715057283
P 2.305295731401103 8.733849465238269 9.845467726485259 3.7515369889518806 1.2184424456992757 -0.9065414069830516
