# total energy = -340874.1457771447 ev
CRYSTAL
PRIMVEC
9.17974039438669 0.00000000000000 0.00000000000000
0.00000000000000 9.17974039438669 0.00000000000000
0.00000000000000 0.00000000000000 13.43547796956226
PRIMCOORD
 96 1
Ni 5.883561721300327 7.279350401927099 5.785894793173183 -1.0302148114750127 0.575816293581789 0.7479951018733053
Ni 8.533367174551952 8.875450193956997 12.054847712301987 -0.32512576493661427 0.19374393605680182 1.1126068407196839
Ni 4.23968138141042 7.002131426936814 2.327132076573802 -1.1154939324594917 0.6482203583758126 -1.6718225496303143
Ni 5.693265706480346 2.1934530275523603 11.970191229992707 1.4258731352145508 1.0281391598929068 -0.47747622564829373
Ni 6.661627322850101 0.6171722946636268 5.835202849806278 -0.6954893186651054 -0.24599492294171826 -0.37401272044530426
Ni 3.0345559052125437 7.641344277875538 5.161104232098601 -0.852178515961455 1.4522534249802925 -0.7802771018354626
Ni 0.9916689767956073 7.403735881946913 13.777545301745409 -0.31293642195927396 0.04409184811289181 -0.41192775032352286
Ni 5.302318929868992 2.5992526238443086 7.114353751161332 -0.1524849294070148 0.5311333488521176 -0.2134748388268259
Ni 2.4448769325163964 0.24401126473407297 7.600060232171249 1.1378113650097694 0.052794518093212305 -0.5328043087966372
Ni 4.991731599168594 9.003535109286625 3.832644356136429 1.2805615836275235 -0.4060563791444104 0.9436200570029039
Ni 0.989117009013651 6.375430561921854 7.17433050188144 0.8167523139433611 0.7584165543169454 1.1105065065472295
Ni 5.069860368205394 8.033879149545447 10.421725109979254 -0.05039079374772612 -0.0073204449208132 -1.148537493178022
Ni 7.27431990428497 1.4648295068429356 8.048872419251452 0.29256274339892835 -0.15486474249310103 -0.6850910061499169
Ni 4.115562113857068 4.31380778371005 11.833404838905825 -0.5642165045593315 0.3316568811869127 -0.0026914307892340742
Ni 3.8772193387106144 1.5110219596443897 5.386941447139446 -0.4907456890636903 -0.41043136828365445 0.4105627516551961
Ni 8.977703320299485 4.9734455566446485 10.448045261146252 -0.36949272108776365 0.6928907046999937 -0.28312370947321563
Ni 1.8970300360158425 2.8428921090993557 12.970207344572964 1.649397902078211 -0.05236900052001948 0.24497522342795228
Ni 1.5015943664355078 2.770583295363852 4.190606490178986 1.443063016730276 0.15072166685900493 0.20149298387460138
Ni 4.532505914779574 4.302443265314144 9.204108761260127 -3.6094385449855126 -0.5787064706453905 -1.987605182789132
Ni 2.127257920805284 5.047269027516925 3.739402062796705 -0.19576559447252093 0.4531155374157422 0.07733261244389263
Ni 0.8474726994008293 0.7013293991047816 2.7315134030013186 -0.3229927777540115 -0.26366482941765557 0.5553801372146242
Ni 4.629361353871018 2.3079243881314806 3.261422169132373 1.074333141950466 0.7008233292835092 0.2637118806055071
Ni 8.193083384230587 2.807531749760882 9.64495293382688 2.338741512856895 -0.7283446746322294 1.7330880813090155
Ni 6.471074275303878 5.773147805899714 1.5060364427293522 1.174064948025165 1.3756317225604953 1.5753691571965707
P 3.0010314939186427 0.003821525854778495 3.468368396768586 -2.500590657087629 0.4626908398090032 -0.1303418176510723
P 8.273534627543771 0.3747463710660424 1.1290970317240674 -0.2120879857816283 0.16786526851782704 -0.13215084583535305
P 0.9175242150155306 3.2071166619219507 2.087524333224638 -3.4112067483606863 -0.22541941278321176 0.4909200098580255
P 8.752359057308608 6.099735423808564 1.2339131415367788 -0.4746750087540728 -0.1958859221004691 0.35623251364374775
P 5.69109928778775 6.4736354228260575 8.641887309544588 0.1054540532704571 -0.17498388184047928 0.1522571296669249
P 3.49268002077482 3.6935694558119874 4.931330744450191 0.5787324387873194 -0.159851397074415 -0.31109371232358035
P 2.452064669110899 4.368115126868517 7.970986913330558 -0.030343645288863873 -0.019529071171863144 0.46889439751655376
P 8.568920308435105 0.07844271615242181 4.503813718738989 0.16198669824986295 3.5742823087993543 -1.129724731346893
Ni 1.770083408473849 9.395096928492912 11.405592225559449 0.20998996560201902 -0.08365829755160431 0.3338973404816572
Ni 7.328149900951847 7.179052560252082 10.578947438750276 -0.04223036942412082 -0.4900643467259495 -0.26510541851892405
Ni 8.101414498365061 7.651175779654226 5.571826923072072 0.9639070893867141 -0.6000815938870568 -0.8267248517750407
Ni 1.3446299883647477 0.7580739632924186 5.346272444030089 0.29804304978720925 -1.4023138598373721 -0.8273966810310847
Ni 7.220232874891852 5.549217222903156 4.309845807829862 -1.23126710826777 -1.3726888378820876 1.4092252422452247
Ni 2.12381551822171 7.610032183975347 9.263238221957662 -0.8864749752504797 -1.4158229500674002 0.16515661133741233
Ni 2.661803373722907 5.447055893962896 6.043035840348019 0.6210353133205886 -1.3975195237725222 0.053796734105481546
Ni 8.450290525535028 2.7943129238399567 3.6512122984756457 -0.8073410479317903 -0.8960024551249406 -0.7497938456449409
Ni 8.590198946271705 2.160607917034951 5.993055826730611 0.398203715869211 0.2593793146684243 0.16314420889307385
Ni 0.26079641973158074 8.677544174492262 7.239021967180011 -0.9150137061201209 -1.2020496061635493 -0.668107841328359
Ni 7.252288527750094 8.331238474584698 8.368502712045393 -1.8171186745983736 -1.4304435281940526 -0.7535090897129991
Ni 3.637940230061428 7.1730949088474425 7.418882453314639 0.7221773694792529 -0.19255685772723613 0.9503283222610148
Ni 0.7969308856817818 7.110764472734193 11.310455233837724 -0.34108125982460613 -0.28532431666896024 -0.15194191241935123
Ni 2.7849771280333036 2.6673112178566263 1.8430650971676887 1.3695474640396283 -1.7914534086217857 -0.6874456224250226
Ni -0.18202047900906893 0.026366049868111446 9.506783155888415 1.1774685743900755 0.8345284069798595 1.6218385044027035
Ni 1.3494218127610829 0.7711807963826246 0.35545881888378184 -0.746152906458244 -1.1955879096986055 0.23257684976359944
Ni 4.206882169594125 0.5847558780146253 1.5220918083791422 -2.846874801269413 -1.6568615574451078 2.399109472421991
Ni 1.7562220007373237 7.360095396927416 2.778174940528161 -0.33645713078903344 0.14050898799206124 0.4594296525592282
Ni 1.881819206466556 5.019775705549446 12.222254044876255 0.6556619022555225 1.98954122346958 -1.7865220327584392
Ni 1.6879981714009946 4.996468345123593 1.097414994292895 -0.7769004720537459 0.647519475654046 0.9941525185348169
Ni 8.10157055394885 7.466167295202615 3.0663389197861672 0.8887887109853211 0.36940247536680254 -0.9877502145528989
Ni 2.0200018360413354 2.639349729137781 6.692614453946402 -0.41662489868887603 0.4838075671829603 -0.22828516436678106
Ni 5.4129256198142865 6.138473927549052 12.719179086412534 -0.5303645890068931 0.07056726869560105 -0.3393797037524671
Ni 0.15926298502256553 4.133728819758117 7.9456343067830515 0.03071928346072774 -0.4192798198132199 -0.29349733939805583
P 0.7151706114128168 6.521994294320108 4.678448178764741 0.5098045054673543 0.9051771796456733 -0.07538423046827016
P 6.087709964116611 2.725639287232707 9.607897994443267 -1.542142533932957 -2.442607652814942 0.6609465476932295
P 4.026261600969042 2.1263032278221066 0.00543165228986893 -0.5409837592836361 1.1451940306270858 -0.031656964783648704
P 6.274242285445218 8.05327594063636 12.293435586512391 1.2112238164636495 0.8795831332266529 0.5180472050921208
P 3.660577469451012 5.637039797615301 0.49108305485844894 0.28288665376174504 -0.34897660341228287 -0.3169949082993638
P 0.5233691191962857 2.003781235067534 11.608548020120782 -0.5294855288360494 -0.5823592369066294 -1.3693875414229966
P 4.538390128262431 8.901263623463691 6.5156823049428665 0.6255961932183935 0.9430503005423629 -0.167603273105692
P 5.991258433594974 7.059036636578351 3.5085545455422196 0.6186454729321732 1.2113240894869395 -0.624867285472169
Ni 4.466182291669378 0.07058944839176122 12.707825583704896 1.2471354427585943 0.1521105767867316 -2.2994470861326466
Ni 3.273440285032147 7.2780744180361205 11.638496004623855 -1.013425764942132 -0.9364713617732646 0.42560961868598957
Ni 6.762531027379827 4.322078729650852 8.445850285189227 1.2092864902316205 1.2277899483524468 -2.1641358402914403
Ni 6.8134602261362796 0.5967501265898201 10.53921844103974 -0.1281754061273728 0.36744098076505755 -0.11645528947696719
Ni 7.917406605597742 6.270552029875626 7.195666054107422 -1.4429534877356052 -1.2690283861769436 2.2550490196332458
Ni 7.984859336755351 1.9546879843556546 12.89573394809291 -0.36644133585594957 -1.3184935827866067 -0.017632625480098665
Ni 6.055287121649454 4.783608528835811 10.564894174443094 2.8439383443489086 1.6738480647007754 2.7562439290547176
Ni 4.973427197164203 0.8531586304948715 8.642492254425276 1.1309156663312008 -1.6152677931637216 0.20851183839459572
Ni 4.925536492421519 5.177492822318481 6.8189084019585495 1.091910488712597 -0.28330291536355723 0.15505783234051362
Ni 6.061217233833425 1.3605751971318634 0.7771549713196647 2.121624192181475 2.4851357559851395 -0.8925522917928111
Ni 5.390490334709606 3.9891020125468875 0.6218704857096888 -0.6975842535209212 -1.7563000006491043 -1.7873242169447607
Ni 9.016864092090225 4.979430747269956 3.1304125885677396 1.193743657401015 1.0557754335529366 -1.948352407936096
Ni 3.9179223068587956 4.5826181166561915 2.5036878562282 1.6885678874094532 0.21312825412068456 -0.650946241947408
Ni 3.5691656163117274 2.107310345301 11.223930674393094 -1.4672000189877958 -1.3036171798954066 -0.8070764814164939
Ni 4.493574636494406 5.914469906630712 4.444012301057138 -0.5570847786105566 -1.874630395661597 0.6916509187556218
Ni -0.0705095846518223 3.9369060096396793 12.694349725057732 0.3009900482306752 1.125180049399004 -1.0185574297417426
Ni 6.271378206495684 8.379982895168107 1.301775289108327 0.7255691687696213 -1.5151608631377904 -0.057669586797326484
Ni 8.009029592762154 3.6070412244712657 1.2387251613616044 -0.7509672971277519 0.3994005643907896 0.8565789590219957
Ni 6.845488339773853 1.0816855094210165 2.968071636648448 1.083239186190844 -0.3224232784037866 0.7561012759202075
Ni 0.3315869044342226 4.607302438115474 5.471678711162687 -0.9506790207322143 -0.7317002213680237 0.9041749636334041
Ni 7.776176302268972 5.968309083037813 12.709558718658974 0.5511247043723798 0.457423934983109 0.025184983906059853
Ni 1.6834266607700081 3.25947790015317 10.125244286079331 -1.1975928559437763 1.0738587734172087 0.6194903374309717
Ni 3.224347034320268 2.232925910510678 8.74551556097246 -0.08284865716611538 1.0331638668010077 -0.34307952120155755
Ni 6.558658176770229 3.0849893979969614 5.010841982364553 -1.523943494426427 -0.7683502684908896 -1.3520901877951295
P 2.9140534553070014 8.30820650636553 0.20377462738921326 -1.0375409128227808 -0.469928752318339 0.9021522767764204
P 2.6733239477026025 5.389829393413559 10.04256236589199 -0.069149562412468 0.5645556330663052 1.4559169898748088
P 6.247666937500025 3.766199560455291 2.587699920773834 0.5305008574744412 -0.7333246443453242 1.9212416677622335
P 7.326167077063708 4.399996364662526 6.356606586620847 0.6296153416801156 -0.3368849623550714 0.26955008455383894
P 9.047249032227906 6.929776714500195 9.293628669939478 0.6354247492730412 -0.23688653288254688 -1.440811758802254
P 0.45559601510489933 1.4561454725921057 7.856892840074598 -0.1336449138823763 1.8200872703083946 0.3186152175116061
P 3.2202161512199785 0.12436895648741295 9.788175240784014 0.9396261053521623 1.1984850287407423 0.3532032398991208
P 6.923314177383299 3.94805939401046 12.347633690762205 0.45536910933660935 0.37959072875371397 1.0387123074230629
