# total energy = -340860.1565327289 ev
CRYSTAL
PRIMVEC
9.34136308166292 0.00000000000000 0.00000000000000

0.00000000000000 9.34136308166292 0.00000000000000

0.00000000000000 0.00000000000000 13.67202910946092

PRIMCOORD
 96 1
Ni 5.1071380654317915 2.335863894677217 8.502921594040325 -1.1445790227509063 -1.7847189181114294 -0.7346024826164832
Ni 8.801404301329262 4.0909845859592435 1.6836555269194888 0.04266745696153942 -0.7430953505788428 -0.18751466731763836
Ni 4.169153112491935 4.554484340918509 13.265833231153312 -0.31485266514538035 -0.020620761574145132 1.3025892528515242
Ni 2.2966675350535106 6.658355482675145 0.4941553062884169 1.8423375970661624 0.8599643305544609 -1.315665112198876
Ni 2.3305486590657085 4.168863530235421 1.3464155040731747 -1.0435863476859124 -1.7783083865993954 -0.5481064863713464
Ni 6.419692996491618 2.691078568426281 6.737931752629024 0.048662498202709736 0.4290829219465707 -0.8471154996162508
Ni 5.577578453184293 9.232424136743337 1.047385392905795 1.0266787732972962 0.06306967476697525 0.677095132428634
Ni 6.178097322290491 7.160631235918016 2.234256019820453 -1.3930995403279556 0.6178795413004262 3.5117579650128876
Ni 7.750575681979878 2.7748052060114294 3.7845131449357523 0.9515380262983999 0.9953321406652148 0.4719848635164194
Ni 0.3748829137842673 0.7582113539593338 4.581702270621939 -0.25097797797860644 -0.29250463646748337 -0.09840408840221117
Ni 3.6666438251712306 0.6537216685820945 11.188286050650158 1.3332190619222395 -0.7245499834764877 -0.7692768940702172
Ni 6.498393980721772 3.8900705481168494 12.831322528343774 0.2125839515814403 -0.10087131899578113 0.2022853978689097
Ni 8.008490717540065 0.5019684223964409 0.0021214235630466617 1.2258842466893016 1.5891273873229277 1.571898682149467
Ni 3.5593302457248193 7.135297459154553 3.522434663835936 1.129362720021784 -0.3755888066831725 -2.005476663752914
Ni -0.24716406075300715 6.761362693726293 11.095480542255125 0.20204037173763914 -0.5068950451300431 1.4124699744347673
Ni 6.1749212588319455 1.1320517716201488 3.7055300515395735 -1.442133305827155 -0.7889257786493961 -0.7081067503187999
Ni 5.600502158264507 3.149384525494512 10.48313737572002 0.21645911826613043 0.8131892791824511 2.0753628472210903
Ni 3.807604994552006 3.483786642226984 5.853487756509767 -0.39594885839676325 0.2266365730197645 -0.20914021600721402
Ni 3.415071575165024 0.3727577536759753 4.114378161604059 1.0886055927090799 0.8993330621600705 0.2204348150844268
Ni 0.8403761156319265 2.1404238956192594 9.093129466541985 -0.6381699161183461 0.7660982392319193 -0.6348009996461131
Ni 5.814690273091001 6.049597531302954 4.235431017917618 -0.25494853259058026 -1.8175501057088375 0.479460088847542
Ni 3.292839838826558 8.77216583478441 1.1447018455482765 1.7415125579272848 -1.098712856346411 0.6685590699331647
Ni 5.516551327964637 4.851857294269577 6.811896665760698 -0.23193304553201347 0.9804351689487244 -1.0158066064694828
Ni 7.167599892800592 8.367740860154106 12.287695363006941 2.5463799475076017 0.99509071407837 -5.02493162251732
P 7.757731166124721 7.5718940883473085 7.647831897368529 -0.5417247512147186 0.9959522907477171 1.8122376923569885
P 8.093020712352963 0.5695036752971826 2.3574676651495112 0.40829401022567746 -0.34144635647350874 0.697442071516102
P 4.1434456812039375 7.331484767261581 13.115795993371586 2.5218228269935277 0.14457955851700904 1.976486961388783
P 7.676311845228575 4.507431894916457 5.257236956210068 -1.409387993075334 -1.630484610113476 -0.6889512604362715
P 5.051538272181005 2.641634733467206 0.4178186210622566 1.7498961540052895 1.2721486769734802 -0.2247578679398129
P 3.482506875480452 5.116909131248378 10.48472353917667 0.2740459155416635 0.8044876376433951 -1.347916258923098
P 0.5774382291256803 5.610992509040822 0.6864715535212635 -1.5125581354076207 -0.7160321758134637 -0.6829608471807915
P 4.8073737231237015 -0.14941136645313138 9.36454744248255 -0.5773098474081799 0.8146576361978615 -0.80079013418715
Ni 9.040692658841387 8.125435242356362 5.984671321119777 0.4592779574727123 0.6210965055758272 2.703408016200609
Ni 5.813802843595231 1.001571611652576 12.78649145849008 -0.2469678283779488 1.0151682015545354 -0.9949775855392734
Ni 5.396113133343938 8.10049380284366 11.03126334153225 -1.585148862291154 0.05546769405000125 -0.07563774123997295
Ni 5.268416699584151 5.889906928879869 11.543731456068121 -0.6493670703857461 -0.5194669682577827 0.4472433949056814
Ni 1.0276900629175627 8.953322889642022 7.817925975890976 0.5404746808577015 -1.3055719896289322 1.8433547254767673
Ni 1.32015880063411 5.8367358900385575 6.546482383893097 -1.37083841493691 -0.06708599501521995 -1.8152628523365577
Ni 7.30177923256106 0.9121588863403184 5.6131195374217375 1.5577915533241238 -0.3232923112723013 0.9807809823239175
Ni 2.7985322683193927 7.419751307319828 11.591980530684998 1.3232244126033728 -2.3751761015348447 0.4608278184583354
Ni 8.43846432028544 4.136523731136929 9.857355724210018 0.2399248054882384 -0.77898023740091 -0.5205853981329421
Ni 1.7200158487019759 3.996608794424851 12.648786688290627 0.6074614312908958 0.692441018757085 0.5367931182410561
Ni 1.7695717800184116 0.9964525446664485 2.541575656614638 0.05161129641838853 0.16487944641662572 -0.41069336369578946
Ni 4.149639004948103 8.86476676732726 6.604724848768657 -0.29919953198915566 -1.028487287260945 -0.2238024460050791
Ni 7.352456127451099 6.246597538000845 9.493173341872119 -0.42355299326727697 0.3882085523297121 0.09449035517010179
Ni 6.0900643163100785 0.1306529751851701 7.6858951496465835 0.624405258234086 -0.298942164562711 -0.1681897417367813
Ni 7.102294423275012 2.204692473839255 1.536489824158812 -1.2241132708318079 1.6659645481876406 -1.3207468975971577
Ni 6.023320276865039 7.123013566660469 6.425498653666579 -0.6338265515479858 -0.004310197339579673 1.3876655137965779
Ni 0.4522471489528985 6.754627570921551 8.549421031346066 -0.22071146578458117 -0.18757945911730273 1.1682550262116074
Ni 0.5445641040571034 3.1613601530058544 5.01934326421077 0.8519404318087199 0.2997332930054386 -0.19226940839380435
Ni 5.0152283937593305 5.878594538149575 9.145822227591891 0.8524119721284996 -0.255113854523851 -0.3201218839641196
Ni 1.7841256237490444 2.0054692227203814 11.453004400965812 -0.7243229550673461 0.11739399924115267 -0.8512341497703145
Ni 2.935429944745852 3.07213145254693 8.970451213046701 -0.011868726413127946 0.14672771520826342 1.497824685852188
Ni 3.1729060778139817 2.6904153316452315 3.527670497860981 -1.9177976750776906 1.8728820455119228 0.8747468881802742
Ni 8.907288652219329 4.6988831319250055 12.477845348133796 0.16663628120673235 1.0969891887870848 -0.7987581913587857
Ni 2.812889943424645 0.8162707281178714 8.984424023991682 0.6327034936871362 -1.577077141026613 0.2691109401338914
P 8.572410125968075 1.6794556500637172 10.425687992572785 0.8277540643705035 0.29006028869204886 0.28411692662442034
P 0.9082878254661371 2.878727870647687 2.7984042916447396 -0.01118815540633557 -0.08686112075961815 0.42574871536701514
P 2.1414794696510704 4.888690289025599 4.737521812170844 -0.24173383367251913 -1.7694956734037721 -0.9625156083558262
P 3.826698740755737 4.95898404645372 2.508297984659564 1.8425787665426911 0.6508827356993242 0.9849554254165811
P 1.4884341157583838 8.171366724784809 10.385492107095947 -3.811073710864933 1.8973329794654354 -2.585348872571631
P 2.5022522544525896 7.4663553678924375 7.072527235577942 0.4582564581867334 0.62772429530499 -0.09180483791813866
P 5.024420295062888 8.72767292227542 3.1666333524833523 0.3536526687317135 -0.5067117254746434 -0.5608997814812727
P 1.4895363966057615 9.172574023275963 0.420368813192207 -2.2229637090629266 -0.9551789654850968 -0.8423293910815172
Ni 1.5894702991926097 6.004011679309701 2.6335198913306197 0.2870626395163056 -0.39586452621307305 1.539106832430427
Ni 3.259855485673243 7.37806080374485 9.087073460835587 -0.6642856393687915 1.2951957886009307 0.34986080578944906
Ni 6.97115102652639 8.078457527259218 4.683954699533526 -0.7730867547346105 1.085874309820846 -1.677104366854544
Ni 8.073973672964799 1.1444477604715926 8.301615218947171 -0.2875971718635369 -0.01816947182017516 0.08508860224022766
Ni 1.1702953122062916 1.8194546590438154 0.3050562245118155 -1.5112206475431198 2.150068049344465 -0.6275304341266289
Ni 8.371281236774072 6.394620777895328 2.391292740983029 0.23996182937376095 0.25288625074491283 -0.982808040056275
Ni 4.11884987212643 1.4933476727560173 1.852915421715912 0.07867652806629676 0.5060648359192639 1.491749683302702
Ni 6.671209198319144 7.461787441329999 0.2933468258492044 0.06798588112167002 -3.6508621022376215 0.12455914953102419
Ni 2.432481613358818 1.217132906856736 6.665251276925437 0.5100405327375603 0.8085818623174267 -1.066377377438499
Ni 0.030896558497476148 5.496271228645508 4.38844815053251 -0.03181020253206135 -0.5974539264562226 0.20525682179240776
Ni 9.255581375901382 7.644205580207918 0.0908727803668777 -0.0866340923504766 0.024135716705939076 -0.19495646830766425
Ni 3.1637141765104237 4.957993861963703 7.931527226848997 0.3794493180798433 1.7860075550158658 -0.9457931533948227
Ni 0.2965854764406103 9.518475358000998 11.882838817400799 0.22263310828732624 -0.40870075874579287 0.020949348558157468
Ni 0.9463921797418907 8.24705979009246 2.4500685976923626 -0.8385712095906656 -0.5929832922793788 0.4270525217801033
Ni 8.395438001785251 8.563087445580928 9.951527874028539 0.44997596334549606 0.5255134315621789 -1.4848881802961782
Ni 6.70353031469141 0.8014898892635838 10.548476474152807 -1.448859568807395 0.19012485124697578 -0.5687712138095495
Ni 1.3976360662964131 5.216983154281928 10.410429810063404 -0.41111579594518877 -0.3802293907789774 -0.6406746848180709
Ni 3.447523470620876 1.5901989255154525 13.232910530996547 -1.193353621051448 0.16456680027221335 0.4760919437062575
Ni 3.5717636000287163 6.112520953234624 5.555260068433825 1.5733328434928324 0.4900496914379302 1.5694278520114713
Ni 2.149102021951581 8.15100255319766 4.980473852296032 -2.323085551487192 -0.6342623535338238 1.3060486721550346
Ni 6.5084172633424195 5.035863464876768 1.5397303430228406 -0.6463208273602546 -1.1275328659018968 -0.19354493267211828
Ni 8.713053689002994 3.338631200808305 7.143444061925724 0.6376181573799341 -1.606477191455285 0.46528379734715997
Ni 7.997692101781007 5.449685850799124 7.092365488421809 -0.25320378198533167 1.501119040332744 0.7472276275796614
Ni 5.3467720533791105 3.4249173718865173 3.3552251982428976 0.7318130927968042 0.8490430556562667 -0.31792873296754276
P 8.929082052362823 7.552641538970651 4.114720055494009 0.9964863088743161 0.3424776259515005 -2.9446402276463606
P 0.3134046007262356 1.2636435537982127 6.887845684417654 -1.1829532516537304 1.884121108760852 -2.5762759637360855
P 1.073948493054978 4.399669930040604 8.014119822952182 -0.960945692765545 -1.1079508300049112 2.654190416825377
P 7.226852159028707 5.991176646391929 12.249728326768954 0.6043131154699012 0.9590487328531483 -0.06693764236281374
P 3.577284345628719 3.2419854580373633 11.601154683398638 0.4022370053983202 -1.5074156719747331 -0.454928679365081
P 6.337404928825928 4.196420551419867 8.624261230201466 1.385294699571556 -0.2930175715481599 0.8508795946443732
P 8.41333605351047 2.8572427354869325 13.132065845506146 -0.008829168255855762 -3.0306174031391295 1.7572559368044702
P 4.613372293985202 1.4691815663817251 5.713568149116132 0.8487805460234996 0.4262768199563432 0.2132465248661037
