# total energy = -340889.98162947164 ev
CRYSTAL
PRIMVEC
9.07405471104043 0.00000000000000 0.00000000000000
0.00000000000000 9.07405471104043 0.00000000000000
0.00000000000000 0.00000000000000 13.28079628911400
PRIMCOORD
 96 1
Ni 6.214511435457341 2.131341152129799 11.217292683378789 1.8530467559535506 0.3736419673694468 1.3718205763445213
Ni 4.4569578119255375 0.1864618393029722 6.073613146207755 0.2654023809340526 0.8796870057943689 -0.26879675132758224
Ni 2.8674919746620136 1.7334166384598098 4.7389068345409555 0.2827275024760615 -0.5980283109024539 -0.17463164070738313
Ni 3.507711892614858 4.590999745565951 5.092268666373138 0.1762439794998255 -0.3882831143213894 -0.868176434051608
Ni 4.872531361672605 4.435670079978583 2.7139834718204905 1.912165673602894 0.7537733991179792 -0.6444814601586707
Ni 7.287119126216806 6.235454353331839 2.7723396239620333 0.5637210529801517 -1.1966677730263457 -0.7632749108505112
Ni 4.869963404238255 5.0180882705221785 11.360299782903086 -0.3237165432939135 -0.40385525772803355 0.9346780173182677
Ni 5.928415569917901 7.7566379301943265 12.439192163835806 -1.451878815249693 1.1899281403096669 0.5066374205932823
Ni 1.5957541570585962 6.470535884256711 0.593170945171532 1.080793552863829 0.22422230715131708 0.1654934258515408
Ni 3.0145370284558743 1.6606790172804462 0.3157271906344022 0.16275108721971326 -0.985594858772793 -0.44276993251536
Ni 0.26209045425825217 0.18693731976078143 4.79160531367784 1.5426148455836854 -1.207627614471959 0.49102465375668986
Ni 8.501381882374353 2.424424039663764 1.0613359002119327 0.0668463682005881 -1.1980494838652205 0.5808556557779093
Ni 7.041248544445843 0.9757330845081051 4.770183285723719 -2.1799576378150456 -0.5585202255055026 0.7453890317090259
Ni 0.9311704026702989 7.683174384651895 2.900366366848979 -0.8250999145771081 -0.8330687917151975 -0.5875502941892655
Ni 7.666741271882954 3.8443502419328732 3.8720560526547985 0.20821564731041559 -0.07464246720623918 -0.7248898833144096
Ni 7.385236877939916 3.8869347798813205 12.66363708803083 0.22628278922477157 0.36418622127318573 -0.8569034322409501
Ni 7.923963495881385 8.823420077940174 6.697611376862402 0.4261374661650016 0.6039685876462888 1.127349546246497
Ni 7.078343279398592 0.5692027375139508 0.6182008172100995 -0.8173590942894247 0.3948679666277587 -2.089760253593343
Ni 1.6898793247848363 6.499037489561649 9.314619520426158 0.1444098657083642 -0.6919810484015309 -0.4731333752985658
Ni 9.131130341389948 4.669735316795161 1.2752884951442711 -0.3392269802246867 1.1875275012879742 0.5019045338939873
Ni 6.424149317456697 2.251844596399004 7.151615362390263 1.1837433516551934 -0.10779092893374984 -0.9610562502014803
Ni 3.2972936419252044 4.287363732603893 0.47643777056300857 -0.7074063818176656 1.0485712024950133 -0.6675522259352051
Ni 5.835569843881568 5.642827851432608 4.814222394614662 1.3864270134037866 -0.571905388563157 0.09884143304994591
Ni 5.036508601235016 3.096176297137353 9.39608365985505 0.3783452863823871 -1.4035099370280022 -1.5628720531708247
P 0.09911589772232897 5.814454518970842 12.377675518498558 -0.2414780089079712 -0.6533383963286684 0.2316653936929236
P 3.5201433473323887 6.2781750020983615 12.56023279213368 1.4802008021228379 0.24286409062222047 1.4122835694555742
P 2.367756569071807 8.523522575447911 1.5638933367635637 -0.11774649748456495 0.19621270931226853 -2.241589037473598
P 6.2655076219628345 7.793351554856465 5.805978444626575 -0.03020711971099959 -0.0724140920963527 -0.5212801102071216
P 5.005076076314193 1.1206275873763785 12.80347099068307 0.16617296841706866 -0.13513203995086404 -0.5596288851886491
P 4.05436923422284 6.057902328180067 8.053382198734512 -0.6570374424468104 0.831654170755858 1.22247007880143
P 4.78884135666546 1.1038224383713657 3.8521212622395113 0.2729010033039429 -0.10532575522270894 -0.33228525879953097
P 0.2262452166154328 5.459658986521601 3.5792671644878755 -0.27265700561393685 0.37124389945091546 -0.23881897401856933
Ni 1.6018065514356716 1.254896372380251 2.5695680790318423 -0.9643971416492553 -0.2218646055524179 -0.2135368024130129
Ni 1.694225796908703 6.593108212960659 4.845352753519358 1.1352502891508125 -0.7901856191984262 -0.2714688988431067
Ni 6.037785149268559 5.9317638960425505 9.22664746908237 -0.41658633214145674 -1.2812321273319869 0.11136450521762112
Ni 8.555599358240958 2.025256380522022 10.04826318168943 1.9755569933753463 1.6589122693265494 2.6586898473576275
Ni 2.2766439874522977 5.246709074615749 6.947609746042858 0.14393446873384244 0.6793739011604816 1.2756263511094352
Ni 0.5456637326360332 -0.23891350415641452 9.331512687760194 2.0972262229530845 1.0715010718183093 -0.37060575164628434
Ni 1.6157624473156444 1.080728969571281 11.489150449942112 -0.571123773202126 0.4374102108653435 -0.3338837136349024
Ni 3.9313159806283604 6.859803749897121 1.5640258179598236 0.21431713222246315 -0.17827849343135102 -0.5286578907284315
Ni 5.647392100865395 7.857859008569552 7.968132363752227 -0.9312291395377188 1.4965738441642227 0.039340449470835474
Ni 5.265564959946428 3.060215819001897 4.800183924838391 0.3727778195969386 -0.7545334172124554 0.08403727815757785
Ni 0.6760733222447483 7.185643974314506 6.896584522562843 -0.22898938952265727 0.5447493969736553 1.020683732056126
Ni 5.4371190350483545 4.610563407150621 7.220091807558422 -1.239555316418491 -0.6713741707844567 0.05993215757925807
Ni 8.204206596243594 7.109594323228648 9.24769746080042 -0.18332454049569072 -0.38373251883622944 -0.05367357826405595
Ni 4.840962725933708 0.4538288562752713 10.55525783091031 -0.6491238440266884 -0.8823771510320223 -0.5534826630815952
Ni 8.17234759075947 6.880583334789928 4.929313165351746 0.2440732804389732 0.914817788059231 -0.45194928502178294
Ni 7.313905735213996 6.292394045559946 7.127178933518504 0.027129252116624248 -0.9878862259101309 -0.3154381053352051
Ni 2.179569752001096 5.096624212551543 2.6179101045848685 0.8753570109604474 0.9779046892173869 -0.2107844364788563
Ni 2.3672665701267364 5.062932248050673 11.374789233189913 -0.4589599120116612 -1.4751079609809628 -0.7223282932348205
Ni 1.2443160247885423 3.318935261999154 3.749035465656657 -1.307075570757652 -0.17765731490758435 0.4285671586524168
Ni 3.547864583947029 2.7438489075225414 2.3364773956726825 -0.6288866910442072 -1.090592798342438 1.3035549591989033
Ni 1.0060948709934034 3.3501137133929033 8.137010500170797 0.3436508203239953 -0.6383344667206684 -0.08709586247824355
Ni 3.586556352498527 2.7288676434797354 7.129981001559945 1.1332728537094676 0.6328320488452004 -0.7472101440781648
Ni 4.194527080622098 6.839559534222076 5.999028954929838 -1.062810486022847 0.41738414545240377 -0.060661836656431004
Ni 1.572034578495366 7.240079227490031 11.545075662872833 -0.9027351458630839 1.0790133210349546 -0.26223092518460644
P 0.11615152771261554 5.429859791417679 8.28036422857846 0.15224453126143456 0.05311616309868917 -0.5479432213206047
P 8.746290614364252 1.4493896573551115 8.020697454287399 0.6339839030614566 0.2027574524093218 -1.8000995143325578
P 1.8494284257325346 3.0299266249529055 10.329165965816575 -1.0750828756322968 0.033808978129645 0.45068327382516576
P 3.9886821534197696 6.113117950045888 3.642749250038128 -1.0342743262563672 0.7600579465751104 0.3652843394333709
P 6.518927817109699 4.135101097450485 10.386804360244136 2.524811477308207 0.0767577137770291 1.0572430192373985
P 6.335278027308159 7.8031878299760296 10.311476096494076 0.27884513670251976 0.4420237983779549 -0.31513805759628305
P 2.2613905017733416 8.493315047889766 5.676278446082758 0.16332264345246714 0.5575339503328334 0.6418249963724302
P 6.961623715871876 3.944010582927503 1.6256622408169776 -0.5361259169707024 0.9062578143043618 0.2915003635726851
Ni 5.310018753129774 3.181744631433935 0.42011420663805504 -0.012780696704436054 -1.0193596139280638 -0.0913294409436169
Ni 1.7651395331258595 1.1832657858545654 6.9356964198394655 -1.5162787787923178 -0.4107270451472024 -0.673878425263549
Ni 7.263136400071962 0.4856869543539424 9.202117577448867 -3.3340332872024776 -1.5998283186801996 -0.4894305697966926
Ni 2.841667215445887 1.4645886987068373 8.996145613483 0.6244919044106213 -0.18534928423520336 1.4382753655336455
Ni 6.471815325946618 1.873374855659224 2.6195443418072237 -0.1216723149015324 1.1755052800161174 -0.6013586608272676
Ni 4.089467677177153 7.092126768242336 10.239998861490088 -0.2193888903184157 -0.15867871692255253 0.036440245104904984
Ni 8.423798716071515 7.34648159100665 0.6801430357051955 -0.67332049587755 -0.5389538733378008 -0.6993192339341568
Ni 7.746710914529378 3.703448323061471 8.610352203325323 -1.26746592678583 0.893609786523048 -0.9008865226901194
Ni 3.2111354940836305 8.409089673664859 12.719655763723296 0.9702173478754581 0.7994549603154941 0.416444921467586
Ni 9.250091196387636 4.570238308782221 10.396432839514773 -0.7976189355480198 0.8644233947670791 -0.8900642352636349
Ni 8.658834876723693 2.4576895236013323 5.883206815396965 0.7432375325836619 -0.12529499925578422 0.404500090400884
Ni 3.6702009872329797 2.754293144296175 11.43257371989554 0.4601757866966333 -0.1573890515768515 0.3251828434267948
Ni 0.7086101596028876 3.5039461599814454 12.375988651759881 0.4854600151847188 -1.226366842752675 0.5233861008065309
Ni 2.748322416409945 8.117594745675103 7.965808498384958 1.147643777719159 0.20162693834930437 -0.27043068738657944
Ni 5.54283177042006 7.713536171137194 3.6319656436247607 0.054460592941725554 1.3586087056399376 0.1192426224141172
Ni 3.177997046909599 8.512924079747126 3.4691435312050816 0.7631520121194018 -0.17127095176526633 2.1377041284624734
Ni 3.14747192744261 4.191106162061142 9.054793950180677 -0.38278738131414075 1.4875999228003864 -0.11227544706766471
Ni 7.235215534257478 6.074643958803311 11.411550950341105 0.48591278645142116 -0.8315266440390582 0.15901810253984228
Ni 0.6416518037589951 9.395548290637286 0.3908367696700889 0.41986397445146395 -0.5196479739203373 0.27371192924101245
Ni 4.77060250704339 0.1992816635547443 1.6141082471733044 -0.5555102350345852 0.3877316126932935 0.0024985980521376326
Ni 6.052893450074901 5.752805392437335 0.563443435098464 -0.06647098713904036 -0.5092823144152971 -0.2014515891137047
Ni 8.364826435626817 8.343266482043711 11.431218963552967 -0.21273693221953682 0.5733287512732448 0.34537988719996
Ni 0.06516441526166192 4.9063775851006275 6.10239332498702 -0.5622591237226445 -0.9901801641506303 -0.8377782813757249
Ni 7.935487545145082 8.780617762682805 2.650647478548305 0.028406576167151074 0.14117078994577623 0.7943358939213738
P 8.626304391203732 1.686040999715117 3.516303207451762 0.02808544538230647 1.051293743632499 -0.6434913283312595
P 1.5580696085608547 2.969656754709226 1.0619601951641706 0.3292976369261168 1.0938079628456259 1.2757700757761512
P 5.07133482255318 1.141234765232957 8.176189545451004 -1.7709002670607823 -1.149843099363323 0.9932886278726247
P 8.42541389777934 1.3789840681921022 12.204161447616348 -0.3825474973891928 0.453248977669813 0.099851362371699
P 6.3583533479991665 7.783424539191517 1.4104075190583865 0.042667199851223296 -1.3745516021224389 0.7239118356718566
P 1.8757522579482702 3.3509031561377394 5.854918450373678 -0.9588733836175485 -0.4387047613070509 0.8645429510640789
P 6.981632006128924 4.042391482232226 5.950407448497032 0.9557744329772506 0.15239982589237624 -0.08768850175691996
P 2.699485854884579 8.732479903356893 10.290797233606643 -0.6450530163914245 -0.11309871429990845 -0.7872072532963927
