# total energy = -340898.51476271066 ev
CRYSTAL
PRIMVEC
8.99969888974403 0.00000000000000 0.00000000000000
0.00000000000000 8.99969888974403 0.00000000000000
0.00000000000000 0.00000000000000 13.17196902864807
PRIMCOORD
 96 1
Ni 6.316366598482511 1.9532766260802963 11.244356864322322 0.7667703255982795 -0.1107798363587447 0.16648227212737135
Ni 4.536136180744865 0.45451178801377273 5.876555818442928 0.18643428976926602 -0.9756827418654035 1.3341058354025668
Ni 2.847207707236268 1.6638103141844687 4.813221607014679 -1.1323629403006885 -0.07832197294035544 -0.24165027281977736
Ni 3.263722766956788 4.388910108231998 4.925802439063855 0.6780598103347484 -0.02179472727758827 -0.7497267398524313
Ni 4.92049531668713 4.5575824629624915 2.626674588225843 0.5737316431386184 -0.1398908947920881 0.3209505505130021
Ni 7.179113723329596 6.1969135964369535 2.6615016226051016 -0.05311667731932142 -0.9544091771986077 -0.5728299572599553
Ni 5.103972175927903 4.648893406890332 11.317092429946687 -0.0410700305674325 -0.19084553146308422 0.4242754732555983
Ni 5.6187549467412765 7.856377056105638 12.256135401259636 -0.5125622707181495 -0.14599392236603242 0.21438423801497272
Ni 1.7068558734991603 6.549899782395732 0.547215885314374 0.7029527169216861 -0.3485611131414191 -0.704648102346238
Ni 2.9015028900390143 1.7356909084237415 0.3339149242519496 -0.16635911628594574 -0.9603245142417782 0.29062233184310593
Ni 0.7335429491620811 -0.06045007680553056 4.730527874678688 -0.6978285083212433 0.4469893699133463 0.03530561727982952
Ni 8.603172061736647 2.4558468056350375 1.4929240335515257 -0.2778012688190377 -1.1032084302239193 -0.25435049399526516
Ni 6.636908870301741 0.9283189302342566 4.869702816653624 1.321709004400111 -0.7086435966588762 -0.5765868531992263
Ni 0.8032348166555182 7.419648672901782 2.6374760267141335 -0.44961960844734183 -0.09056325220155372 -0.019375576313134375
Ni 7.55067528759185 3.7608121299481487 3.7837667616830544 0.16908705674007007 0.1713020621135179 -0.2708520911947142
Ni 7.6110632664757265 3.710980797745463 12.606075189177849 0.1796784591026712 0.2978005947591 -0.4532322654992646
Ni 8.091278194235006 8.684628335488952 6.88523845899633 -0.7531907871416319 0.9540001146856474 -0.061564036755726234
Ni 6.846205865372298 0.6351591419548308 0.2953080163807046 0.15127908202437174 0.3040203504165667 -0.19656983554137114
Ni 1.7034359879587917 6.539388134208494 9.228689826377275 0.7003412474407681 -0.21343318695561306 -0.19133944038036724
Ni -0.002168027438617861 4.813137909815928 1.4360081384610024 -0.19082239153463265 0.3408148935370969 -0.016038027299469154
Ni 6.3074208978848105 1.952799642044403 7.067867546611044 0.5594278249214365 0.10266492056109415 -0.36573505381754434
Ni 3.398583253331585 4.278042818832523 0.48889963709205764 0.06937247705655149 -0.09969709618202185 -0.0162704550252494
Ni 5.995518336904407 5.632974470830177 4.757399175327195 0.01358879442802821 0.20322307919183066 0.30853957844315893
Ni 5.321044910753402 2.9452144270641987 9.158403978763669 -0.22346588860126676 -0.02639417372281261 -0.036768060757968936
P 0.23696746897165402 5.443269820026417 12.47133889864636 0.10377717978866642 -0.1093086511298569 -0.8786449376830996
P 3.9537836714128405 6.16458667838168 12.647540401384939 -0.6781253734653611 -0.0381572277960117 -0.9281566712599822
P 2.311167647879867 8.587719578913456 1.387772452853862 0.8106071202775718 -0.6105300429138906 -0.7127355073400629
P 6.322288400286624 7.854874106407634 5.854005273183714 0.20056173030958363 -0.1005257627309043 -0.6998951610422849
P 4.676117495731424 1.0006855082082133 12.324246921645472 0.28681658494377055 -0.011662781049908947 1.037245235959233
P 3.9610104295415667 6.203951360891081 8.199576969599688 -0.32650541889296025 0.031945699668661114 0.0382947818151405
P 4.595210203605337 0.9636337482879572 3.657710680634948 0.960611449354578 0.9987586498482606 -0.21070627494275324
P 0.1044946026859615 5.518318308239926 3.603099608404657 0.9108500616607347 -0.13321451121317704 -0.1380006197479107
Ni 1.4120617399193902 1.0376472711405653 2.6480263736061707 -0.22627867545971356 0.9454180294435911 -0.5390891133640845
Ni 1.9541945953569215 6.54863982456507 4.681989799192189 -0.29841765951780863 -0.6617181357519314 0.40363722817995645
Ni 5.9568556309006615 5.6123741602988515 9.117637143182717 -0.16754105240918887 -0.1390005217673348 0.6638176985934373
Ni 8.610209826190774 2.2315383129820217 10.08680390628704 0.5290954924864824 0.6052801073688608 1.0877771832705136
Ni 2.345789489126703 5.196462080397292 7.023820320820976 -0.11386336038007486 -0.01804014533116248 0.6493513866564623
Ni 0.4948349384443552 8.898713170316023 9.07897713708861 0.7412652393486395 0.0572245288401079 0.09344160219061326
Ni 1.6271275419146205 1.0337414018655127 11.439538731809947 -0.919508765776997 1.1465256049543158 -0.6447948776340314
Ni 4.049432470157675 6.7126143365269515 1.6129341169522118 -0.5297454673656554 1.385729987336762 0.7482712383528275
Ni 5.729082254213324 7.778097676026359 7.9639036573141 -1.2558674233149534 0.9897392199584697 0.18598203272319583
Ni 5.150077632831346 2.897264031908715 4.811588161684213 0.19145154047819932 0.17801906912237728 -0.0589206855956082
Ni 0.8747041246600679 7.288991045862122 6.824989975443705 0.42341183970372237 -0.3068351941575425 0.3751995416645538
Ni 5.067892383477014 4.689491048134023 6.992432071349546 -0.39408146617072126 -0.4695266317839139 -0.10573147530155985
Ni 8.115622379463156 6.900357052994396 9.24701231314474 0.285515863854476 0.8498087301776978 -0.15042393311292804
Ni 4.628941074671919 0.21226689567140256 10.18671316243927 -0.3238839221097132 0.612068591045604 -0.1946026845126713
Ni 8.169332581844523 7.121254659805834 4.7347829322668105 -0.49568657800873345 0.6130306978485571 0.4909480348824835
Ni 7.191002325431772 6.092823080226683 7.01693195136677 0.6104891623736262 -0.24431290725360505 -0.6900774036209147
Ni 2.195935504567027 5.174790805709903 2.5968009880608443 0.5217074275525273 0.06304113552188498 0.02857524053453143
Ni 2.4731622261078514 5.085819783467578 11.393502572587192 -1.1011772587265036 0.5463712488477944 0.5766238770847488
Ni 1.1583242322216232 3.2602488832236762 3.709252855577698 -0.9696352501197429 0.2539108353546853 0.8048311370257429
Ni 3.52609098579459 2.68515013111675 2.6234742953359613 0.18445608299697266 -0.287321292494331 0.08317518726759869
Ni 1.0022424560989602 3.3054183714529133 8.275170839559898 0.6111316810536314 0.2840269380137754 -0.6935386226966378
Ni 3.624718684839061 2.775570104864337 7.093961273284056 -0.24535034737918393 0.03584580605401569 -0.2303297056006356
Ni 4.094610958085702 6.906665841846498 6.053125408862036 0.6703968944728519 -0.10575332967843078 -0.002803530887066139
Ni 0.7809992608539692 7.322280931687972 11.422704795222423 0.542209404160621 -0.597302745590339 -0.28577194572934006
P 0.1474852638380315 5.418493649256326 8.020556761199941 0.7929546973031311 0.8412202171777383 -0.2811647859746319
P 8.50137646871794 1.6823946921867345 7.917473311284323 0.08337187665943706 -0.6318948817429118 -0.479951940882296
P 1.8128723252505858 3.1604872221316094 10.383607672606717 -0.03662870696662724 -0.187204078055755 -0.5475030484593926
P 4.058396170152957 6.177699239519357 3.8822666650047015 -0.7257522313147049 0.005943104957312345 -1.0612665385744948
P 6.940387713214289 3.8963295943346488 10.29755525268213 0.07152449040254778 0.6965529840429294 0.6453890595746046
P 6.306457930114233 7.8343817922617935 10.124014960875888 0.034022122581715594 -1.9467390407023892 0.30433711032603716
P 2.5492006811883092 8.41110948984979 5.6997612355540594 -0.7468936412790105 0.9480572668386511 1.299473332930362
P 6.850417724406225 3.981052758747885 1.579055650825466 -0.09021255373035432 -0.4056231482617337 0.5863238779813321
Ni 5.42873530647985 2.80220921328405 0.36819207703511203 -0.7687423617229857 0.12743569974787086 -0.08835493169632525
Ni 1.4817824064489564 1.0410671566809337 6.983738362317977 -0.43446989729009694 0.6039557321304824 -0.761209029460418
Ni 7.114540884508163 0.6071691787466721 9.13976560256866 -1.746189908798296 0.21544378962773864 -0.5466707823660844
Ni 2.612099576034719 1.4929060341539448 9.073971504621364 0.30251702639816286 0.2911974876202856 1.0422092648327277
Ni 6.370166797851783 1.8424903339699357 2.538910425591316 -0.10635496781817168 0.7243890324185912 0.2190083670505454
Ni 4.080283437611316 6.766864520835746 10.37391319706965 -0.04167758224444435 0.5333424406882944 0.17399606400591325
Ni 8.036182038239911 7.023256939676694 0.288741836143197 0.37703453799076353 0.37336480244866016 0.37223634527117183
Ni 7.553033208674946 3.8645246588092212 8.142963464388524 0.12327385506069738 -0.4674162703091305 -0.3161222758864233
Ni 3.0611305474851123 8.303230100448744 12.393689497482413 0.7608835278001993 -0.46845962397198027 0.4930301142224928
Ni 0.10442080515587987 4.810635993552185 10.202848722400656 0.07022505486483391 -0.7720246320186834 0.7574274509307988
Ni 8.52815057261951 2.455216826719707 5.768110347987962 0.5172936147555478 -0.0018072284120678554 0.31983546307195243
Ni 3.7170465947302223 2.7277457054919196 11.330935766626148 0.03536680953506812 -0.3961820574534919 -0.07340936613008649
Ni 1.13877688644878 3.236093691670126 12.497629718722882 -0.9165391416257118 0.5010745817935242 0.24291088469975583
Ni 2.968541646329028 8.32893324019425 8.025495795896138 1.1341022915892984 -0.4956048169282045 -0.41694731502530125
Ni 5.6070553383137 7.918627972639136 3.659080434790854 -0.39503868787766805 0.03220975196332517 -0.1370346562902156
Ni 3.0111462204029884 8.349317557954604 3.477004828651752 1.1450438782024666 -0.0793982367236697 -0.13159008823587662
Ni 3.4270313012081774 4.38713716757028 9.316270395156478 -0.2043664487676545 -0.1005249913999559 -0.614538135632019
Ni 7.204042888979124 6.004023052261376 11.377525407324516 0.12414905857679912 -0.12891356984497795 -0.03478831132377879
Ni 0.5660036565093041 8.915821597716658 0.1428459191115578 -0.4172100817683847 0.16499848849299326 0.858996824434869
Ni 4.70200062945274 0.36461649670566887 1.4674755852817882 -0.8006998884661887 -0.8113627674966737 -0.04672054398499051
Ni 5.7621921460633665 5.560274904000973 0.5004606501582616 1.4569289760790909 0.04027298858743387 -0.8282911678208961
Ni 7.953015821717421 8.717288242399473 11.191286540524956 0.0798270967309722 0.45589515704340844 0.8827939268544667
Ni 0.2239296053339384 5.052394902159871 5.804136142246108 -0.480569776971953 -1.1268263267531757 -0.38059551586914453
Ni 7.792182204633404 8.735971617088433 2.4707188078862456 0.6100564457115816 0.4141723233833254 0.47796962034494456
P 8.494437700950508 1.5742183127256026 3.6340540723943886 -0.7866372397255356 -0.1729974475380698 0.12665974081379477
P 1.6927983439884875 3.1869913350694654 1.5322554171754013 0.5515556212622114 0.3268010957565081 0.012720790000778092
P 4.596137172580752 1.1452026713851566 8.139130492673674 0.19210305801926916 -0.7537368894530889 -0.19844236997373566
P 8.467150614217884 1.568953488933193 12.341463345431592 0.2620568615005874 0.39569997561075076 -0.0657158541405707
P 6.2580305509228555 7.692798530890535 1.3052911134093255 -0.7338213814760847 -0.012243850364359559 0.5069580371574947
P 1.7763515475589657 3.2379746287173288 5.992218147357952 -0.7115949659777163 -0.36427209611877265 0.14766771052402958
P 6.824804581648623 3.9514887482212773 5.9459452960570065 0.19096560198071627 -0.04923251177356682 -0.20411885153322265
P 2.4532458926845995 8.47926420878982 10.244670322679848 -0.8847767616124504 -0.7353679000275981 -0.7255858809401697
