# total energy = -381174.28982863197 ev
CRYSTAL
PRIMVEC
9.21167992943781 0.00000000000000 0.00000000000000
0.00000000000000 9.21167992943781 0.00000000000000
0.00000000000000 0.00000000000000 13.48222470760952
PRIMCOORD
 96 1
Ni 8.704300449807773 1.0241084986108655 5.117556066472366 1.7974276239273497 0.4892570203333058 1.3496124156785982
Ni 6.417878625371484 0.3268736931923273 5.847766843137382 -1.0948369183307727 0.15181155748907404 0.33846721924052675
Ni 3.725811270511737 6.53620265203806 11.058983584855763 2.9155746777389724 0.7981619525356834 1.1066223410014748
Ni 7.11888745599246 2.067497042983751 7.212153871344249 1.9155160781323655 -0.25290167736388053 0.8252531523255207
Ni 4.819974593785842 2.112477675308616 6.63477775844224 0.3099236032748791 0.16484910739932254 -0.6975456869735019
Ni 7.735544934944627 3.3550964297822956 5.298810604666803 -0.27628586061577576 0.5227073295719514 -0.8730443036668707
Ni 1.074588503759393 3.8551524661851815 11.091017201261604 0.07695954537519004 0.9902264440075333 1.0734008599441835
Ni 4.10071742553727 2.847173618854438 0.181637744072937 -0.3978010811141536 0.6844407741604277 -2.0537745795273534
Ni 1.519881103919944 8.767188587608684 7.225568840595674 1.3568374726721277 -0.01764625232685348 -0.6185462283501476
Ni 0.5942648065953139 4.568145692189046 6.085323168096016 0.43701040432376353 0.5892091699489272 -2.0378514805391936
Ni 1.1802372590602073 2.91950372842127 4.585588007836625 0.19210742889464336 -1.4833419188549808 0.16369879584496322
Ni 4.855559312743646 8.205653800409946 9.830294732532742 -1.7411752291925238 0.19639088676134564 -0.425616560664525
Ni 7.917134778282751 5.0534446175977825 1.1667476752026338 -0.6829575047466819 0.7823545531897816 0.042825579805958504
Ni 2.494697904072822 0.07240472417298192 10.17638306856071 -0.6742874877765097 0.08407610181531328 -0.39234288621305974
Ni 0.36518046352264694 6.237338913527326 4.513080112850201 -0.2604789754905062 1.6689339152286096 0.18302937785277512
Ni 6.446287445787188 3.2260960662604012 13.321596901754301 0.5071984353030748 -1.1172949902239724 -0.4108365741418731
Ni 0.56219342230241 1.6788470617389475 11.076389053784258 -1.2679387526571904 -2.3445709750544785 -0.04244582786903657
Ni 7.812563789515217 6.45296591362162 12.065256429092802 -0.3445242240678841 -0.7635793294648076 -0.5050212251460979
Ni 2.924975466205618 4.718811926533812 12.361905679786437 0.6124164613033259 -0.8970375812576744 0.32364712350855873
Ni 8.946761073076823 4.281100538825311 3.3355427971310583 0.0036702497627356147 -0.4076610046273689 -0.9778980043491675
Ni 3.0711556125016 0.8328390221687132 1.1386050723323295 -1.0482315597674077 1.209571111351575 0.7360569556748227
Ni 3.418445151571789 2.038167054590884 3.84997089631364 0.49117789150510244 1.5359292060333936 0.2948057737968342
Ni 2.2810514151294288 2.060118487486676 6.708013376130623 0.08301475043033445 0.31531957747946987 -0.9375010885893597
Ni 4.350234195511388 7.582317853623348 7.4519486344873895 0.1745917886083832 0.39662685830039435 -0.6152852982106888
P 8.589495284813959 3.338239055800214 12.949797846315738 1.011705954037548 0.24696859970889723 0.013247609038525572
Ni 1.496980868007674 2.775405421753676 2.186614195278664 0.4871672276838126 0.46140425978709565 -0.18633530229755652
P 3.657985672353232 9.13396082939587 3.121512181141188 1.1400487389807203 0.025009120449827896 -0.5551700780863471
Ni 5.977108959978804 0.1651884475047389 8.120491820921234 0.19716993101921526 0.178134511654319 0.5491660379841122
P 0.15070492339980646 2.544662055154139 6.640992878784159 -0.9639099176001917 0.9334004361574249 -0.8328098816268561
P 3.4352011970763825 3.787511101622109 5.76648205966455 0.6517985626453743 0.3223150349606965 -1.1461450816864454
P 1.3232854342338356 9.135913705507454 12.664190636164355 -0.6999123874334656 0.5626651009118117 -0.6591773716079486
Ni 3.4751246172066224 0.6412904318294805 8.03974684188302 0.9308738130808291 -0.7165811063383981 0.7193195883154838
Ni 3.6480186348403296 3.753243652871648 7.895284673864447 0.03228457106531859 0.04289577092226161 0.6427732192183123
Ni 1.8726515924542522 8.092258022421191 1.0798640327646052 2.331226435426772 -1.1545595310023857 -0.45657212850577494
Ni 7.741431198318697 8.418065924263942 4.183641888009452 -0.43051965439309725 -0.9400104852747745 -0.18505437870260388
Ni 4.996166392777792 5.706230304614278 4.577606087314509 -3.99354644488329 -2.2632819490659988 -1.6306080230652176
Ni 5.856122757858227 7.3264818713258935 5.507327109145376 1.0463461698192367 2.292950422664709 1.3518148226465558
Ni 0.3296961518743544 7.874530759338966 2.7222632411511474 -1.3086341734940237 1.1942378234286142 1.3801818038250229
Ni 2.5350266381130147 7.180964965973468 8.959194077264591 -0.09503671459187504 -0.9330913895574382 -0.5013329776612333
Ni 1.2309107094839389 4.378210066977825 8.132356464467094 0.7189524347840521 0.34731824187325344 1.8501655777510135
Ni 5.671456213476379 4.92457321759269 6.684608340166869 -1.380840006234312 -1.3428416726136678 0.2500701214523564
Ni 2.1733853019586276 2.3359438148885663 9.349976562376526 3.6068191050847944 1.9980898843705395 1.7670646953647762
Ni 1.6416502988211092 7.216558896611043 11.248084631879676 -1.9199226918404935 0.5599569579520292 0.9481518834349864
Ni 3.522177877480104 8.803777379661595 12.27932665530569 -0.4974056175823692 0.6597152463892896 -0.23003737117119738
Ni 7.311015460989328 -0.08486259989613312 1.7380339466076187 0.08230229774434213 -0.15411783702474746 0.8613349856497423
Ni 8.149941561151133 2.5868239134688853 1.5125568973335217 0.17504481698540175 -0.49536287612072755 0.9185710844540761
Ni 4.3152021773398825 7.086683423510844 0.08496577070957537 0.22515047539254124 -0.850391085043729 0.7466666128698689
Ni 5.122053208536875 0.04390839279944729 0.6835969135166415 1.1284106405211598 -1.1296455413695254 -0.8302948285144862
Ni 5.345869391948147 5.061532472437272 1.8375458808445735 0.7813451380886608 -0.7911428409053729 0.6664391953766845
Ni 6.800292299410895 6.805754825515471 7.7332153011303815 -0.16642673629908755 0.571391425041216 -1.0325192912384733
Ni 5.358010385887155 7.666871862247132 3.1003990111046136 0.16700574873100915 0.3149686218979543 -0.8368316011917394
Ni 0.1909258807866706 6.765647171789798 7.0888592222729025 -0.01637561314454599 -1.3641790006388634 -0.0944582163805857
Ni 8.684071601029276 3.301042292882376 9.464642631005788 -0.8123436433527043 -0.4848424362053779 -0.6125172485472483
Ni 8.263512361055549 8.747973023605066 6.916489349218201 0.17739480527481705 0.3111944995675028 1.0858599116431427
Ni 7.432876772688209 4.008517722703035 11.235802699240162 0.9798427867803641 3.2217647821133477 0.7689079407665725
Ni 5.742478264515639 1.9931772105862475 1.5549591804903078 0.4203069755261535 0.382945761268876 2.595923305653368
P 5.0242251693621744 1.3093481627393608 12.188496729253496 0.6471795758161242 -0.20550596168873642 0.157388023135587
Ni 1.4876586480787855 2.574139430423352 13.176528605206753 -2.755852350043254 0.6638359534258825 2.8827280635225967
P 7.6621094238052 1.917263757588252 3.6442989585485455 -1.8851942872203726 0.8990828938224774 -2.5619603184443616
Ni 7.091473496992092 7.875838817866537 9.783497556956913 0.6555408032966258 0.6202362144580608 -0.3641903350382438
P 0.9032641563587721 5.628345552145154 9.947953675919806 -0.4631454108479185 1.0008492138287022 -0.9032753346372702
P 2.496641568504636 6.002901663339364 0.45856939421539994 0.8001303891159639 0.6630407112180968 0.4266432021568265
P 7.425783779264055 5.74542600204256 5.759283131923022 1.4708964940027764 0.4286594612559069 -0.2505321486904395
Ni 5.748990922114181 5.2702138659837585 13.043242968255099 0.14888358520900166 1.8160120717977564 -1.4079417475471108
Ni 3.476727449486886 6.15000297761251 2.4578769776896663 -0.7203115199151079 0.2876146553650337 -0.7017239867209075
Ni 6.910491624518894 1.9840760709718777 11.00389497631749 -0.4731418599389981 -2.9153509917639404 -1.0499793956964498
Ni 3.0322362654664667 4.780401217486924 9.9687029846054 -1.29187520886813 -1.7533316620493995 -0.8199121997285815
Ni 3.0298228053663 7.495424078337571 4.384850766925193 -0.953575625553719 -0.5670593733247653 0.4065744564314095
Ni 0.3455780089686201 0.5885636979846527 1.1777556325297305 0.28527803681205705 1.1838598226283998 -0.4617791266280112
Ni 0.5750621389433759 1.5665658970025602 8.38553948299032 -2.5734883736886194 -3.081229311758726 -0.8616268058585483
Ni 8.560616668729901 8.589016277465834 11.470177310005676 1.084656635363661 0.9455165026946685 0.42448656082513997
Ni 1.6858295150058424 0.5881464088909979 3.393408727120478 -1.7281425643782817 -0.8289357433834305 0.5555326036320885
Ni 2.8111098925485103 5.8995926747005445 6.413831013279831 0.14035909267775826 -0.4004524026940716 0.31106054509279973
Ni 8.974405324071482 7.5785594882765235 0.34752996391222835 -1.6405160262075489 0.1279190671421926 -0.004011178041922124
Ni 0.29917048744712993 8.20267842784371 9.139492443098732 -0.6649919214071967 0.020744431636202983 0.9214057256893937
Ni 3.720044758974697 0.17907044892058396 5.58569915947442 0.2830329495316222 -0.01921899613061206 0.3019966351183186
Ni 5.140522626478991 3.6969142310681367 11.203162033137371 -1.6579519622958092 0.3867815900751984 -0.08872979853724074
Ni 5.929816196031259 3.185702850461808 8.857484236234125 0.17903414065045295 0.737625328603207 -0.1001454965733501
Ni 4.845555428511656 5.591093519148686 8.843099277102748 0.9461363956668545 0.7751076418193813 0.7169582871721588
Ni 7.827938083054066 5.671824680667243 9.476533988422984 1.013943070898183 -0.4479306507806931 0.5062589542079411
Ni 1.0118753878741422 5.944260109913174 1.9603154641689378 -0.27221529009082795 -1.6802495973517448 1.4555920024352222
Ni 5.555149544679789 0.8928632487286255 3.917112066665113 0.3669280456843809 0.30100367507743 -1.3546373796970155
Ni 0.5674035483812434 5.398366754966662 13.25495500444645 -0.026301871119322445 -1.3100451949089373 -2.01102304749244
Ni 6.090965321956139 8.326686060929381 11.88590226043525 -0.49759099412029784 0.4008725209506257 1.1032667942656804
Ni 2.8632019416570733 2.0472129241266237 11.75772634225292 2.692424006385279 -0.7155637208174773 -2.696233867049673
Ni 5.493366808451473 3.4262566560181305 4.314877926211921 -0.47690878318059804 -0.4188872123604915 -0.16813651990134268
Ni 7.536360783242691 0.9427601545476091 13.039616329929007 0.01107888352198092 0.12749920599595463 0.6400121115334074
Ni 4.576021678393789 1.5521219831206459 10.000413271051256 -0.037964652169231394 -0.18207755546246707 -0.023945712182320052
P 6.749112206599724 7.02519546103522 1.3685672884872329 -0.20230725224578064 -0.5666117442643854 -0.0816968029498593
Ni 7.90180654314276 4.427704422390788 7.4447764206172 -0.08671353943816033 0.07254830368137183 0.953717807558538
P 3.745984849211605 3.4136090196916835 2.097483824144335 -0.1247553247022303 0.36005343005173474 2.10219153737816
Ni 2.4077949171072732 4.907356588099516 4.099634131996126 0.03295048678409164 -0.3271114279080754 0.24458724396091425
P 8.035449593269554 0.809546368698172 9.468687479593509 -0.4176949918246032 -0.6459989252444616 0.0876890159775522
P 0.8287748290534704 8.443748087467243 5.233839706069526 -0.27969257230447964 -1.2772453747700971 -1.0246820545822417
P 5.981935880179138 6.030435374176764 10.794084230831002 -0.17447094675980274 -0.04608676705573354 0.37878237391980574
Ni 7.0006555461236 5.779610545675076 3.633445757441612 1.555119405808599 0.2669183033579468 -0.8162131536104394
