# total energy = -340897.15177551383 ev
CRYSTAL
PRIMVEC
8.98869548396967 0.00000000000000 0.00000000000000

0.00000000000000 8.98869548396967 0.00000000000000

0.00000000000000 0.00000000000000 13.15586443205991

PRIMCOORD
 96 1
Ni 6.264833201039478 2.0333148562641874 11.38025672624035 0.5818666135409268 0.5298195151367003 0.9104404849271417
Ni 4.557772040590491 0.29358787710344136 6.039094694999566 -0.269766057219387 -1.0747357767055232 0.23220712512900654
Ni 2.686118874849678 1.4645371642292948 4.9492099592212275 -0.24217040698930553 0.7921908225539132 -0.5794348641709827
Ni 3.3336555178084404 4.235176743888052 4.770606375214481 0.3705859541519424 -0.38580277110169686 0.506099031591309
Ni 5.142351859505567 4.585663963064444 2.581246864312827 -0.30680871179498126 -0.4451484600498656 -0.35270161767235386
Ni 7.3422811775735495 6.10025018444326 2.4299671172175596 -0.27711941226066467 0.19886223111997364 0.29052231593013195
Ni 4.836295762723228 4.518689192083645 11.271997775198122 0.8868794097777501 0.3893287819770843 0.2996157935909679
Ni 5.693170137714176 7.823023584816342 12.154702964759936 0.025244633499401686 -0.42348537325413516 0.16931279959763101
Ni 1.8435005710942074 6.559473654398704 0.46276771263397426 -0.45306745778662616 -0.4526673941347301 -0.7655500800379331
Ni 2.6345147733598426 1.4428294643341628 0.4325072688671164 0.8357897901907865 0.532296001701651 -0.49003220793643354
Ni 0.7143532128968472 -0.0182218837380586 4.609196368168152 -0.31379619885640797 0.5374783172335388 0.1646336489544068
Ni 8.479234319037548 2.3755055093937023 1.4031650472214303 0.18420128667368924 -0.21507432210346186 -0.05883815318413093
Ni 6.684856969445162 0.7539511136620749 4.917543683461161 0.5183241129025912 0.329764035039574 -1.1921477736688049
Ni 0.7892973614043637 7.476329595186844 2.4489638265170925 -0.7365074129486799 -0.6830549495564947 0.8764926672267872
Ni 7.612265638877974 3.768798272228042 3.7908358572520156 0.08663486368142499 0.43006302647165284 -0.880001194600678
Ni 7.573551326891086 3.7921149486371406 12.588070451796812 0.9476286639416649 -0.5504407909314778 -0.5306407254864152
Ni 8.00982665695739 8.789002747106302 6.6800345342510665 0.5215696164230824 1.3896218661920003 1.4075697089196726
Ni 6.717674697112709 0.6532849138005584 0.3143832243942851 -0.04875274392367088 0.6070680525072191 0.05396539847286191
Ni 1.9555985940309324 6.371502051828517 9.276910942488389 -0.4573552865287026 0.0466809489963067 -0.30894581274264216
Ni 0.09838397004645463 4.75910084483528 1.285896726570552 0.49116503598929606 0.42570166417916366 0.35699844527549485
Ni 6.227637978610469 2.1364421609833797 6.906697078199558 0.7513370217623447 -0.15335139117236815 -0.15549851942235798
Ni 3.2401281399993933 4.6105626499006815 0.5211025493956419 0.4479003117633899 -0.9545004513608336 0.1922796928064495
Ni 6.1210500260819085 5.617602173731413 4.582384886906371 -0.6345374615720814 0.6332948474142319 0.9727061757355827
Ni 5.362871528875038 2.6973996878386597 9.288132430086353 -0.04666243705354545 0.567718604175319 -0.42147065681695156
P 0.3142942363077585 5.4841020665502525 12.257108477221745 -0.464130143358691 0.4475915222737195 0.5106234018242238
P 4.0671870116561175 6.228860441213259 12.530052915990133 -0.1321279630172176 -0.26804958874891255 -0.38617995193545746
P 2.432511816944397 8.37557668127744 1.4415674514706944 0.4398409317940231 1.132769688820804 0.3057177927236477
P 6.3686436466249345 7.756093757313587 5.826666649417092 -0.8770454544064638 -0.9315021906934473 -0.6272794944580874
P 4.651173576661016 1.1084050442106081 12.670387128442623 0.2504686424423558 -0.4368219424620412 0.24475796521082363
P 4.0200592805794395 5.907658392330176 8.249450899973699 -0.5454896175737896 0.6472608226760207 0.10666581419037115
P 4.681213797385459 1.0724322843843892 3.9635464524176656 -0.06065875133263747 -0.21854248315772037 -1.1488843349944795
P 0.1394020847178649 5.490969429995338 3.641477893277899 0.5829791298788153 0.476167019918567 -1.3333057080987747
Ni 1.4358092930637287 1.1977436898659772 2.418613495794147 -0.5506027704306389 -0.26492132753257597 1.4714644506911045
Ni 1.8356804059145948 6.568938750874718 4.6007901400348485 0.006501291453627513 -0.3918975711455251 1.2275084125562858
Ni 5.968089392907804 5.45039445801744 9.105344608273732 -0.2164616893692917 0.4169311170753852 0.806220818284418
Ni 8.507773427595332 2.130590520142083 10.202451760973702 0.05549931861888506 1.1933060556429642 -0.46379024352076903
Ni 2.2580142690917273 5.194198655776838 7.09460216442224 0.6361001780735109 0.027320285081507786 -0.5977765999029641
Ni 0.6244572681137355 0.10800277321737833 9.108633571996975 -0.3021547579627377 -0.023649263987823785 0.2402891308061926
Ni 1.3855265298283796 1.0772592139262882 11.377889103817004 0.08158316019013045 0.23458848087698952 0.3079669937691406
Ni 4.093074455009318 6.722978027521871 1.7642670170421955 0.2643705972354286 0.5397064352331092 -0.812377324804117
Ni 5.60553934422447 7.605757823257238 7.942814133455036 -0.6874618203749386 0.7368807371276987 -0.3467297163596351
Ni 5.456758454508434 3.044839739203685 4.521920628154991 -0.5388119484432978 0.16000386349187928 1.0706592926433045
Ni 0.6842267006945597 7.199369906090029 6.6932569054915385 0.33625967006624674 -0.1899466737978987 0.9088253179212219
Ni 5.083341072834121 4.331176012989505 7.000195692182658 -0.14996242009547722 0.8290825533739399 -0.1639384226595951
Ni 8.246310249728003 7.286946767406083 8.83976730442628 -0.2896681954599527 -0.46478114667912857 0.4624141891088488
Ni 4.806435315910959 0.45717944057401416 10.52611221810578 -0.7728692394071658 -0.7568098719514579 -0.8939062347175444
Ni 8.20410832384492 7.165572410601127 4.7301644359315915 -0.6918815467091891 0.05329639743029531 -0.5531011113724603
Ni 7.16332523669894 5.991765617141252 7.016443658365034 0.7298459417681044 -0.01927041819383778 -0.7448043628501495
Ni 2.341528239992626 5.282962024913248 2.7061744524919216 -1.021659208595518 -0.8639935063185121 -0.9878926536680339
Ni 2.347227073008574 5.219996212173952 11.42600019819328 -0.10123770119626435 0.21852294277369463 -0.7474891087711643
Ni 1.0113091542448873 3.3360644882315857 3.7969400804399176 0.6021269064518597 0.08075423653093189 -0.269162105086801
Ni 3.6564845205967074 2.562056898057706 2.633409163799966 0.06442824567739872 0.20688844385855984 0.07381277221609223
Ni 1.079497399132867 3.378850679329237 8.146216629776763 -0.05170874122820127 -0.10464261311275526 0.5330470209350626
Ni 3.6038197530250398 2.549149131163541 6.97573924917037 -0.1621219382761466 0.2628940126899021 0.3452683013227602
Ni 3.9417947079140503 6.747651996967891 6.110530555610987 1.1062883547008238 -0.41796032967084795 -0.43446989729009694
Ni 0.6091099692313552 7.500167615941249 11.285403515829014 -0.14558383141180736 -1.086755941094851 0.29787438541982897
P 0.24649160646139417 5.497432302138029 8.071609557354575 -0.15267236282747254 0.13704725469570592 -0.39303682695629083
P 8.438389686191387 1.7699191088409774 7.979229137105205 -0.0331839429511364 -1.3000016946300064 -0.6986137232267
P 1.770575283620416 3.197899248029485 10.336654784151467 -0.4501489985882506 -0.35681872516452096 0.0193452372958312
P 4.004104345873908 6.05370671858115 3.8668244921892687 0.4639092855971365 1.0365785489095116 0.3863840975264636
P 6.907174377936383 3.914289299351275 10.43874479339741 -0.8996981588089731 -0.03791811520201212 -0.6941304906443659
P 6.444337452346221 7.669991042077368 9.928178792994345 -0.5881249357458128 -0.675877715081765 1.7590155998080546
P 2.421213026564198 8.268152780057266 5.9915489895770815 -0.5444681182878107 1.7380652228086324 -0.10372421506354394
P 6.907641790108038 4.0012009971922815 1.4628140312810973 -0.4266812544836136 -0.4225044973981046 1.0891689214117177
Ni 5.090801690189384 3.1578995525705458 0.33631654054919674 0.5226834183125515 -0.8333302729067003 0.2739397289811024
Ni 1.4662989485686098 1.1775371021375065 7.158592688460933 0.008118001121444084 -0.7253053735852735 -1.2936564691382688
Ni 6.788883143725228 0.6943389832544038 9.003136847115316 0.25800608846998146 -0.44264600534298604 -0.39311858803681976
Ni 2.7039704243286558 1.448735037349112 9.32195599279252 0.7563079926143749 0.48946270858620866 -0.42124954194508096
Ni 6.265327579297958 1.8776486257118497 2.5287942299575255 0.16610843372772038 0.49683483268056366 -0.09459757017192741
Ni 4.002225708491679 7.0246026973690965 10.453386479674501 1.164661395323078 -0.8810897996791663 -1.2615333633514791
Ni 8.136531310258334 7.053330568534663 0.23311103417820847 -0.18102237472507535 0.3003110198857796 0.07279795779833269
Ni 7.590081538115578 3.7871621773567195 8.177567402320962 0.12773986125185097 0.024320579023235533 0.02214876818289734
Ni 3.1183582805876533 8.238723790634216 12.361895095150315 0.20349150236186886 0.8807018202121285 0.6802712161637704
Ni -0.019243898428773512 4.671308254824616 10.12317506118277 0.9455329577549006 0.18678755934362667 0.5038398032434871
Ni 8.647116186922178 2.3641078433618072 5.7559930301932924 -0.20838508300874434 0.13065420668516853 0.6201937912558997
Ni 3.553123509791688 2.541769412068757 11.467414714341036 -0.0982801612298372 0.3634141189938515 -0.034713235111469246
Ni 1.2272176227670695 3.35725084378141 12.505043668197906 -0.7349351833655536 -0.27317996799694244 0.6528293179027338
Ni 3.2012340541003312 8.340592677968184 8.205931231314374 -0.13266249536444893 -0.4770828468646171 -0.5312950712409623
Ni 5.61459994939809 7.813136019646717 3.5796051059246268 -0.11241942884469672 0.2547868102017354 0.1578186829151024
Ni 3.0160129923864223 8.404016914183526 3.706217175660801 1.0886264186446866 0.02972760897141977 -0.7404810528844473
Ni 3.4740859093039465 4.015448079732151 9.282988199589465 -0.5347534621032081 0.788985428242738 -0.6007464811645653
Ni 7.17800377662803 5.88065635072149 11.353103674545437 0.37768811241436245 1.1485043259472414 -0.7585744200510484
Ni 0.5637566066678447 -0.006157256491993954 0.30023142202786873 -0.33419841666184374 0.18986131317294397 0.2225235792926555
Ni 4.599542509084354 0.2001584760765299 1.6762676870325297 -0.7831801344148704 0.5837198646995818 -0.11118041423127305
Ni 6.007765495324828 5.576056422627769 0.23864177858627253 -0.6134611005177564 0.8948495724674201 0.6605092030454947
Ni 7.76182854511197 8.965576683644592 11.205744796474708 -0.017330520858647572 -0.56060641861057 -0.06359829357693564
Ni 0.1826709687697062 4.919063671888601 5.746942312584842 -0.4740618006501061 -0.7088683110751728 0.49956225891405576
Ni 7.909692587875912 8.94172068549897 2.34813762787374 -0.041619989533631545 -0.26562555268845217 0.5372371477570101
P 8.362983518729582 1.7170655786615256 3.6581591145886176 0.30101704481386865 -1.5604007088121965 -0.5851051750828826
P 1.8369747780822545 3.322383693515068 1.6454301690075903 -0.28107454025367073 -0.9797042043199709 -0.3057183069442799
P 4.713950626792528 1.0140057629275123 8.086989215541147 -0.20490689465215678 -0.46095740205766417 1.0113352009616903
P 8.425185292342132 1.6754569066886207 12.387180295897728 0.25970687321117214 -0.1027824199755649 0.8566470932557697
P 6.188330412713404 7.718763704450447 1.2404957239203154 0.9226226288156304 -0.7807992928875198 0.9255948240700769
P 1.7915998426492832 3.300882733618937 5.968684444557103 -0.24837602157938515 -0.9004278378861461 0.053237004947269614
P 6.981870438445098 4.105523798427438 5.9183099966265456 -0.44359782773329415 -0.8573538895148073 0.11927039032825909
P 2.28907021241996 8.353680218774524 10.33591860998111 0.7157853499099801 0.6326214754962911 -1.1382070577862915
