# total energy = -340862.66065311816 ev
CRYSTAL
PRIMVEC
9.36915286923317 0.00000000000000 0.00000000000000
0.00000000000000 9.36915286923317 0.00000000000000
0.00000000000000 0.00000000000000 13.71270227261024
PRIMCOORD
 96 1
Ni 2.8176415528413368 1.457146866844015 11.548865653923897 1.7001609915636913 -0.7371476176358402 -0.8031750894795586
Ni 3.952508299797356 1.5831994493480295 0.4279969561213873 -1.2084519101454672 -0.023518394836914338 -1.2562821422548687
Ni 7.8816030866113955 4.595972348689375 0.40859062981392735 -2.4544146727521987 0.3549140519426404 -1.1371534197107964
Ni 0.8527587437621267 2.323315679086742 5.696160113269865 0.13862925447084512 0.1508589637678176 -1.187074987131588
Ni 5.718659196934585 4.966053886440867 12.570049910889656 0.6511218482933238 1.3809449072432927 1.1085370415256843
Ni 0.12992953795519355 9.32740390934865 6.6424052011291606 0.7835344324304958 1.2656594697047105 -1.5320409267225807
Ni 4.78084447281374 2.359892851830586 6.407095179528051 -0.19723266593635067 1.330157135167464 -0.5573642575241885
Ni 0.7894635578231961 1.6948047981504544 12.402385172897807 -3.155664290939849 -0.8026834945551209 -2.6473047454491376
Ni 0.47714003667364363 -0.35700407419722563 1.368719865288259 -1.4713801185074145 0.07926222536643769 -0.14964977395106482
Ni 3.236358363060373 5.728140779623307 8.617871405272778 -0.637851613546979 0.7351843232618823 -1.2237643721328213
Ni 0.833843361064241 4.0532079546771795 10.88580133726033 1.2052498582684017 -0.7421692392201475 0.42070549651615285
Ni 6.697829361755052 8.973952617913838 9.593091535249801 -0.6605349140771075 1.5230587778286286 2.6557865576679034
Ni 2.069139931297875 7.146096480077082 13.298400358473728 0.0018452807388548867 1.4002826883399562 0.6445452235170706
Ni 0.33829200211628185 3.2316925249388477 7.751255684438893 -2.0957761207701195 1.0294987592445948 0.4092041807447727
Ni 8.696213450695984 7.6324679430582325 7.887779232173061 -0.015790687175353448 -0.6052790789275964 1.5250503543373606
Ni 8.166987482558497 6.493132110190633 1.4724832331514939 0.5273080615687563 2.1412481370599896 0.453297057298929
Ni 7.9095887461876915 5.223761804855868 11.669290186308233 -0.4661042363659263 -0.8687053099718846 0.35873291146809827
Ni 8.26961718292634 7.265468856595861 10.347714961268371 0.17796276196314512 0.3318785102794155 0.3119254641962564
Ni 5.123521238465913 2.728034974941203 12.351758018533404 -2.422961082228608 0.12058396693336007 0.11548752624705917
Ni 0.875988621349495 5.152237691964858 0.4024360333038272 0.2546315155707937 0.18349166220117433 -0.46190253957975286
Ni 8.565176478873394 4.093101807531505 5.1304975096813505 0.6460745156774034 -0.31816553156869726 1.7646347457670446
Ni 7.250178399137369 0.774674350042418 2.2548074964995855 1.1161331087053874 0.924537586450156 -1.5639976821348356
Ni 3.4154778273320954 5.324199123455767 12.549796613164153 -0.6170786426656857 0.26612948890806426 -0.15133076119791358
Ni 2.7086689359910174 3.5110619247533794 7.705468634439107 0.08524441109180157 -0.51976932998955 -0.8828556333303376
P 9.231332615978934 3.512729633961475 12.947958438935773 2.0218435351467114 1.2570491023278803 -0.5854797848134821
P 1.481478556807069 4.624257821157014 5.880760531961452 -0.6586860337938268 -0.7128290954951335 0.4374675464658402
P 2.324739790320621 8.42751551598269 4.365343155854357 -0.608293697384204 -1.1361404050652497 0.31902736534836024
P 6.172491592052168 7.187601827222375 5.301481738529538 -2.138443320621343 0.48289868221544574 1.153158022669169
P 3.962280326224566 8.207452853736944 8.092811899409671 -0.8838056559484327 0.4059717898504041 0.2324053571827417
P 7.369026103096297 3.6106653887492306 7.305785258243922 0.8707470229922617 -0.550988950125464 -0.07607354322581092
P 8.67106664443459 7.814941564051855 3.2253233748283803 0.2412548371535716 0.8398313072500116 0.058086362619770925
P 5.986560753655247 1.1767937059797642 0.4593808074379992 1.5765220398540913 0.45056628863132725 1.339302806222474
Ni 1.1671903243039343 4.05689940090184 2.447977879307153 0.0037124158545807032 -0.2657093706515101 1.2715202993608619
Ni 2.056247976970127 8.946416677674556 9.412577004118049 -0.7775782148470608 0.8836200223001879 -2.1455812172177047
Ni 3.3823203953801326 3.3198749916051025 4.730388773946573 -0.4979023547131296 1.6456284077334495 0.48513554196576447
Ni 5.892887963416276 2.950617939304803 2.004646430708858 -1.0231080252269025 0.09804439106994728 -2.0208891416532424
Ni 0.6381180102732592 6.203953207337472 11.869468695450944 -0.48658435859714916 0.5362215620083024 -0.9210072046993946
Ni 0.8557250175558512 8.936419791578839 11.450023902055115 -0.4279860893379661 -0.9449734857070048 0.5330621904437142
Ni 7.245334547111608 5.749249481004424 7.234478509699136 -2.264809441454119 -0.3344951219666562 -0.15596003243980883
Ni 7.429438400701908 1.2504633548744475 5.527877948104907 0.3175883189089886 -0.5332830482052687 1.2869335485921385
Ni 4.091799495284734 1.1453976747644414 8.169341950670823 -1.8241521844063875 -0.7403226729297121 1.7071430793084794
Ni 7.366899305398333 2.845233707997745 3.6515551825519856 -0.12394774119927042 -1.4315311048312764 0.906564032690871
Ni 5.176738026679292 4.793951917657141 3.4666943014110454 -2.1118575997130145 -0.19555707800614064 -1.1208199726580956
Ni 4.169451034142566 7.6805223280488 3.5406197281786556 1.0163213413223722 0.87506261964848 1.3917039455320095
Ni 1.3800481080045968 1.7859010713544483 0.695674590088828 0.5949725547952657 0.011917320262876249 3.1935314982992677
Ni 2.5824102321242046 5.736404372440948 4.42677575420582 0.7789622396787811 0.5680415347323766 -0.9354490911563375
Ni 6.199156201075985 4.179372967015448 5.464360713243326 -0.7302159235130133 0.03374032967523866 0.6435841451553819
Ni 3.4669800605731065 2.687466543081356 2.425420706894736 -1.069560403152171 0.8838488504815422 0.42647145246565266
Ni 7.071396224368407 5.98494925936428 3.8349216838126385 0.9470195696027564 0.17086548879673155 -0.4866928591505553
Ni 9.089090137342398 0.8680997946460328 3.9353402641068285 0.2962347929338769 -1.0049434385027338 -0.9041621081175977
Ni 6.603875496930446 7.681590411474209 12.143036715817988 1.1045628873692845 -0.9724030426728673 -0.6480666064067678
Ni 4.229460458175435 7.6930395162623695 12.154404308976314 0.4637766166740142 -0.660925464647307 2.036442773117125
Ni 4.601509518026365 5.5951269165484225 10.417896474555336 0.7263325292982071 -0.7490261142409809 1.3694024538213319
Ni 1.5008445957572545 2.031944394465637 9.388360554735105 1.042324193144037 0.17743131493970732 1.3711731725685095
Ni 8.637693721966976 5.01770602612755 9.405830277147546 -0.5632672532721847 -0.08392697783195868 -1.0945882926550763
Ni 8.267846413036846 7.511999375655482 5.544264596447372 -0.19397610667226592 1.076258383997637 -0.08458415179998335
P 4.302942724013028 4.769039340217111 6.797647379351271 0.43451797691921296 -2.965968299700176 0.1851068292070941
P 3.461302353943299 6.158672091591828 2.3401005164255215 -0.32560604700714246 -1.5806571450683875 -0.5500353279629431
P 7.390265972617376 9.1836623662554 7.58352161471592 -0.2723268759680278 0.8209090164242121 -3.0519724717761374
P 5.6185404295317385 1.7226124438225159 4.563175629122309 -1.314543339889607 -0.3827806964459214 -1.136852857751242
P 2.507784929638366 9.343200301061282 13.491489229651462 -0.20891858691471116 0.12118714773499775 -0.38818618373220887
P 1.6046454402319072 1.924564533600577 3.704938741686175 0.3984945076367524 1.0855642347795948 -2.0765000461493273
P 1.6674749792739707 1.3126370532166982 7.373731291659811 1.0204315068360041 -0.3686481136992812 1.2296665965498694
P 6.466926589656684 6.0342028959202185 9.530808217819155 1.7143282842030088 -0.4456644804543357 0.2771152984956066
Ni 4.131327951177735 6.709999891313007 6.303715946931849 0.5024501219848121 2.4144823553336354 -0.4885173139538038
Ni 4.081343520699147 8.970870166624717 10.363566630982847 1.8958846770546833 1.2319327668762268 -0.9918467532197756
Ni 6.033331564704753 0.5636707216916552 12.181349992585764 -0.11574695055603292 -1.1602946337139501 -1.3653262268694293
Ni 8.613568153366721 2.6792216885694238 1.361975949063613 0.1454082250658915 -1.2053879265081628 0.5467396879308067
Ni 2.670958095751783 0.32287787184011085 2.089116839014172 -1.6722552662923587 -0.5372201784761457 1.6852406228084331
Ni 2.3147429042249037 3.295234119597851 12.951167373788428 0.47157991476851685 1.3966983134228073 -0.025711288723175074
Ni 2.6956645518290157 7.07926631276616 10.597190205070154 -1.312831756515139 -1.3277068738547586 0.44349266961399747
Ni 6.015586389198391 7.5827083722481525 8.067045792144599 -1.0418007165403995 -1.5144041874774241 -1.7457574492465675
Ni 3.8408186286192407 7.919463833296302 1.049590591505221 0.7759424790158508 -0.17233230315024514 0.18301703655760093
Ni 1.569155089219182 7.09794840355797 6.175927260403902 0.45800757540072085 1.295244382450679 -0.7129787336991203
Ni 5.010960236072332 3.6725017975887204 8.79077443662556 -0.5156596786965506 -0.027472237278339785 -0.5167984202866841
Ni 0.11195856586503818 5.9833658725318735 4.368551153791727 1.4693150084482693 0.06938456124140953 -1.4305476578720846
Ni 6.466739206599596 3.3668425548645513 10.62464275984903 -0.14340610703419818 0.9108783437955087 -1.010152493507499
Ni 3.176564429543157 1.0080833705293561 4.800158981423226 1.197754321222305 -0.9841226451026406 0.3712420996787026
Ni 7.386096699597138 2.5961828868202725 12.693286126045619 0.3708152965539291 -0.6161432753356099 0.371544975631102
Ni 1.4000325110431773 7.090068946007363 2.188505749409656 0.7596776804175561 -1.0321734778632805 1.053972833126559
Ni 4.8442455301799265 0.6371052048496912 2.4710288060750014 1.673971477652517 -0.03254913758061491 1.1158410313862654
Ni 0.01686447513804269 5.756651111759454 7.107828175243006 2.407101746598848 -2.8948050492917887 -0.44769179529700964
Ni 8.899814511376432 0.5313986746844397 8.91029484575944 1.1732748480237019 0.3990084711586934 0.6679474044910948
Ni 6.4715924277782095 1.630991498058672 7.832091798351959 0.12401304721956706 1.490954441094916 1.752724367482704
Ni 8.551000950604582 2.4297773629720636 10.241468767898704 0.2119553168585059 0.04952947418869535 0.4788733631061366
Ni 5.173224594358866 9.212219544155818 6.360499571636924 0.657708500371906 -0.5016214554359296 -0.6065692584939296
Ni 8.020032320036163 0.2405848546581752 13.522987384632899 0.25603842322064935 0.4896267449678987 -0.29974152053555475
Ni 6.560805501258455 8.585545017179006 3.5902593738321986 0.24456770357688848 -1.2086496279785701 1.547063111163026
P 0.8822397201339962 7.051271284037009 9.281675885011847 0.21157145115652592 -1.0076958044368902 0.6211533269556915
P 3.193597549432581 3.5448939357108644 10.578142717317018 -0.6595815490249026 0.34862487649981894 0.037391296164264634
P 8.10209672988845 4.479504409555481 2.605797511479528 1.1975092950910342 0.5799238879922594 -0.2936132961506298
P 5.4681842645232335 1.4203448344316643 10.29250722807342 -1.00729934032942 0.6885478543502658 -1.342076512312869
P 4.061555869870511 3.8906812601107204 0.5414283528151478 0.3479003396289686 -0.013667727295079686 -0.35510637045910454
P 9.045308086053469 7.735135120037495 13.307203614495787 0.6901373103245727 -1.2266118688839454 0.04899288495893498
P 5.706854064337955 7.106558655031226 0.21005828082774705 -0.17363328134985578 -1.1545093944907407 -0.22353222306282794
P 8.156053681177331 0.34919863295416825 11.036764623373807 0.45059662764863045 0.2883962707260646 1.2456179776728031
