# total energy = -340858.26976503286 ev
CRYSTAL
PRIMVEC
9.35264953438971 0.00000000000000 0.00000000000000

0.00000000000000 9.35264953438971 0.00000000000000

0.00000000000000 0.00000000000000 13.68854797388659

PRIMCOORD
 96 1
Ni 2.1057957767537836 2.876435382416364 7.638593089500248 -0.9422954246542095 -1.8442466411634175 0.2178076618742249
Ni 3.5014168262474796 4.583976642211921 2.391786701845579 -0.1647632325537356 -0.03908822425071333 0.0759033361965338
Ni 2.8324405196158495 0.30579983653131293 7.109982280401867 -0.6334231454619801 0.9824054053012178 -0.4718977031192518
Ni 3.8902532252550013 8.95512439456659 0.517446551503787 0.7739904974958024 0.5563525284302225 1.7802724523043016
Ni 2.8768936622372023 5.794873513310004 4.44159190767216 0.5937523092349193 -0.9496958308833385 -1.0962183720593315
Ni 3.525593424959072 5.741928165029029 0.49858599871392373 0.4268298642463359 1.5340697842271516 -1.1312810200904193
Ni 3.8218292422089633 1.8118513586080855 5.360572015015523 -1.3428563279016872 -1.3348591686288236 -0.5509601537700576
Ni 1.410286003760534 1.2036953310563334 5.148523136118639 0.5707211384470687 2.407815227726105 -1.1092986022820572
Ni 3.146483781332616 8.117912630440138 12.346166864127422 -2.038737482688573 -0.5065803421031017 -1.1768772206629796
Ni 8.248980659200003 1.988981185686942 10.414123672752398 -2.1518827339557003 -0.32469690492931175 -0.8270871202104659
Ni 0.5645334001975518 3.0098509261768522 11.670938311368635 1.0154358533936254 1.1497196864115813 1.5728201655224718
Ni 5.747315291086234 1.5314682820994507 9.583599052950426 0.24766639710687025 0.6213657000768137 0.21909964121277106
Ni 5.896424580548096 4.830895939149926 12.70250654751278 0.32986225118033513 1.180797124542676 -0.39304608292767146
Ni 5.062186958932392 0.28794656408235425 3.1333358267992484 -1.5308800736452601 0.1685818349688774 -2.1185519810140545
Ni 8.758634583219651 5.2269806414462225 6.645187403987743 0.9351333596881314 -1.4792451230777879 1.3260549400736326
Ni 5.38230009011292 2.6996141927678683 12.21018495337024 0.9748725872592823 -3.3791746596258063 -2.622964626041876
Ni 6.909512916733154 3.002948670916057 0.05259649445817438 1.9453467883405529 1.6931377661683227 -1.2486302821365658
Ni 4.177725610012528 3.4393713500955636 0.26599402539924044 -4.711748888875195 -0.2323847883574514 -2.3193096293845277
Ni 3.7897870653478747 5.665909830666235 9.915272058795374 -0.8233870456510595 0.32312853200092734 -0.7668860252405373
Ni 9.017160518069103 9.16551224292917 4.397405315558847 -0.5873595183346981 -0.9958856991758397 -1.3212379783009631
Ni 4.714773444139045 7.268046731668893 2.5154352738325603 -1.3218642990310525 -0.6786421652007796 -0.8149754245485965
Ni 5.628667580736038 5.789009402133151 8.69348683326014 -1.0161033117742952 0.9169937126646273 -1.078991980878716
Ni 6.335194774728226 4.203473453824139 10.203935971087082 -1.1602262423698597 -0.8097884810310182 0.8740264650744818
Ni 8.264356414821611 8.563528963984632 2.1572736943431354 1.983714332375158 1.4842348629828954 -0.8933123098872874
P 2.745180300668401 2.4923781872547313 3.535971124738717 -0.6644915847320104 -0.09266615747716944 -0.4592944125329445
P 1.1112163337409664 5.799306669127914 8.356310728505365 1.3368913685675041 1.2669223955775342 0.46971637919721687
P 4.82404979978556 9.129654185110894 5.096150169981242 1.2453037888664942 0.11950281805403934 1.5753295622078871
P 9.036707555325284 2.5202677877800577 0.14615852857462527 1.473908541356223 -0.5401265534896633 0.11385667551185555
P 9.120301535706023 2.3113670106728534 7.787332949310619 -0.5378387858967512 -0.9104921641006836 1.288728435709032
P 2.437431372001113 7.12554041268687 2.2555990328014874 1.2118817617626227 0.11147300577102738 -1.2771618139173553
P 7.524730194585585 5.906104572682138 8.012878636563672 0.3499572221579973 1.3779775970848527 2.23574389154673
P 6.184299129230033 8.537977525810524 1.2410124021817694 -0.5498039286784273 -0.5163973281935236 -0.1943915969431297
Ni 0.3644521714791414 8.238907855790956 7.94698267465177 -0.007354383482542173 -0.6325759669703364 -0.11210832536218111
Ni 0.12543773381813306 1.3949008954895208 2.317060903630539 0.6160892821692229 0.09910882777871963 -0.4438310267900228
Ni 1.2112803297236836 3.939653919411531 2.5422100385488258 0.8978153399639635 -0.6297858058197089 0.703434284543795
Ni 1.5866769715364055 4.312796572717679 0.133612884662931 0.40558740992779174 -2.2610857127456288 -1.2958066827120522
Ni 8.29999000905417 1.0652574145654292 6.1703870632402875 2.268722660465596 3.3167549597380037 -0.6143722994781161
Ni 4.706253180531207 3.4341806296758604 3.9336775764418186 0.8782803552548295 0.6826188904603405 -1.0803724061660105
Ni 8.394217951808248 5.329766258405758 12.843813856841098 0.14884167622747269 0.6529879549677852 0.45196008365506035
Ni 5.146547856564331 6.975832553663095 12.942878054602435 0.8540384519883292 1.0538910720460302 0.20608497412065802
Ni 4.963581976256835 1.7360294298827945 7.34549415086075 0.028486537475467068 -0.6312446497534224 1.1990794677916317
Ni 1.992684834851271 3.9082664280087838 9.76384985913569 1.0692876091067585 0.61376834734553 -0.07920977486194745
Ni 3.951475668259288 4.207457682470614 7.638935396468467 0.7452782171627745 0.45844903381351365 -1.0346862169828053
Ni 7.535747615584522 8.420873002612131 11.960122230967256 -2.287715142407699 -0.19646570586333906 -0.05769092695356517
Ni 6.719962771244628 7.974929326338466 9.321271266117895 -0.11544201772110442 -0.4463815611260183 -0.3605288270262565
Ni 7.2222842181308575 0.6518366413322629 8.043856481922486 0.4235416804133673 -0.28999292578922314 1.2178174105207673
Ni 2.0711629160075455 8.35983761259594 10.079876817791227 -0.01684818190559034 -0.13710176208272518 -0.5313544637239882
Ni 8.382985419872998 4.373467209407078 2.8907477418006384 -0.9590312493516516 2.97472187752309 -0.1607289145833619
Ni 3.4695523497250833 1.3678343281118235 9.974351809821007 -1.6170477678822794 -0.3254666932158008 0.8010390169731623
Ni 1.4300762099012414 6.662920962524319 13.50484789359811 0.4500520679990701 0.19723086616413776 -0.4889016938764161
Ni 6.366544855533355 5.0987184075078185 6.4196005650773085 -1.0152479057525354 -0.6620379809851954 -1.7371918190647435
Ni 1.2353634019412274 0.8217593167797256 11.514751872102108 0.8030015400161719 -1.936715080807484 1.643511618500763
Ni 3.3623429295970446 7.703272271724575 5.621297693004999 -0.36002257681379934 1.381171678542118 -0.39005306173761856
Ni 6.822767093502973 7.708921271965118 3.3921451469256665 0.4279403237016952 0.9937025754815918 -0.30104121318358473
Ni 6.70026609159797 3.3697408752762974 8.049044396547368 0.8702551709575077 -0.6020430884888018 -0.8562244038960544
Ni 5.65030961145891 6.968013738760623 4.998058647758012 -2.1206857395276058 -0.219847318012073 2.400238443820111
P 4.271439157049338 3.3454239868236324 9.50461592872629 0.2059854724283162 -0.14591550371961323 0.8017398996949289
P 0.30036594722708276 7.643630426469712 11.859661682649772 0.31659304487525475 1.3729528901767516 -0.984961338953852
P 4.285412015260216 5.951427511698144 6.427238873846266 -0.47576284250161294 -0.06986844285636355 0.14937903678818143
P 3.5792121639971985 1.0128171093523162 12.390818282916161 -0.10752687663908579 -0.6852496432149683 -0.29263961938345084
P 6.696216394405661 5.623186928184784 3.811891116951347 0.7812770038548866 -1.269175196167453 -0.6635181650751476
P 6.086685527391392 6.388953803507426 10.85679766279412 -1.0753592692221352 0.8791650718526279 1.1069614695084484
P 6.54117752522111 0.8743539407080189 11.37707245547794 0.9418773632801843 0.0759069357409596 1.2978568803728616
P 5.476443859022353 3.678181899999546 1.5692277335417373 3.2379529618374367 1.7792938904411164 4.687043415708715
Ni 5.045024847274453 8.583178880384267 11.144654441442189 0.18221973746728617 0.774399302898447 -1.4807808429960239
Ni 1.171166816426191 5.855581560597024 11.078606966609927 0.851871012023365 -0.5491228434510027 -0.3408704293653807
Ni 8.76310514963518 8.84766245290462 10.12765015095131 1.7685086269001544 1.0544991379436741 -0.6649073321131904
Ni 5.23767071971599 8.111674413287089 7.334747956694554 -0.16611897525068164 -0.2917451325936395 -0.15875456446581046
Ni 8.645299177731422 7.800147014260232 0.08507544004647073 -0.36294000757091044 -1.5285349704518514 0.613722067488627
Ni 5.361396918693033 1.523097660882091 1.0354196571690684 -1.1326023100050044 -1.488943067091842 -0.21132256837051347
Ni 0.22517999866132285 3.337661287817589 5.994146673119834 -1.2837338107079181 -1.857858575519897 -1.488317003472069
Ni 9.121358385088772 4.266435489617733 8.898733530244861 -1.5638429017245261 -0.5234735183140147 0.8674737515576287
Ni 2.0430394992470977 1.6292221736791648 13.76766762978934 -0.5427138546008653 0.3305633910124178 0.8225673779632414
Ni 7.053347311930669 0.8164180187046035 3.8410199435228187 1.0700972494922474 1.1003503919498339 1.270026745534471
Ni 1.5301963217803882 7.733378450158856 4.0871676468849225 -0.6964131160309556 -0.49069735232425815 -1.0370305488452656
Ni 2.5813499410432716 0.18459698236370556 2.5450841077109425 0.4220558398964602 1.2599413362740108 1.312893720101326
Ni 7.548467218775147 0.7778963263358198 0.4311524612398617 0.7944101988027351 -1.1397846866860564 -0.9307164615673583
Ni 8.357443334348295 6.702043094984895 5.201346899957351 -1.0749478927163292 1.8598483522564164 -2.5853131342376896
Ni 7.219057554086177 2.410205809583533 2.140286477229068 0.07625274911615255 0.15768549977134777 1.576181368685221
Ni 1.2108875184486791 8.643007778627227 1.0273529970573672 0.2553743072740892 0.5548034387755477 0.050300033806132724
Ni 1.2627292540998805 6.395678358429528 6.132195519395496 1.1755150502081302 1.3728330767694357 1.658565941730724
Ni 0.9847311031894878 1.745354021339451 9.570717648925097 0.27167895797138375 -0.14955155781030371 -2.2938215124157524
Ni 2.87525694859135 7.364949532152763 7.833969935568009 -0.6127620175682028 -1.7156886548856454 1.7430480207352046
Ni 3.2840144908312476 3.2355397089658 11.834571330091324 -2.3176731222223697 -0.12031580087363795 -1.4737982410306036
Ni 6.7010984773950035 6.052922463039807 1.2818460694834375 0.24990762773256314 -0.16350724865944744 0.3106445406013037
Ni 8.2635707922716 6.36649809228633 10.438653801611494 -0.3978915839454309 -0.5903448262152672 -0.5178471732661727
Ni 2.294971816266114 3.713123398176145 5.541493406163114 2.0363054762083124 0.6938656670187534 -1.8452334305567188
Ni 6.976309538782744 8.835270192443167 5.999156887406024 -1.2434273977793877 -1.9802317731431962 -1.306895336426046
P 3.2050968351529443 5.385414522364742 11.821785323089925 -0.9299626141204693 0.4854913826432865 3.5384095061621452
P 4.006992995126604 8.99655663143017 8.779930565914544 0.09836166520004995 0.15529437383135192 1.7558269176674277
P 8.49532944452431 2.590702590448143 3.907902609946934 0.5985805838614982 -1.897389286624668 1.8331387041757137
P 0.6076687545177585 5.225521628139063 4.516522528909168 0.14742217017212672 -0.9505890321215694 -1.062374169816377
P 5.665526372040636 2.824481414972304 5.662924464976201 1.7005587412227423 0.5861901806169453 1.4412362479341825
P 0.13619608642855643 5.484561958705782 1.0290888487869112 -1.8743773991105266 0.1552421804371778 1.7488949664342845
P 1.0487593410152363 8.722598825062683 5.926347447054041 0.13678114551851284 -1.3950772328796168 2.0944882551966315
P 8.121822037891373 4.071544981319025 11.20763518253459 0.9130396131128856 -0.3594319944176519 -0.29734602372018465
