# total energy = -340874.13955077186 ev
CRYSTAL
PRIMVEC
9.18682833772201 0.00000000000000 0.00000000000000
0.00000000000000 9.18682833772201 0.00000000000000
0.00000000000000 0.00000000000000 13.44585189109386
PRIMCOORD
 96 1
Ni 8.208431310828157 3.4298473187575014 6.099845617234629 -0.5178345748606823 -0.34368347333414356 0.7844124641600749
Ni 7.982159723602979 3.3727695529665946 10.218457951671873 0.6382902437462943 -1.7123364505839607 0.8841309004983354
Ni 3.713894870743507 4.575444839138331 7.267335350053851 1.0492569157081284 0.4921145443867589 1.2531505386044224
Ni 5.5932719480239195 3.0730492714716102 6.612562518697773 0.28853999539278047 0.0642886347757409 -0.48365921453055416
Ni 3.1727171744275977 0.7515027865412727 3.2767809748455115 -0.18248558953416313 -0.40731647680375654 -1.1394859244987152
Ni 2.576997277001014 7.613179941657705 4.227106942265581 -0.5630965320222754 -0.5695129770715804 1.2622355316248264
Ni 6.819989164515116 1.7882161775631793 8.196282648751561 -0.1210339099865851 -0.8447786239529581 -0.3729233440358674
Ni 3.3450988253692646 3.3015808185204754 10.90437137576921 -0.5867627652909636 -0.1486969231194923 -0.3605936188259209
Ni 3.649458455282792 5.580805421679439 10.494863899668683 0.8853349481087656 1.4549767374487264 -1.437402733120705
Ni 4.293501070890636 5.441211561838326 13.247418714241642 -0.2029464284916763 -1.7576562575666828 -1.3479993055552075
Ni 2.0225813607422922 3.0290076153953818 3.7705665787124345 0.8496122978961754 -1.6651312536530678 -0.012588378187971868
Ni 8.021433415660942 5.532767495183276 5.11688619743367 -0.04915640711999276 0.49800597017052944 -0.38500290090822076
Ni 0.5693454313378794 6.559478267278234 0.36818328390985267 0.18402388055556046 -0.5810844839592638 -0.053614700001662505
Ni 4.458762929704836 1.2285086480587526 7.565469984940834 0.8904252181474794 -2.170689068028926 0.9983351891575967
Ni 8.800954191918795 5.4149739794950404 11.656114857218531 -0.6364254226234136 0.8619463939814961 0.7042081865953421
Ni 2.897525725165306 7.56448056350583 12.046327237312196 0.62770038404559 0.537146644925733 -1.407126964955299
Ni 6.935614588665181 8.290745294650229 11.68006216320391 -0.16409088907705935 -0.1309326571575358 -0.03385011578022557
Ni 1.368800706869784 8.210792325765912 2.071441508393819 -2.1782697085896614 -1.5635721645616425 3.055696457594944
Ni 0.4350174616225273 4.659678870127681 3.335283617744767 -0.06478742878903035 -0.5575725168802526 0.20770811154637778
Ni 1.4459700667029756 5.588265126463313 5.3890165954225795 0.38996050202381227 -0.35022230289392586 0.49691685087140863
Ni 3.3427010631173046 8.398075012618225 9.291137640310646 -0.21729292702133543 -1.0701435293491506 -0.27712661134951627
Ni 6.443173017815353 8.32192539075426 9.340752945269113 -1.2193276765177066 1.2006570966913968 -1.5037181685184877
Ni 6.273721965181636 4.2048389885394295 8.90126149814197 -0.5287496791112895 -0.7939952227525036 -4.632956661166641
Ni 6.522271611644373 6.016261095023876 10.181306417009322 0.40792300003950394 1.899932878982128 1.602902586730149
P 6.609638351169808 2.7165727631850234 4.512670320962595 -0.15938268496811261 2.191766971745148 0.6410482661074057
P 5.245522926861325 2.367546772853761 12.370224495506347 1.392742671209169 0.6684063464053843 1.2963448146037093
P 9.42541048905469 1.6640929370029116 5.9864700473968435 0.00042423202161217264 -0.639581451753892 -0.4655848735273465
P 1.0592964529673772 9.187287892997984 9.076837409371018 0.1763627644658769 -0.6736241431608979 0.15364218293990958
P 1.887470673234346 0.7789833467875851 12.293273782192683 0.7515599364064283 0.4888471864893968 0.02282445409368327
P 4.882055242046993 8.217719194493794 10.845263320868405 -0.5756082913360409 -0.5545316731713998 0.4585205104813974
P 0.8759999310235893 4.047624791536405 10.604448065363234 1.8648314072933043 -1.1517351741797133 0.3821358637730709
P 3.118257654773888 6.3347592540782705 8.30508593401923 -0.5473073875088187 0.019319526264218338 1.3660160538476023
Ni 4.810793012972462 7.873911322779825 0.20273401379320058 0.5972109572074812 -0.11961131860744562 0.10766468776853072
Ni 1.0321493745974868 6.9899638663762715 8.169054726290417 0.8354164660117677 1.313561435592312 -0.743905505184964
Ni 4.938554237639151 4.139722747765898 3.4239594803388003 -0.8889010681934691 -0.36221444225879557 0.32584953047651627
Ni 7.2201398557358685 0.9653335705419152 5.5899656084282086 -0.08209121017480056 0.29196676168614233 1.6439301940954203
Ni 9.406577490523969 0.14126126922322232 0.06559763058963332 -1.3473598721989957 -1.0856801915321688 -0.9352811981199054
Ni 3.4773615960262236 7.625398423631293 6.546005783207355 0.4028450712959643 -0.04046530710389805 0.948182736672922
Ni 1.6121965425150906 3.578986293463695 8.231228425878879 -0.33287327009251705 1.30781553424747 0.8283441325460187
Ni 5.832846062991773 3.9983190827001267 10.869466020687517 -2.10940990950347 -0.21680184631752986 5.430648873154757
Ni 2.9135567409877963 2.407720774109778 6.534415680306695 -2.3437975872235635 -0.42894973880281606 -0.1814466067466875
Ni 5.689825516100924 1.7493467059614851 10.331362237204962 0.049316329736624746 -0.9566239254617395 -0.6305964746464623
Ni 2.1076789536154887 5.255527383153986 12.202958070702195 -0.6751737470362049 -1.5139727563669605 0.6198798595599067
Ni 6.436558501258221 0.5406356734313668 0.02941898107069391 -1.0425023705931142 1.045311300796819 1.313947101066505
Ni 9.28255530507777 7.607162568956426 5.912625400816465 -0.4683138424227354 -1.6610521984876878 -1.247953567784515
Ni 8.129929860854988 2.1731075465597733 0.9492501897966807 -1.01588913888096 0.5171792006648706 0.8416873866221439
Ni 5.5109579642018485 2.8151382467148225 1.2450927109600474 -0.29947901090278745 -0.5267843278548024 -1.1439681286397847
Ni 7.735667926735792 8.458524344487557 4.231086676394121 1.0935503383088652 -1.1180712062683646 -1.544548058050656
Ni 7.635072154096097 6.665503455591908 7.74747300142456 0.9587335156055746 -0.7551949620558542 0.1690595459362443
Ni 4.486994053843811 2.072318850520494 4.807510559130985 0.27106986363247515 -0.6554353880670131 -0.7143252204246859
Ni 2.784555294466645 5.1468472013889075 3.2950407152746126 0.3026136998770272 0.8309882550370851 0.10094022456050358
Ni 8.496576188348163 8.962026856913479 7.602150235298689 -1.9554231987399484 0.07019677273005975 0.7643666012527932
Ni 4.440628130144035 5.975205158226908 5.160800156593032 -0.3694559543125573 -0.2481181399323082 0.03828321185091472
Ni 5.729567736415018 5.61094740615714 1.5555239158633078 1.3408012451448714 0.1925630283748232 0.07029293198829185
Ni 7.081381997292949 3.8526159818722197 2.701311603595155 1.8523163055454295 0.2572108462621957 -0.04409390499542083
Ni 7.361065805716957 4.242514172429419 12.892891650973697 -0.893517483919558 -0.6754367708896045 1.3299486187010838
P 8.432654235286337 0.10625761507602878 2.0390634498466644 -0.14013437826146186 0.5309965661639371 0.7638351542293554
P 8.903056604440946 4.319205817177929 1.2680101734647948 -1.6721382810985204 -0.6747613420891347 -0.9708516390253474
P 6.000689420628964 8.87323615896255 7.1717620165832985 0.3803150085142482 0.050873389811099484 0.17228756595523878
P 6.4422910822744015 4.915991386716494 6.924237620186916 0.7944251112010705 2.686796890006489 -1.3000276627719352
P 0.09060050317558734 7.648347121353116 11.970062780091336 -0.4759608174450319 -0.322911788004431 0.20875917851871145
P 0.20521353881926943 5.205578596319096 7.232227884744025 0.03565682997166117 -0.737195183044324 -1.8000470638280677
P 3.4536503915346204 3.2197812970972928 1.7962849690800236 -0.5301941248672998 -0.13025131481979504 1.0696318798200546
P 0.504396390843987 6.91092039351856 3.7023286535970796 0.41083117482523435 0.22418528326579457 1.4900990350731564
Ni 8.825234979780594 2.426517025326291 3.8188369319709508 -0.29451035404360243 -1.035775850502558 0.4726746904945924
Ni 7.5189598280327985 7.3888835225711125 0.3412318849881105 1.603526336357077 -0.16478971491629685 -1.241299038582475
Ni 3.173112208055315 2.49980954351072 -0.3363610284900679 0.008697527773997925 0.7674807214017427 2.0007561183487925
Ni 6.549519745128332 8.166548559461548 2.0860834757393123 -0.9914626304074796 -0.7921273163058293 2.044938212182646
Ni 1.7889786843329596 4.4756023864398635 1.1852938065521652 1.256608929466668 -0.04810611147860748 -0.7953306537344753
Ni 2.5712187618420765 8.853337488319848 0.5581126960678743 2.810878585680462 1.8898808940627643 -1.462818087870016
Ni 2.6649519735537495 1.5220553807670816 9.197809567738098 -0.5511380741088185 0.47973648243738026 0.2089813218318465
Ni 8.203736841438305 6.138390793788453 2.3734346112724625 -1.6166209647575063 1.0993774865136035 -0.19055011170985245
Ni 6.510089876984991 1.156428791243131 3.160353540562894 0.654293561153086 0.12507671259739106 -1.130964003070633
Ni 3.959863018383253 0.8013358193364112 11.660511673363315 -0.8851608844247464 -1.6987330008679131 -0.28774269630246574
Ni 5.148859116841701 8.615444562976933 4.3432661211544925 -0.7041305392798712 -0.11726570119340449 -0.041461866689212465
Ni 0.9667942762816147 0.10498523932163628 4.24037823479118 -0.8427307402849938 1.4891235585337645 0.3825205008059993
Ni -0.01998227078252079 1.8943883551336786 8.295552762031265 0.8665928916145721 0.7808142052858553 0.007335614429464786
Ni 6.515703029230001 7.268875981201949 5.852925714156941 -1.1131542285827216 -0.37314420179742186 -0.5499360833809174
Ni 4.006476986453921 7.1062599290106006 2.628583156683793 0.7969807877433888 0.16986327278446228 -1.8426368734741363
Ni 8.871389606423683 5.241756327155181 9.266693326900628 -0.3069637493156068 -0.3249969526682338 -0.9629128437942449
Ni 8.493094380327118 7.524876145620009 9.911017978145004 0.5237301144095109 1.5086544294778403 0.06755367868025786
Ni 0.9767895457457234 1.5037460314638018 1.9191395086173197 1.617098161504241 0.600225832774405 0.7554852396027634
Ni 0.76853976009016 2.6428852113728776 12.86086361059436 0.008551232004120758 1.2282540324730589 0.34057038162645864
Ni 0.5832937931277289 1.5436628015203753 10.799990629766267 0.6046553293006683 0.3159029607867656 -2.209888363936207
Ni 5.285669367631687 6.577980539981096 8.146667343793094 -0.9943170691371391 -0.17253439185872224 -0.7566823452346582
Ni 1.2741488123029543 6.554976721287964 10.440220643443942 2.3357250946280743 0.25485648709740627 0.2847617592972709
Ni 1.4461354296169038 0.006725677182604694 6.788071366078395 1.4574725072873866 1.3935993627825096 0.545768582266789
Ni 7.86066391600846 1.6585808398719695 12.081958351849462 -1.2496497245400155 0.3836445871081135 -0.8417717188058341
P 4.924948544554276 0.3330666317714747 1.9294122203036856 -1.395453899492745 0.01053895185811088 -0.6870483869866039
P 7.724147643732124 0.823342867131698 9.92947982880224 0.5434139659916835 0.5518361286171077 0.8292990402601202
P 6.211040233974272 6.219776907926814 12.65863762842006 0.06755342156994174 -1.1273048090514908 -1.125961921870351
P 2.7786757241936395 6.597842463309592 0.596077265057239 -0.472241973832548 0.5240448174364524 1.5870249962679444
P 3.369122382031621 4.057665995143271 5.255956408047343 -0.2887418269909414 -0.026620173690689638 -1.7480375035299958
P 5.9529546594750045 6.194880602552058 3.664868441495196 1.1260925339109444 0.8464033040405745 -0.3216223797690461
P 3.194003056181586 0.24492819864770826 5.497336653508436 0.5801568299386718 1.580784414674871 -1.187827034806264
P 4.27217844182244 3.0599764144427257 8.951804672784146 0.27933261786189956 0.10057461369096873 -0.780367861777056
