# total energy = -381166.95485684305 ev
CRYSTAL
PRIMVEC
9.25279016736832 0.00000000000000 0.00000000000000
0.00000000000000 9.25279016736832 0.00000000000000
0.00000000000000 0.00000000000000 13.54239369630210
PRIMCOORD
 96 1
Ni 9.027771362342827 8.209130770506682 8.300539082535497 -0.9884469835096075 0.6317439579873443 1.9925154756065555
Ni 2.2898619540709295 1.9781909770106445 10.603315155555572 -0.11304754934699884 1.123755915357968 0.7812849742746868
Ni 3.2300286892602914 -0.15004786840927767 10.01255505072613 2.1435531310440825 1.1625289223611075 -1.1905256646843496
Ni 4.803641425208088 4.500723587451302 4.985049774633588 1.7395783170190493 -1.2016670260131497 -0.7250140675970997
Ni 1.140720957603021 6.5424534731269794 6.2909154527469315 -0.07981552676674641 -2.6517057027303106 0.3361216018264856
Ni 2.817456037670782 4.671659629198473 5.9158323302440845 -1.2905431203202677 0.907539766340579 1.3778115038206333
Ni 8.929941614080793 3.3654432703455925 11.110558652914289 -1.2334980544808176 0.672226748592739 0.6661877414875107
Ni 5.140045109835235 1.4904486597746036 8.56590262167589 -0.12187851737506751 0.018983483081038272 -0.052245330457961627
Ni 7.713708637602669 4.630133107851644 13.511543838584819 -0.026330667474728845 -0.8107642146807262 0.1636106070065311
Ni 5.112397773430528 3.325332425862861 12.737081617698443 1.3636889483763224 -1.4986885765143803 -0.5649240721493174
Ni 2.1064531514557716 8.843354005621876 11.857787137107234 -2.219100369452778 0.14042928379406136 0.9500688979520412
Ni 6.2993456696807755 7.805857172828395 8.19064277088478 -0.24756972362800592 0.7758332071314961 -1.0350785673252174
Ni 2.9935643890063837 3.8252236563182387 3.5328854586033334 0.12022786914552197 -0.20229491095060642 0.8064864132409787
Ni 6.078342781452391 0.9139970693414939 2.5428415591269657 0.5736863917229797 -0.08136024554604698 1.5534381614514343
Ni 4.541176785162606 1.345411177129432 0.9446904242014981 -0.5777217381346179 0.7980269696197159 -0.3133660532975248
Ni 0.7178656805293916 5.4111240973347945 0.42587446243803906 -1.141725612462511 -1.077172925392106 -1.611618112226276
Ni 5.285508220818631 1.727903008554383 4.698614856914065 0.18478981218730756 -0.31524064461241835 0.6290121608784779
Ni 6.85769602711237 3.204074613418524 9.206849859256044 1.1071761566224159 -4.244290966694852 0.17590973608885835
Ni 8.285651343487581 6.255320895044365 11.90148898937399 0.2610081085210989 -0.9647938628670415 -0.4022241498825137
Ni 1.5682553705601379 3.222062037103514 12.492966185425441 0.7258414485944015 2.4107460282196547 -0.17202582765341987
Ni 6.69042409018992 8.917940745500838 4.619228694882118 -0.5797968754960917 0.16838694534925194 0.4269265377252002
Ni 5.682934055241305 3.5590393947082677 7.098543373971 -0.11305911931122464 -1.2542363154694334 0.166207678309746
Ni 3.058250643626632 5.1730498116276 0.4764742696210302 0.9153759745555462 -0.019143919918302513 -0.579237660558512
Ni 7.830423330175949 1.8656955566597675 4.193334801585159 -0.4062918921939841 0.22010494254883384 0.15982800003564732
P 3.55624505213992 1.398707247307179 2.917546242520391 0.003929674071709361 0.8904131339626213 0.7735528957377515
Ni 8.414237365581357 5.753116467098634 2.441287562905462 -0.3181781299741875 -0.6879662708151829 -1.633590245621993
P 1.1630756981497985 0.5666769431178714 9.607596519995868 -1.8314744290994134 -1.18180036899621 -1.2456488309107387
Ni 7.204675650665413 1.1948867900371414 6.847305143985701 -1.5428716987894977 -0.6491901784882498 0.0035602065474325782
P 1.5357965833754958 4.661092943062537 7.855319812125128 -0.9937100316807594 1.1243076740963798 0.6663972863951556
P 6.400626708598418 0.24307356812334646 0.46277643936215224 0.6148595235271799 0.5478432054076307 -0.29486362361796314
P 2.093027353221759 8.682040865434576 0.929670370257134 -0.136749520949629 -0.2924976944889479 -0.6656982034456019
Ni 9.326904809005397 -0.09605321258944358 3.9129798921492815 -2.7047928123632774 0.1507527772072565 0.6786866452854698
Ni 1.8201625772596468 5.853777569088862 2.251016891254919 0.35911549161849765 -0.3355217634589577 2.1863275458971314
Ni 6.693533027616955 5.1375005925958455 8.63840840909253 -0.7822249695904528 3.5025855544850004 -1.3996591958233444
Ni 7.265244413752831 7.27857768408723 10.122844605950208 0.47696071946445595 -0.5619238518704129 -0.47118113666820144
Ni 3.2930494416874856 7.044130492044911 12.772278305432668 -0.6826767402814694 1.0814409566398406 0.8953370536267998
Ni 5.34744639682034 5.155238190951876 0.32951035610589197 0.7312711042504051 1.2885669704305034 1.4036868289254987
Ni 3.7863989496401436 4.9359840800262 11.668328860415304 -0.8217181425890687 0.07082386479109737 0.1490360516264659
Ni 7.210116291162724 4.138717433000923 3.5012094574494266 -0.22217905146904318 -0.12711996827966493 0.9609654902598868
Ni 6.897353484886993 2.8035305887788535 1.4139752760225093 -0.07957152907674038 1.3419248172263534 0.36300119982614903
Ni 8.32045108653246 0.8721550278569816 1.4805898120707166 -0.43796788314102636 -1.2562633732017912 0.029568457685736172
Ni 9.195987083841343 8.61658662924753 12.83971911562443 0.2131904748171877 -0.1306323523082976 0.012848573827894
Ni 3.0430945736698356 0.6537762308616543 5.073711858601855 -1.2100755617918193 1.2985446504685056 0.004564993662863105
Ni 3.0707326572845806 3.109751672551865 8.379396910260647 -0.040679994217865424 0.8834567572494463 -0.18831248062858538
Ni 1.9490354358422273 7.914309123966134 8.362495764117128 0.9584748626275493 -0.31077772374505835 -0.42230780800626627
Ni 3.09728816447384 6.888655862323263 10.122667877661945 0.45851433983381035 -2.035091144185237 0.8958494744868442
Ni 3.726209550941143 2.6150882684246866 6.142640418894261 0.5316617105517618 -0.7180232381015634 0.3679127781951535
Ni 0.28202318746592064 7.7453531792707055 1.7263707465367728 2.449762518692168 2.1094088810622056 2.42089417239725
Ni 0.34748297532694344 2.9872354806727763 8.952077063505484 0.1308177288462263 -0.24064394304245007 -0.4499926755160444
Ni 5.68067637449072 7.5181879329280195 0.2825607745626788 -0.4613284122438378 -0.20524448049723362 0.23593111094781302
Ni 6.695892489057115 7.982668736201064 2.4569284790562365 0.8265962966169764 -0.9974491870082177 -0.6364094817838136
Ni 7.91035818265261 6.715480645405429 4.459727250969263 -0.24954895884156378 0.5673761332342357 0.5603976450338736
Ni 9.31404343095903 4.657660157986853 5.287194079149601 0.3318929084571187 0.541791342786596 0.43929637214446277
Ni 1.7980113980920205 4.528565232445198 10.131687497316332 0.6449208616889345 0.20377252393739748 0.24332637497061968
Ni 0.27990429856475674 1.1346326218084104 7.488631745954273 -1.0505357824205521 -1.108576379404052 0.028501964094434784
Ni 3.628583364058258 7.166905762042919 1.9230202915867145 1.1759354255750005 0.7845590170402681 -0.5209360966041415
P 3.1583380726392525 7.165231007059903 6.7121514915773135 1.037117195021801 0.614178181189439 -0.373700331411208
Ni 1.446747732786843 2.955489158315163 6.677727411804867 -1.3537940578601138 -1.4582021863645596 -2.066430834838783
P 9.108242876637249 2.9871614583530848 1.103807877330954 0.7571693121734056 0.30080030081737225 -0.26619170960456734
Ni 4.337818967390639 8.753555679046348 3.68195993350867 1.3436507987785247 -0.8509999222723214 -0.5503384610256586
P 1.6265572001070105 5.764969291039207 12.013267318502859 -0.14508015230251145 -0.04651511284240376 -0.5075882145423257
P 6.513242415218794 7.1436164897100385 6.138618231098033 0.19688530989926092 0.4371014213756731 -0.44749896255991317
P 3.471554265623094 2.055646081777645 12.763177261226621 -2.2140944315977547 1.1772495164007337 -0.6942557033683204
Ni 8.861933607864396 5.337268327862784 9.595828821722943 -0.3877161860743258 -0.3731534577688025 -0.1135543137800883
Ni 4.615587722032301 0.07189140216320197 6.750951215722512 0.48593361238702765 -0.8430796389839803 -0.6123439561941776
Ni 7.106577571494497 4.961549538689588 5.930850533630457 -1.5680415131869059 0.36016167349482486 -0.6823363262229152
Ni 4.285179845300152 3.1988560398802868 10.192763313293636 1.42786291195107 -0.13544700008812158 0.8591102100842816
Ni 3.207507398494209 6.460390478959194 4.538151122845223 1.4216716955386934 -1.1221430623448934 0.4477146781151451
Ni 8.217273225672727 3.1627053895010397 6.751451791659425 0.33798693716999856 0.013453554401744571 0.8335647575150096
Ni 8.77096017696377 0.9850705248721069 11.221619890821147 1.2164179590700792 -0.12502991851985565 -0.9666525133423352
Ni 5.254576143977623 6.777585371626444 11.661219941887948 1.2195791304068804 0.15859695584202363 -1.4125774465469092
Ni 0.6096376469087188 7.233618377664718 10.552382247933968 0.9770965914937946 0.9499495987653576 -0.08749489768887513
Ni 1.9948645045211133 8.062612841467685 3.946321395496243 0.07420332278629155 1.0263905526329162 -2.574908136854282
Ni 1.1483822676910722 1.1917685998201446 2.3739540850772527 2.204961873168867 0.8585836481568504 0.5117626576349895
Ni 4.9900943957205515 5.859384759805479 7.0240741445245485 -1.050845600351487 0.5636588322836487 0.26279373966661196
Ni 7.719889501296893 2.09649714945729 12.955032935797552 -0.15702806869300698 -0.18205570108559613 -0.7691876767905205
Ni 5.127211490158753 3.144403370957362 2.8491024298968117 0.07964017753114672 -0.43790746221673615 -0.44729096031416515
Ni 2.349033545874175 3.3327624162018767 1.3576924052452175 -1.047784187817344 -2.3057748281228867 0.06135834850282336
Ni 6.896918603758807 8.5288516748334 12.002785758034566 -0.08096043900446702 1.5221990009314945 0.3785764285565867
Ni 5.5438276109614 6.5036472720288065 4.028712863707658 0.24534880471728715 0.4135791698840168 -0.5865023125407254
Ni 4.197195065557062 9.398798987005586 12.457010768914381 2.255570953574986 -1.1263524724405505 -1.0460340378954567
Ni 8.169760149220865 7.01050585332513 0.41052038277606795 -4.106402961265406 -1.246933096939801 -0.564119573970151
Ni 8.368232493893204 8.452053518153658 6.184635131413136 -1.4254015948947707 0.15654238730584008 -0.2084879271351958
Ni 7.419321872190305 0.5204370505646988 9.379069262970862 -0.15943873501702863 0.14394732424964887 -0.49917890743270804
Ni 2.5737560556670482 0.9458572010156323 7.748212291368783 0.6022796299796401 -0.19391774263050474 -0.09440473743483097
Ni 6.018708550151075 1.8134913156974668 11.025011058047035 0.578931442172003 -0.9185484587462568 0.21930995745136425
Ni 1.119643102070919 1.2924297018103725 13.488048229035797 0.03110006383891418 -0.6716081411721336 0.5628165388880113
Ni 8.37885469676891 6.2420246358698135 7.451526207651009 -0.16351290508640226 -0.46731882549931775 -0.46574222504081725
P 0.7105865106667468 1.9446681189804398 4.593227429811547 0.2907388028163122 0.23090229027465395 0.3920155847806281
Ni 0.7287913749158297 3.8594404735955496 3.3042083063809513 -1.322995070201386 -1.2075281127796171 -1.481105316214978
P 4.467459807540017 5.099194042155589 2.476686886739841 -0.45976698129398885 1.2847630233033809 -0.35824414475713784
Ni 6.509115670896003 4.73090524332141 10.899188844314734 -0.19811943941667814 0.16140048672908977 1.7382344013966449
P 5.402990894958711 9.04682285687338 9.977290817625189 0.7685965801737409 -0.478858193597485 0.5908775587902856
P 4.660297203125856 5.236283378223907 9.631675055312458 0.11202425028880708 0.8794412083321499 -0.19835675223846483
P 0.6305184180146428 6.4057990181868485 3.864335199485138 0.600797903227791 -0.3030736702325813 1.1029742027259262
Ni 1.2826680084010804 8.626875731684624 5.973021974437595 1.2376969230535135 2.9837551913699514 1.1832247601475623
