# total energy = -340870.9899155399 ev
CRYSTAL
PRIMVEC
9.21669194390162 0.00000000000000 0.00000000000000
0.00000000000000 9.21669194390162 0.00000000000000
0.00000000000000 0.00000000000000 13.48956029739843
PRIMCOORD
 96 1
Ni 4.867547102074413 2.491622119242284 7.114812592673298 -1.0691580255074298 -0.8222819855123387 0.9812790050062585
Ni 5.414272063017133 0.8849978391354052 9.050915183334642 0.07864876015215487 0.16110506697585802 -0.5566739163253832
Ni 4.401440547264062 1.1323167126320044 11.13754755500384 0.13060921237984605 1.0433230667221967 0.3241952827025449
Ni 4.717683687908148 7.695412583900562 2.9251845341128395 1.6312585121650232 0.5420057727902472 -0.4617464736178628
Ni 9.218627643495642 7.175406813466329 1.363349691120498 0.04303023961759686 0.9505026430553501 0.7251855601779575
Ni 6.386771333973675 5.806193462807542 9.887132757659693 0.7673236269985882 -0.13659602609090024 -0.8471427533097604
Ni 8.135039582198019 0.25859273131998 0.3815876445651192 -0.11488434544542149 -0.40460113475512255 -0.7760957167642635
Ni 2.874336043586684 5.893982455423388 6.312736411035584 0.051461915324717826 2.2962141810176453 -1.938946284130848
Ni 8.965150176312333 7.662969827574286 4.4622384569533455 -0.7886766387530676 0.35293301695686957 -0.1065079484562682
Ni 4.534630965352418 0.7784685463950649 4.065632212549117 -0.6779088865791809 0.6413226028147149 -0.349272794496463
Ni 8.774567416279737 0.05786884492778124 10.17625486001807 -0.5755609830378733 1.141115489682338 0.42644574143403974
Ni 5.773483422409259 5.110572840373063 6.439821692251632 -0.39849733585022984 1.0927332417242084 0.22451592713233592
Ni 1.654322505260215 4.31476677439693 9.607372971175247 0.6735128143940142 -1.4597571895565056 -0.6776044679648846
Ni 9.120386921995136 2.359003136066492 0.9316978965301804 0.6203974226262735 0.20217226932981314 -0.4333316699205957
Ni 0.020740322318471362 6.911551350935467 10.084970897743437 -0.39034231084326326 -1.1944383694751943 0.24612167832756968
Ni 3.2826723720751327 0.32078420486055204 7.993913592178718 1.8985941055660465 0.3600467451835154 -0.22174427792446974
Ni 3.3991160605484776 7.87793073831228 4.917107099039654 0.6530059526899141 0.7824679388391943 -0.5285841000677026
Ni 4.9919908793236685 7.479354886798129 6.656936543942311 -0.1268155496653687 0.5194389432333247 2.2687923373612664
Ni 6.827458251867017 8.194938864403833 8.745524697683223 2.0304914406296968 -0.27067982728290807 -0.4297364963701696
Ni 1.7182218318539857 7.242154097930787 3.379984972677326 -0.31500178912873494 -0.827103318160382 1.3006922929391278
Ni 1.4261817247646713 8.415088772815604 8.748222423472058 -1.1844691740776248 0.46080185031640636 1.8600707526798677
Ni 7.229499579625111 7.7681599349469534 11.377055281913359 -1.1018174634136637 0.5918751468168646 -0.11553046366985263
Ni 6.343111863315275 8.277179408352515 4.721171284213223 0.6039752725145081 1.3968924317114846 -0.09329787752389737
Ni 1.0404815921675112 6.014573655358899 8.081150504935488 0.6722609442647841 2.116608998355071 -0.8591827151934299
P 1.9194683046904173 5.317146561265344 11.32730542109007 -1.0438388300163508 0.6284668298979693 0.43800362147496824
P 7.4282944123527965 6.0939201579762035 2.171508889569389 -0.19608338282325583 -0.07960983851384354 0.28750846880447256
P 5.314704137848735 3.968458783998209 0.07880179611193987 -3.545539689449023 -0.1718291382615815 -0.11553946253091714
P 8.805259001099765 9.173272301483822 7.940778440333087 -0.8296301983472938 -0.42791564111134694 -0.6538621300426223
P 7.920668539756866 2.4956221636302396 5.665979925309917 0.8995035262996638 0.40058172918308427 -1.3423025122807462
P 0.61376994456324 6.0255507356954325 5.689370968287319 2.6674871339342836 2.649704870250198 -1.6084875370170946
P 1.0876249724541311 4.229420205197693 1.393337120661172 -0.2633141309464562 -0.6401987736229168 0.0161023048785013
P 9.296232191298834 7.7792383988970055 12.120936347721601 0.21017019993362515 0.23159417413535596 0.6537924531469514
Ni 3.786401464193399 4.65113917067073 7.867704818385006 0.007988674632431402 -1.3677129819340508 0.5969008821662302
Ni 4.165954063134415 8.33360399762225 12.015043928408007 0.08550486384203984 -1.6325952286985752 1.0659055800084032
Ni 7.758952459500945 7.7204819865163214 6.524454889479378 0.4168457564504305 -0.39635612113751095 0.8844538310553929
Ni 6.265544182280632 3.407816617926888 11.180674300856655 -1.5250575534262123 0.5432720410971804 -1.131525789111374
Ni 7.020465001931946 6.64305067556698 0.02747588093302892 0.34322067476511214 -0.6089842956933255 -0.07578686522332755
Ni 0.33744245423103825 2.0187228623261184 7.766937801569435 -0.4454060845866264 -0.1818721243198803 -0.3431453414424865
Ni 2.2959793952258454 6.120648565176828 1.6692526248547985 0.531272188422827 -1.6071099399432773 -1.6524500586409732
Ni 2.07376494777513 2.12946141836595 2.160649782892224 -0.10928036899508276 -1.0193277322488639 0.3465741646183773
Ni 2.8986404607549767 8.852125880622241 2.2374727552021043 -0.6020245765460406 1.5965308788758503 -0.9265183643256107
Ni 5.959697470368374 3.3503505424455438 2.1222041949763732 -1.0088859680902496 -0.7527886666072068 0.611346882388231
Ni 7.088898941057685 3.506785458106306 7.435648411009823 -2.3060324526596476 -1.3392303011133257 -0.46586075289655254
Ni 4.1814196725422255 1.6176953707032202 0.8939960956698778 0.2937871027243327 -0.6703462437405745 2.3610851706594174
Ni 3.9271495698350356 3.5428227243664594 11.833595831953529 -0.13958004841988866 -0.04006447212105358 0.10573404640472114
Ni 8.058771454754854 4.999124599038594 11.290357545646668 1.2561934391958045 -0.346821504742493 0.42414331855310816
Ni 3.5446291960255363 3.9089373861700585 1.4592604328484797 -0.05760736610082337 0.09385632113052868 -0.07136945288192224
Ni 4.8947455605740835 7.77245491348333 9.686934222719369 -2.3146536186697557 -0.13338574668371866 0.4469574882341464
Ni 1.7821027250634798 8.220837769312025 6.5256152710195705 -1.610062337703382 -1.1784895594554219 -1.1135010703991792
Ni 3.2943591377063024 3.591449992087321 5.408059090846808 0.17366670569095252 0.12279537276238207 0.4898964536895175
Ni 6.713724270882288 4.893436790290466 4.176853723256987 0.9652715738344086 1.5709586868337009 -1.9033879274102639
Ni 5.182112804749357 5.733095877459901 1.5663270587404738 0.9889882007250581 -0.5447344845753199 -0.5004716581022025
Ni 7.36979606735198 8.34707880152822 2.533919362802666 -1.2403019647765283 -1.399740442683241 -0.21228698916631183
Ni 5.736395453245357 8.699045840899762 0.21406412659295218 -0.2610250778019634 -0.8345160656846855 -0.0697069775778348
Ni 2.441142296401655 1.217783098829038 5.9882858060424775 0.5758515176950986 -0.03764069317090937 -1.278013363284373
Ni 1.9005740858072167 4.210525986314492 3.3746697063212574 0.3266643130683277 -0.23599564563716127 0.5936528075425775
P -0.08303317947256299 2.9503092368814268 10.489685066221595 1.200647840720016 0.7492009492559484 -1.7283423390939137
P 0.9241300706155481 0.2405897665665382 1.3806696989865033 0.0888598963572018 0.08395525996673282 -1.15820329840256
P 2.4199162544075032 2.670296913032394 7.539099328576023 2.1186939059085574 -0.3571858786959526 1.4556207987906287
P 6.520090785751965 0.7996494265977399 10.951445950688809 1.5965383350750182 -0.21182676170044165 0.021890886535820362
P 3.08262406921666 7.1781441710313585 8.202934344833675 1.541658652318003 -1.0099910282289704 0.0677645091394833
P 4.74617248330716 0.4187539556121954 6.210283661227947 0.4084716734541224 0.1943103500832331 0.04896717392732212
P 2.6266097922975793 0.6657898766601533 10.064628736525334 -0.8107068790802295 -0.421333617018455 0.47198872017116134
P 5.340603042756927 6.43408983141092 11.758795923567972 0.7389448187455789 0.9181198558492705 -0.57817785183543
Ni 8.90761958398602 0.615490700985432 3.1364172928809526 1.7737901870140678 0.3530448599443855 -0.26323776918256603
Ni 0.9031261509019257 1.1980409442691278 12.288638669521248 0.4968338042392991 -1.40229406234303 -0.18225367602901515
Ni 6.8323246653159595 1.4565968088205554 3.706661408821795 -0.6798960922125387 -0.8841895216504129 0.47223091808895445
Ni 7.3646808032153075 2.244670070092783 9.22984067115091 1.0740104685037246 -0.874980601457635 1.8749962636414481
Ni 7.234154009154875 4.048496538525875 13.484596641367153 2.9473213740229496 1.6886727884184338 1.3604848396167277
Ni 0.5216592450038164 5.593794792483953 13.21889231039338 -0.13193204495632763 0.3389678130260291 -0.9784361362408247
Ni 1.4020063412863129 4.186645536984554 6.662021392994927 -1.3139779543044405 -1.045249594320948 -0.666288271621117
Ni 2.217075293831172 7.765431794074061 10.904151416651123 -0.5091437319549038 -0.47249805570741205 -0.023931828225249106
Ni 0.7201960103516329 2.2766243417357375 4.473826603978638 0.499662531937346 1.7147010941613952 -0.03840636769234031
Ni 1.5489664974290607 3.4765915746617377 12.754500981989938 0.418400245421744 0.03613505515966035 -0.1986567999773869
Ni 3.692428071152855 2.7576527211177484 9.463669072364905 -0.5634788550623586 -0.42634572552106575 -0.518907496209887
Ni 5.878894730393243 3.132043972461402 5.162927338394591 -0.8355697037601802 -1.5696384253603808 -0.743125689596146
Ni 3.8441532571310257 5.615767386541294 3.6022252268660284 -0.6530010675939075 -1.3068205173240528 0.3885631074556534
Ni 8.410397476517288 4.80301182372311 6.295199810904332 -1.937000730368703 -0.12135864031585551 -2.202985980389419
Ni 9.036303039618824 0.5687694451987391 5.659747598086102 -0.37796399178356843 -0.8743049155468492 1.1643610904738397
Ni 3.4425174638270097 5.699943435838987 12.652533030188765 0.9258732745424442 1.0463572255628304 1.5231251122901897
Ni 8.900522731039649 4.242480257957446 8.461920628907954 -0.526621577024693 -0.33045797578280506 2.811460426325861
Ni 8.102762726330228 2.538488998764759 12.169445641783094 1.5040598681286226 -1.9423265134569903 0.23096965317747964
Ni 6.969404527486613 1.026886971263745 7.029477083504625 -0.5204144197727166 -0.9310319359252481 -0.13760646963328557
Ni 8.141601867000379 3.091518177129972 2.8431135772994987 1.34792011557784 1.4418078041669362 0.856149841904377
Ni 6.0084261217027555 1.8503891971150082 13.017358276762238 0.6548610036207819 -0.5561424693019454 0.025557536754130177
Ni 9.180995889495588 5.438336846189834 3.536436478383938 -1.0336053252138004 -0.1416896385637237 -0.24839916150783672
Ni 4.0459988149564365 5.430327540721785 10.030648635950415 -1.1426177852594774 0.1166463224418507 1.27910273969381
Ni 2.0687879340205306 7.757938623365749 13.372498623236947 -1.109494006122315 1.147594412538462 0.052244044906380994
P 5.576154043731541 3.845941295405826 9.037303972385027 -0.25081111338343903 0.03281730364033703 0.18207549857993804
P 7.688583015026195 6.037283584787293 7.982460930527855 -0.37087288926474193 0.5174360538706831 0.784826668879358
P 3.9968369790915625 7.3796487112476585 0.8230469212596389 0.067599958537161 0.7778080714696799 -0.3414550982242571
P 3.0550385096471873 1.7346828440127153 12.699760282373845 -1.825357003347766 0.010651309066259074 -0.4538099923796055
P 5.309966758089727 6.479749324263298 4.79588916403875 0.120865759839837 -0.5958778402183543 0.3206600158557768
P 6.293747260223361 0.8322497883595783 1.6853320659590094 0.21397543261232824 1.4016070635783344 0.35314564718830793
P 4.1301195641013 2.985885668534673 3.6087543315766912 -0.0554250137375239 0.09242884465538276 -1.7546267267117397
P 1.611271336282932 -0.05696007908295999 4.280709253608051 -0.4466283870295018 1.0866852357579155 0.6509236162395886
