# total energy = -340870.35531790444 ev
CRYSTAL
PRIMVEC
9.28581141686561 0.00000000000000 0.00000000000000
0.00000000000000 9.28581141686561 0.00000000000000
0.00000000000000 0.00000000000000 13.59072363278193
PRIMCOORD
 96 1
Ni 6.0006490228810385 3.1926475890404595 5.767821237051807 0.7360811240445387 -0.0191626889713799 1.2566019874881327
Ni 5.103323948367235 4.816132381169738 0.8096976604497634 -1.1237206912446582 2.1996921401294953 0.2717872014144739
Ni 2.416428063523997 2.5448601175174197 9.11611387823717 -3.0082621753723804 -1.2076540968345202 0.8351698972186004
Ni 1.2424879607107169 4.766685436804545 6.337870683383847 0.29608566895052235 0.6682515659950748 0.39139543469812593
Ni 8.900208554644772 0.7760579524024802 13.556175550802568 0.23579741358342618 -1.4128859789262636 0.67710335995875
Ni 1.401981052995514 0.23283242873480448 5.2714881311024016 -0.21545947335702248 0.6555698567623485 0.5101138091776569
Ni 4.9537109591443285 0.7774043950189973 5.3915620264811555 0.48531269097357704 -0.3449453707657027 1.4028548199425064
Ni 0.05494043024058164 8.20367057459267 3.507928734961845 -0.3595584926931872 0.5487469481688226 0.10657813957257127
Ni 3.5130266452823125 2.9125225241268895 1.1787817247460524 0.7077503954206457 -0.30810917577395974 -0.1261987420169762
Ni 5.356622304873097 5.619670763084772 5.1286899986813 -0.28300441028653195 0.4203383429847213 -0.21775598270068303
Ni 7.169008353194134 3.431701511244687 10.709652857993996 2.6154053256373793 -0.708093123472045 1.8650532934961235
Ni 9.13047809950262 5.562730169122827 8.3264652126379 -1.2439357048743738 0.08517473419613072 0.39564829643720895
Ni 0.41176722382099185 5.4492204136448725 0.052870622935604863 0.756864122228161 -0.7295057848198663 -0.5423199615965564
Ni 5.17927259774994 2.9661016544531167 13.131805624090978 -0.6017502398387313 -0.6331452092102451 -0.7648810789953666
Ni 7.176650575769262 5.55797583381485 6.756696052258731 0.5568562075395184 -0.8782171061170617 0.5919929033416514
Ni 3.6422758506567936 8.693738543760254 1.3625785705495381 -0.4190929006133944 -2.5727453248750076 1.034128287596806
Ni 2.131734379525418 4.642822001896133 11.566860442603398 0.03467621122594673 0.26369259733179745 0.7039919568194779
Ni 7.6030364520811675 1.154913475770223 6.595374583758816 0.468025107537723 -0.3182472926492261 -0.4919394522614753
Ni 9.103298530271273 8.805586139042648 10.976058136935816 0.03704753967160071 -0.5469993693500966 -0.5437631218009861
Ni 3.9034021459607513 3.3282854324850346 10.620551785700707 0.3037856086979413 -0.19755431094182752 0.657348803039642
Ni 1.6720402986242255 3.7870880755159813 2.2144728140198287 -1.5537765186274595 0.203651682088817 -0.3910131116580427
Ni 3.9268581049215916 3.8164590961783484 3.2464570074831665 -0.3671337339372838 1.5453821239161771 0.7853992535533764
Ni 1.4548080326187214 7.0320704961887825 5.422902567688097 0.5605868782265443 1.1882371257604891 -0.7900465225174007
Ni 4.414623192924376 0.689722194669182 9.419295612232201 -0.2313830865658144 0.24133556979283596 0.01689523309344187
P 8.664283950797552 1.235356457748751 4.265597995547163 -0.2707155656168499 0.5836735848426786 1.923652591196571
P 6.190776006144382 8.047622518243925 5.142797931559054 0.07870815263518058 -0.31990873951204907 -0.6673503943370442
P 5.622094359794503 5.329656309298165 2.939660307208068 0.1955730188457406 -1.4545892722023208 -1.1801443214500256
P 9.019614800201955 5.49430302677032 4.952364516527811 -0.5107051629047527 -0.1980703313462976 -1.0988375548497333
P 0.7808754312262665 7.2823509640714175 12.420684277630324 -1.3326313077395693 -0.5310294762844016 -1.3406955728049426
P 1.827995496861485 4.786965648352636 8.387799852435267 1.7988723267936761 -0.26505656755885965 1.188434586483276
P 3.5209938712476334 7.788715531804433 8.556950188314392 -0.40161274155076 0.21937114970660285 -0.7683212150251671
P 5.434325972562849 4.457189351228609 11.553568732525587 0.014414889873749368 -0.14156211184692394 -0.3774019486325113
Ni 2.216012401508232 5.418103660486606 4.001312667290521 0.42208103670744085 -0.06394667805528986 -0.07741103109031185
Ni 8.491196430991508 8.014695031911724 8.63598079841725 -0.7879551872060107 0.43128275781136693 0.3875035558428875
Ni 3.741754745489527 7.958803734609547 10.651308249386414 0.05081142622491249 0.13498625840161915 1.218085319470173
Ni 1.2502137555861799 3.269775536439011 4.486841731968773 0.1316476809466894 -1.522757701648442 -0.41403425514356434
Ni 1.2891770191648366 6.7720399266003355 10.17243896846379 0.259666764001856 -0.16068520582962004 0.683693611581758
Ni 5.488805826570471 1.5943180593121768 11.233588966163115 0.5261060708408553 -0.4259299781398858 0.8571818827133173
Ni 3.3813538431981005 4.07698181375766 5.716503201740214 0.9508152891997625 -0.6786123404041087 -0.07470237390989715
Ni 1.6035667272159762 2.2911810427544728 6.8199742123294556 0.2063963347134897 -0.2951176486102982 -0.20653594561514751
Ni 0.8198600521705646 8.02165010446187 0.9304689202457619 -0.2738528256942509 -0.36614540188208555 0.4212780811901713
Ni 0.6008811250880476 1.7603483626454424 11.618192406631714 -1.3927077042061757 0.30221723576955695 -2.186092804178506
Ni 5.880490626620833 3.654765266651382 9.057999557746069 0.20437519051840283 0.6393428533805248 -0.829284899192733
Ni 5.850469599178079 7.1736048297125885 0.972925505978444 -1.8364898800361338 1.3626157699168018 0.5206244789009937
Ni 5.910994516243304 9.156264797061706 3.089932589022511 0.3004200346598181 -0.24573935528748647 -0.4091350180697341
Ni 7.888760861117219 7.441769769867029 12.865372487715714 0.05834141605337049 0.9971671369914247 0.35859458611802114
Ni 2.9330163093313923 5.964490074269196 1.7638036129737595 0.04725173389811217 0.39274140720305906 -0.25831616351123254
Ni 7.276203757091182 5.026753149637586 12.645542980332003 0.25044550251390413 -0.4585310520043587 0.043820596729376146
Ni 0.9056850902907012 0.9693922548364806 2.7685664510555834 0.6795281673501588 1.1056910874364572 0.8448177047210096
Ni 7.736389985983239 6.029555752985985 1.1909294228903797 -0.0181527596496268 -1.7677385815033493 -0.06208571358715114
Ni 6.337398964177508 0.3285914276214918 0.1868453776035033 0.015017042234122525 -1.0261876925934907 -0.521353129536902
Ni 1.307219350226164 7.319271349197428 7.786492508615508 0.38974632913047713 0.9469344660881176 -0.5663096396429343
Ni 4.45712435055057 7.1221335785170465 3.3104966040680583 0.10939606863734062 0.5288689782979731 -0.3030942390578716
Ni 1.76544627296591 0.0016027310042126207 9.22297777867622 0.22797354666363318 -0.19941964628534042 0.7459909269590831
Ni 6.93992739216328 1.1813687517319946 9.32950181842724 0.46267798429319673 -0.07550892897159255 0.4897606994426017
Ni 4.020384794808206 7.896876660060914 5.5141505195188945 -1.559821696380275 0.7233747322214639 -1.0126274374105528
P 4.4053745250205765 8.122187581765521 12.876122671282209 -0.5902990605789963 2.1891405898658944 0.9798852099825255
P 6.654063695960003 6.786098644679003 9.21099072506476 -1.2965579590557799 0.8164052150165875 -2.1244338937161285
P 2.4987374935433517 4.575360583903057 0.21910985701970942 0.9947752397204803 0.49648284865778364 -0.7774997962006417
P 3.2013205366530584 2.073930205126672 4.8113882602540246 -0.427274150872606 -0.2893704617138758 0.6712435587438633
P 2.7357949663506753 1.2370000463220165 10.939553756149252 1.0021494206973645 1.8616486386899487 -0.8651119361936713
P 5.317677612916738 4.645394171584238 7.205584234726539 -1.1469531794100376 1.403771418219505 -0.8289192883231982
P 7.461734263836073 0.6598943120983143 11.675817364875295 0.06819851135310835 1.3694402490378028 0.8211689549538179
P 8.157845096575349 3.581175213300368 8.29963757564908 -0.4292896386407381 -0.4698274508537844 0.21342830185960665
Ni 5.469816342772007 2.308926227859052 3.83693338117944 1.3134845596077895 -0.5079581962872348 -2.752959344766175
Ni 8.600406855907757 3.4172806465312324 5.922578565650925 -0.9868541851011908 -0.2514325490175218 0.7669904120288855
Ni 3.6281892751446816 0.9183592939271427 13.311719143672207 1.3627258131321047 0.8071423016574228 -1.179165502476524
Ni 7.720641250275564 1.5426703777048152 2.3623391421657227 0.11457966972080912 -0.5487945135773064 -0.37499231074975414
Ni 5.4246037282904815 7.329922174584635 7.1798978239278535 1.378116179545246 -0.6000543401935472 1.624830497151492
Ni 4.073304632542897 3.1287797799618127 7.920224903612433 -0.1837793686449222 -1.2424807175954022 -1.5670734928466818
Ni 0.2791723406897446 6.108903009249002 2.5480562937146964 1.0064688740083245 -1.459438372764506 1.051447495601544
Ni 3.439000158807324 1.188063821569986 2.8116080428906143 -0.13054724879365903 0.35125177259970475 0.8248062945960892
Ni 8.017945065813661 6.547917588722724 10.620524856848377 1.5442984039336953 -1.0850916660185506 1.1558497105687189
Ni 9.215081124875628 1.6446007266807243 8.931863884849642 0.039391614423745065 1.5974785875011004 0.6855741164339224
Ni 2.8352274321276667 6.568987094218428 12.740922189542722 0.09573451198984803 0.1527068156098338 0.5444310944022882
Ni 3.219483583259315 6.306635071842882 6.928740775472812 0.6271661088086746 -1.905139105773416 0.686102992354199
Ni 6.267383948118625 8.40600839951615 10.813037364995745 -0.345785864389127 -0.7339900458434649 -0.4940796385329297
Ni 7.373732631582753 2.4826080395785937 13.18616847687813 1.8859838730012035 0.016938427626551473 -1.6941829196033855
Ni 7.746214374178239 3.987838026733088 3.6351647764793547 0.36646858954945916 0.5819789707490751 0.555627734449056
Ni 1.989020747985767 2.6625299163898553 13.05569725875652 -0.0969411307034395 -0.1435763140634753 0.2042304374104225
Ni 3.720768812294159 5.792702568023927 9.69248231905569 -0.32106496460367934 -1.021593645464905 -0.34143761472276035
Ni 6.8063231413602026 3.5371140394012435 1.5264016365728308 -1.6682564295456106 0.7699222409636999 0.5656594076534451
Ni 2.033360496219343 8.978822231827065 12.099033065261143 -0.5048271068574208 -0.7143799849220213 1.1964394590656233
Ni 8.562335030199346 7.310449828606456 6.114248850727133 -0.963736882357437 1.3259266420258842 -0.07043357133121418
Ni 7.241270535550927 6.692729813581912 3.3722658198271684 -0.2840685898849882 1.0381181254824896 1.5079409483505837
Ni 3.3676015568873305 0.3734586099282968 7.348571797695067 0.05398776707036508 0.04565533594526976 -1.2507344729637622
Ni 0.5483141481769951 3.9322903044434017 10.133053200477882 -0.7187536885096847 -0.18920182521207413 -3.199002548716168
Ni 5.404054228219088 6.494022740817451 12.259226307706527 0.7734109708432486 -1.0547310514488222 -0.9178804861449548
P 9.056228753560069 3.903281430415822 11.97394390328114 -0.44437790043242825 -0.4975902227893495 2.2448697651073983
P 7.79231842653001 8.28074280712433 1.556925954979828 0.11088756558120258 0.1782538108410027 0.4158440546587935
P 5.686593604031241 1.0945371316833723 7.667070477179371 -1.7150517926325946 0.7816238456713442 -1.5503698069387557
P 2.2857674148549596 7.589414167126475 3.161677551698339 -0.7327698002831187 0.0778450333039369 0.5038979101749322
P 8.877142599752164 3.701974330529812 1.5541671404876405 0.17745599753005564 0.477472626103868 0.5015414941276137
P 5.333788495259199 1.6628937746430585 1.486172716934648 0.10589808278641116 0.39880046891294546 1.3946244616129144
P 1.6456964523962347 0.7956779427779197 0.8746296234860157 1.5519145257180562 0.6834226173085585 -1.8176118121847082
P 0.32279336714043527 0.24536363087956073 7.484751003929594 1.0312738488671465 -1.0213139094409573 -2.2743942569290763
