# total energy = -340889.7404727999 ev
CRYSTAL
PRIMVEC
9.05960029193166 0.00000000000000 0.00000000000000

0.00000000000000 9.05960029193166 0.00000000000000

0.00000000000000 0.00000000000000 13.25964078567266

PRIMCOORD
 96 1
Ni 6.5726401900315095 1.8221030030502148 11.29232128515858 0.7674046167481687 0.7820290515295628 0.9594837635080378
Ni 4.738216130895754 0.524518229081544 6.06054448455621 -1.1388745161669613 -1.270363045827967 0.45997884019447877
Ni 2.8767219867720604 1.532866211442146 4.832793825752373 -1.1047078975875813 -0.9212188064895682 -0.5430442413570905
Ni 3.3527858508772024 4.202050879973348 4.776241990239754 0.4785447761221242 0.5940824388808285 0.1364857257652811
Ni 5.132643938834126 4.553789852415347 2.700418545708048 0.715573233899174 -0.04771376113619525 -0.24162353334690004
Ni 7.1805121754517485 6.006288351699529 2.618354876418309 -0.30474540150804935 0.09724889175184542 0.24353129189257414
Ni 5.100618252611783 4.421275082295344 11.664214243900503 0.24098281443910755 0.08630499114583201 -0.45398714138741814
Ni 5.739102626644554 7.856340220943783 12.165454736580436 -0.6672892020818056 0.5865946151442155 1.190644449650401
Ni 2.1545993849586194 6.449103483573837 0.4984963398208832 -1.3185989980162194 -0.42340926860056116 -0.015335087695173588
Ni 2.8421777317322316 1.4672475281865789 0.33088105521718975 -0.6538647011457835 0.7758820580915605 0.19261830709279085
Ni 0.21496981413245916 9.289713904495189 4.7104076885026895 0.3049714014759264 0.030588928530450546 0.15179433109789342
Ni 8.583835165594522 2.494633354119354 1.2851586265224004 1.166088614687908 0.6056171789933054 1.5586292187340705
Ni 6.752726920081788 0.5862195412699143 4.855998179393472 0.7044426712036513 0.6836169927075516 -1.4317429637317665
Ni 0.8999444318479949 7.473671773887052 2.6329797887998447 0.46194599122317864 -1.0161642469192178 -0.04484800955262599
Ni 7.682323422935646 3.929737421282773 4.007169823020358 -0.29759336384430035 0.6648633662491324 -0.8203935102403742
Ni 7.717329717578683 4.067977858642527 12.67923915150746 0.48851499996095865 -0.6272887504294681 -1.6653266574933256
Ni 7.890186886778769 8.75435495797838 6.888861000426918 -0.20367636467916533 0.16022600680501436 0.2645346336171186
Ni 7.083166772775914 0.787421481186788 0.7052527205363194 -2.3459650271885275 -1.1039190831376988 -0.12252617826139542
Ni 1.696890270580907 6.487751737442158 9.414317831840268 0.15043036087083125 0.14323590000492106 -0.47258161656015385
Ni 0.015393166466869295 4.944947144731014 1.5937159212246041 0.7835305757757538 -1.0803122423520364 -0.8468833290007867
Ni 6.4550194024149095 1.8641486069421225 6.957280006061927 -0.10356223556438292 1.1554190507892035 -0.3077080836807991
Ni 3.5053042179360836 4.362831602289592 0.5576238196313843 -0.8072837123312935 -0.16346765367076363 0.01030600991169838
Ni 5.918908509092882 5.698343485961577 4.857536499484152 0.19420596329488488 0.7293304355842665 0.010503727744801265
Ni 5.230967778316753 2.894768710097352 9.637358843668762 0.17773187689926165 -1.2187144684137396 -0.9572371335657064
P 0.4180244422621954 5.516435776298657 12.364084656039454 0.4520989232257698 0.7167723964135979 0.6502638711684027
P 4.053256008540318 6.0779950861973635 12.426961904315988 1.5011308674072856 2.2798920468188544 1.6824586891879216
P 2.2863531486733386 8.483635988898873 1.358755193593355 1.2989436856791372 0.2398970375740965 -1.290715898452706
P 6.131093402166006 7.820953423098104 5.9710410716948195 0.18151448387014543 -1.3947234490846239 -0.423067054769794
P 4.928431493816351 1.3084236794839215 12.63725968269601 -0.8809977541859925 -1.2506277721825687 0.3032567327776648
P 3.608311870651229 6.144275120257522 8.39067362073347 1.1416021995107692 0.35098540631219555 -1.086444066281387
P 4.599432117532225 0.8021424253289903 3.6804652434321645 0.9094264418403306 0.28843355172190327 -0.41075069929628616
P 0.14243775006889478 5.5948284956429095 3.648257459248557 0.18341324355475508 0.1635321883601119 0.4010404139870577
Ni 1.472465857822808 1.00413889217138 2.623314101492739 0.009735739230525169 0.44006307510715825 -0.09710413864386502
Ni 1.851093723251487 6.421526060982377 4.794884835249184 -0.9796178152537517 -0.03069022999500521 -0.6005251091823787
Ni 6.165030664001621 5.730405410584171 9.43446004066011 -0.7233631622572381 -0.339351421617693 0.09493849845111392
Ni 8.935392946035263 2.1409193888636437 9.998961908659245 -0.3716043681141277 0.3938698643805475 0.35052286485348016
Ni 2.2784259986183035 5.1638904994510595 7.002230117733999 0.18084008351094016 0.529950641397926 -0.20386019855519727
Ni 0.8262817296965809 -0.10721946078438668 8.766240247300896 -2.1602347054648217 1.3287795380936471 2.7856591489920413
Ni 1.3081428318819714 0.8605578205745477 11.642640618270722 0.443595513740449 1.3296416289836261 -0.5409115112848039
Ni 4.398798214539296 6.552364805090744 1.5154708733613766 -0.2839210085635304 1.057917419596604 0.3253206545562397
Ni 5.413881103586656 7.8912559195861895 8.07497554926169 -0.49702175188038916 -0.025416897411207843 0.35785539395915145
Ni 5.1244087623769525 2.6912900926846723 4.712900890439999 1.0110040428745166 0.3789865195108118 1.3297604139496777
Ni 0.7005335748635562 7.471714900273466 7.081271504442755 0.6900192966894697 -2.5983838513787183 -1.0074734040134392
Ni 5.007295312363875 4.980940935780906 7.001938398611974 -1.116312828816361 -0.47003905264395823 0.8235024881830011
Ni 8.317528221745647 7.22678861257303 9.037107793821434 -0.44413518829400284 0.5019449002136195 0.8634558886474871
Ni 4.731158702446756 0.3855765786769214 10.551345655614249 -0.49351630983029204 0.19929751888517935 -0.5959392895839092
Ni 8.160507233455506 7.112220910177626 5.002544458090892 -0.45099669130052655 0.004739828677830547 -0.20512081043517577
Ni 7.155652632879158 5.995371533623737 7.206932687115176 -0.3748228750514255 1.4593594398974543 -1.9266900924713142
Ni 2.196907717252351 4.900183660820237 2.790318769052193 0.5757808123581633 0.6187642578982246 -0.852200627448642
Ni 2.4832182580401034 5.1604387918270955 11.51184717216267 -1.3178173826551884 -0.4730166472150435 -1.5860253513588365
Ni 0.9102180183193208 2.995801369998786 3.8010086580290543 1.762742156730022 1.5425436260261176 -0.5955600518676194
Ni 3.868567001658088 2.6818046914188187 2.6491167484318776 -1.9687996200468545 -1.033954223912787 -0.8241606905922904
Ni 1.0865631335436223 3.3326282407372556 8.002259575316849 -1.128225263983231 0.3364303913161561 0.8998722224929923
Ni 3.7604225557072795 2.6614568296775505 6.870933863822456 0.1350685337027803 0.21328174897941332 0.7715790598408324
Ni 3.7396307735629297 7.08587559319472 5.813702997402477 2.021376879922938 0.4675119153467303 1.165217267826548
Ni 0.8294489658785699 7.627775570956939 11.609650990601688 0.5852746107812113 -1.2607710312641578 -0.1474669073671331
P 8.909672741456696 5.373330333705126 8.187111655000212 2.036499080276357 0.12001678157598039 -1.659325188494252
P 8.425292164493813 1.5940275714667678 7.874900623592641 1.8474924017942247 1.2288433293176257 -0.5714140507490353
P 1.8093742649618436 3.264210141062253 10.263174272973579 -1.946574490100067 1.869623172254993 1.1020151812467667
P 4.051199479326041 6.071408756951636 3.791833095085352 -1.2334376335565276 0.8486440204456352 -0.37976813487184274
P 6.848686203947999 3.9027216938952125 10.534492987577249 1.541824488471906 0.754138495766882 -0.38979620853180613
P 6.534580810167276 7.760081970275496 10.160584267821331 -2.0459733383153793 0.33267092427372386 -1.0616442336288878
P 2.007145334334898 8.480311115675791 5.709017506755683 1.1233257697990848 0.23532330216048503 -0.6499566243406291
P 6.973002036011079 4.074038731084606 1.40998994982906 0.26715073108372706 1.011258067866852 2.1529304584939246
Ni 5.417269394010179 3.1534202918930787 0.40051495322063324 -0.09092680618855954 -1.5489963236299968 -0.028642089216724866
Ni 1.3959937736918895 1.1520096843979946 6.939764175300321 -0.2822731885474622 1.138738247699413 -1.3636647800066064
Ni 7.020555876741229 0.6788204313928095 9.051653887682422 -1.6418437438800368 -0.6958621286234918 1.2115560029920875
Ni 2.769528798827856 1.7807368691630243 9.320810981711084 0.4755227014663488 -3.318796158537749 -1.6441405103340136
Ni 6.3037331409645825 2.286054181871263 2.726858082531608 0.7113645951344653 -0.6387620411763902 -0.9465889098232407
Ni 4.1250805178389705 7.04995427894533 10.24681172929998 -0.032207180860163886 0.051237715129053694 0.7211011056959388
Ni 8.561775039441367 6.949927234650879 0.3989748212099406 -0.05672342083397327 1.448845170629692 0.6993907106020407
Ni 7.225284718962588 3.8816400045488493 8.211616061250337 0.5773646119055152 -1.1908380537184458 0.37681290889826075
Ni 3.19475924698008 8.216993839847673 12.493405917137284 0.43017744056233015 0.6090876540404091 -0.43575442042947526
Ni -0.08062772267976967 4.921700210969618 10.239545024089528 0.23356878136322354 -2.064475253774309 0.6690768901098477
Ni 8.826532791679485 2.554906873337812 5.8318548120884985 -1.7175948707694226 -0.3029769967537169 0.537706374083945
Ni 3.4788683049525484 2.6229988274105502 11.408833177727482 0.5500152733582849 0.0531272188422827 1.4147518284904086
Ni 1.1306290282495561 3.476675881737327 12.585188725374499 -0.05052114867800331 -1.4566222434719494 0.20674446208152783
Ni 2.8488002993782096 8.782802102175879 7.896580246543155 3.078277942439886 -1.4954083631012116 -0.2043348241987707
Ni 5.665221588131623 7.796148238125891 3.6530708247619748 -1.0825876686497742 0.3163984123659454 -0.4157262981340066
Ni 3.1267941273082225 8.175283441158092 3.3699909373566515 0.43482650929856725 -0.02688011222029564 0.7951216230474629
Ni 3.4423399974989457 4.043009600869182 9.008082647139922 -0.781337681889493 1.8609996922520402 -0.25546223900220516
Ni 7.630665583377003 6.440478744313959 11.443718979689681 -0.13653354828408099 -0.7288393548804608 0.2769708024979423
Ni 0.36830445115700716 0.2418333402389631 0.5870412469956191 0.4157103572944066 -1.0704137522914017 0.02350965308616596
Ni 4.563936604485793 0.27585666827517497 1.4203197058207757 0.8255061488765912 -0.744601502810724 0.25488116968775454
Ni 6.3732927502475105 5.936529431215218 0.23665849668303598 -1.0391239410391846 -0.5516584653886628 -0.13473609006402604
Ni 7.945568221963261 8.930464523601048 11.182557888676532 1.3387366493063588 0.5061244855126057 0.8537921403054779
Ni 0.121752871205287 4.985642868213549 5.818648633076813 -0.3459123626646623 -0.2890516449218764 0.5890405055815469
Ni 7.945278314761249 8.281597847896196 2.8525727168444006 -1.3171704930998092 1.9873079632636872 -0.7656812062991588
P 8.287966746740413 1.8321953975202827 3.5555324526048 -0.951326424508226 -2.097693906618123 0.04027915923502095
P 1.8135598001909023 3.10737034477337 1.5232811545756006 0.008500581271843425 -0.04939551971399235 0.3274520990769457
P 4.768321181904763 1.1187518925670974 8.305958206505322 -0.03525136700312639 0.025134847394414777 -0.4803247508406825
P 8.417392193238967 1.6756455084334123 12.551442621100213 0.9793409074432811 0.3149231133719996 -1.8676084558178094
P 6.351413816095612 7.837994530816415 1.340907781469447 0.5120657906977052 -0.3258022221783486 0.2583542158380196
P 1.8540833912722432 3.2182689091432994 5.898352276550167 -0.6813526221534072 -0.06578527392592542 0.4737951772522808
P 6.662801329857466 3.9905998145053188 5.868332385781749 0.3424429160588231 -1.2711204928192819 1.8186975890497197
P 2.4181069123880583 8.571187963906716 10.198227812042678 0.15856995925883013 0.03344773813548433 0.7846289510462552
