# total energy = -381176.1751931731 ev
CRYSTAL
PRIMVEC
9.15576451104719 0.00000000000000 0.00000000000000
0.00000000000000 9.15576451104719 0.00000000000000
0.00000000000000 0.00000000000000 13.40038684078485
PRIMCOORD
 96 1
Ni 8.900547333107731 8.117042806394917 6.295300248521621 1.253111457836371 -0.9544567426070918 -1.9296687154836636
Ni 0.34455429858626896 9.177005634996057 12.036750005311879 0.15797217777383116 -0.5883805034000448 0.5165603361339491
Ni 4.723870792110344 2.78598003996333 0.6790940222228625 0.20977887803247747 1.2647091899762994 2.98064389943448
Ni 4.904193569248631 0.48680557677068786 10.72041662161304 0.10277624932797784 0.7495177091654188 -0.6874101412013968
Ni 0.13498160136046358 6.93897061881516 3.546921101229097 -0.3495725851250689 0.019488447741914824 -0.28073078376100685
Ni 7.867191155451699 5.9466963554023105 7.318406548086448 0.5499502244483045 -0.6750225661703213 2.1845064335279925
Ni 5.920932034769299 8.44846316114748 12.495244127831892 0.8301058524321316 -1.9344545669080815 -0.7464616959479144
Ni 7.308964208403141 0.39581467595941566 2.367607392015424 0.7370481159434983 -0.2405354424890438 -0.09166317013395182
Ni 2.64757235161606 6.37933368407027 9.442622596421854 1.338464626591895 -1.2475105667098259 1.495147139020025
Ni 8.367938214463994 1.3364485977822493 6.006857051214459 0.13513589660560596 -0.49876264583089586 0.06182268973375159
Ni 2.383126412439359 3.0596549895160345 1.3122059651695686 0.09432529034714723 -0.37000282795496275 1.025164393535299
Ni 1.6920767932432967 8.285206728593389 8.500749899694386 0.10954056463500489 1.5484108834401722 -0.8439998368054046
Ni 2.0386407820850545 1.4306705678015492 12.682045523761905 1.338487252299714 0.7096591824075843 0.589676853613965
Ni 5.566860319232777 6.175224231379545 1.0153074195665328 0.881234809897463 -1.456976798597891 -2.934234458932005
Ni 1.8883763790186132 0.26349648642274126 6.222469806123844 0.5331084703006174 -1.509475125606923 -0.5792865115185766
Ni 1.4869235834267145 5.481519440547529 1.5986257385748497 0.3060677198638987 -0.5931308736008365 0.33069117483953364
Ni 3.256787749839185 8.400166504665911 3.7706138180996174 -0.1889531995363778 0.7954288698752365 0.6036855091882314
Ni 3.0255955464617355 0.4254161773945918 1.6574268033941044 -0.9517655689281739 1.2135115840565616 -0.2616719673573429
Ni 6.77580574390369 3.932080298740503 0.35516766051867316 0.14568487576604588 0.5209193844335932 0.5235300825835629
Ni 6.926637804354369 3.353619112673129 10.35666268536955 0.6272566116399519 0.8129784487232257 -1.7889836069250546
Ni 2.509237909382886 8.338346784369506 10.896885737573491 -0.03952402623655128 -0.08012405914610071 0.8770022598733542
Ni 4.317638687573729 3.9429665024479124 6.436366770810549 -0.4812166665273325 -1.5541012489567299 1.289739650582366
Ni 1.377878431067385 6.545986905165527 12.584557692630382 -0.32569115052178105 0.7158925649118058 -0.37428885692482633
Ni 4.954238976704222 8.362847609534374 1.189210174804369 1.2048451666308153 0.6736025458943431 1.3246292633706993
P 1.9812432959271506 7.156703848727605 5.717650263167852 -0.5036492844992358 0.33465555880392045 0.3263961470086056
Ni 0.38247198070053656 7.028413279889744 9.98055396083104 -0.746862788041075 -0.3541231806102288 0.8391252823219225
P 3.8120848523239315 2.2022176663883104 11.310783963526601 -1.6596411770727741 1.3699120464678987 -0.44741797281033263
Ni 5.5753843357606145 8.428448660470947 4.138695684109712 0.7251361949972609 0.25506551778441877 -0.9604170739555845
P 4.936138030758429 6.739768655768818 10.447423776497848 -0.2844398571814779 -1.6953124052221382 1.5837864347259887
P 6.665359759612288 4.153585703528854 8.021162727467786 0.4038259471519949 -0.16939173246468248 1.816388738410885
P 1.3383713082772504 5.009100316161577 10.607491256359515 0.528730910058212 -0.10775519059980797 -0.2032079096831791
Ni 3.0010214751827733 7.134354628164286 1.6473627873174146 0.9992669569432467 -0.2748912942610943 -0.10799944540013012
Ni 1.2618840536332674 2.396640320489936 5.4827948385092125 0.5538148496100332 -0.09559901485324826 -2.4899966836218663
Ni 7.632245088726866 0.989847985883444 10.710714258224698 -0.020737232547351384 0.4258559303688408 -0.04000019454202144
Ni 6.443515591546247 4.368224285120773 5.950696508808338 1.0313995758117334 -0.6133196898438857 -0.36830050055187535
Ni 0.4096279775013569 1.2269273456813008 1.0925564337971065 -0.727779803267695 0.7801889129970306 -0.269166218851859
Ni 6.436465653064578 5.560442128485179 12.133648205224933 -1.795420877909966 0.3984934791954879 -0.6795513072786104
Ni 4.443402265475304 2.8135938249772456 9.004858955343654 1.15723502095202 -1.0063076658401122 0.4170460453866947
Ni 4.711034410615149 5.100337507031495 8.6082074425307 1.0460417512049405 0.3886350983441694 -0.29093394954625384
Ni 8.985613538865122 3.607325340370611 6.622390842354726 -1.3539197848047007 0.6271771645522682 1.026569501412942
Ni 1.6753034331154806 4.2084012641649 12.705670142286907 -0.055334510906246644 0.12108893159423663 0.5393572794238065
Ni 4.1063144926446205 4.763442005250313 13.1552666930972 -0.5109399046233781 -0.22549011812014716 0.5604588372891122
Ni 3.5289703098171987 6.489019739927932 7.2196057803597675 -0.5995758578952319 0.5209278690740254 0.214036881977883
Ni 4.416878016408554 0.9556969851865257 13.044941564894057 -1.4507773546553981 -1.6774409242583563 -0.5856492205118108
Ni 8.492145312441044 5.633569217645042 0.6587077975172971 0.005307528255842472 0.45023358788225687 -0.9790079495838947
Ni 5.302789766390815 3.438392333974139 4.019928025680662 0.5570660095574793 1.2343745435485 -0.45898742281548693
Ni 9.00373279633944 4.232874622036981 9.0340713367977 -0.10143079104367693 -0.2496644013735055 -0.14492845721599557
Ni 5.745507591511134 1.8868473663868746 6.835014240232599 -0.40305127376949945 0.8538155373442455 -0.9111627078051469
Ni 3.009774385817158 3.8970778119672276 4.005000467628047 -0.391355582599126 -1.7731443258999526 -0.5744212130064752
Ni 8.908201552030686 5.668498458304222 5.521616194556131 1.5228782863867063 0.1523010955309829 -1.8512991771348246
Ni 6.6062593013016695 8.0644795637673 10.086430303179323 0.3821489763991935 0.07128332092601918 1.06429992608418
Ni 4.962305205018963 1.388297690797437 2.6083051098495873 -0.587299354520724 -1.0835513181146241 0.2524640756058297
Ni 8.176390470340609 8.418322385197277 8.356748954959516 0.28410124289513655 0.7687256495524374 1.4727281478948766
Ni 4.305699570976201 5.749884046828327 5.232073389961112 1.4283385660359078 1.1068198017242616 -0.4555760831410928
Ni 2.604109938664781 6.188811385544216 3.848912998491032 -2.088656736116519 0.2485418577332881 -0.5280061160770455
Ni 7.509319797746484 2.0930351775650524 8.25562994772172 1.1216293559332684 -0.009239259210080862 0.8989432829208196
P 3.8742250243695042 4.680591494444303 2.16405552536825 -0.5493465294260345 -0.7550550940438803 -1.3111967920148773
Ni 3.8410353789200857 0.9103118617402455 7.727975928696528 -0.5420255702845891 -0.7556176514155697 -0.4753985171836586
P 6.013551746042765 0.421752040536976 8.630197757134951 0.5352784813687427 0.8874676781810522 -0.38787816557348687
Ni 8.493958153764902 4.765456273387932 11.399655304911242 1.1525016200320926 0.3144669996711874 0.7111653346394655
P 2.408176583459941 1.4903753065534542 3.387550375027762 -0.4255769656758413 1.374877360892974 0.3834067600656945
P 0.22123530974262431 3.6814229405422365 1.331609776369831 -0.8542536533229287 -0.7206640181585202 -0.25710311703973787
P 2.7900360435313556 2.540285105995017 6.813439597325838 0.2652103195279045 -0.004707946998630602 1.4130638992650244
Ni 0.6388672563617416 4.481407842926485 3.652194994288946 -0.24909258803043552 0.09526554277322948 -0.2546924507157162
Ni 3.9433785118396982 1.5528176188196696 4.8076698400938875 0.07914318329007014 -0.10603383703332706 1.5874793101965432
Ni 4.27158519333633 4.458481809214667 10.729300459676372 -0.42747675380171546 0.038344404106153314 1.419549249879052
Ni 6.7124570109755455 1.3159579973640985 13.442463790888318 1.109285489655935 0.2834399551620538 1.2468469649838976
Ni 2.557726836913953 1.2439479114441887 9.740740689824579 1.9101419583046457 0.5730024782820776 -0.3492617387528695
Ni 6.036990502553251 6.937212712076874 7.819072120796813 -1.2779979366654055 0.26205506172837445 -0.1705153045461644
Ni 7.128027995059307 7.287503096973228 2.2562769608963227 0.7491338434634388 0.22905006755726362 0.26047254773260303
Ni 7.28597408434149 5.948527508254692 9.814751310235714 -0.7914045792071919 -1.0048110266899275 -0.744215580226215
Ni 8.57866728471608 2.863392026797766 12.694252904252307 0.3690936858771321 -0.8802158817146454 0.8517391144311911
Ni 8.131865988734948 7.182990047923544 12.175792188122497 -0.03651223599342099 -1.4097122091839722 -1.5413372644228422
Ni 4.8963745465689605 6.302086500992548 3.012125586079616 0.4147071128408729 0.6647715778662745 2.323560177130766
Ni 5.704975023123666 2.7901276011739746 12.053700987266376 -0.27262178150062727 0.5192484244890735 -1.0788917078554259
Ni 6.801469351129819 2.601601259257018 2.270695458455976 1.2817090669684055 1.249812989590757 0.14934998332245894
Ni 6.4642625533637315 1.4483228812985085 4.539823450070314 0.9176683701341487 0.0806382797783579 0.009646779061144677
Ni 7.317259330824431 5.0036892594827895 2.51180884798763 -0.15565381405329964 -0.9009307456644936 1.6491765300960242
Ni 3.8341777114879165 7.03569211247796 12.686172942291174 1.203480939293437 0.13723314545426687 -0.9926042002110904
Ni 0.0029921037607916743 2.1790352712771583 3.3808236350245373 -0.7818544736249116 0.5108776839268749 -0.5679376621646606
Ni 1.1801597018314727 2.6994763792168195 11.005255194530292 -1.0625698307669507 0.6484116484510123 -1.8339961670800027
Ni 2.1666292107022724 4.745798847517615 6.017939188277072 -1.0288845226993635 -0.08964742525550368 0.00566696847779024
Ni 6.52364684036647 8.815801579099507 6.581412388247703 0.9840671092743569 0.24372952394630926 -0.8708231276458357
Ni 4.352311566833576 8.367507893543685 6.081336446755804 -1.1830581526627109 -0.30224346102180205 0.004512286048056745
Ni 0.9551659508593349 1.707843019302303 7.969289829465518 -0.8309995678909947 0.24941603280812524 0.09363417781739357
Ni 2.368550435734401 3.8216892490346734 8.752234938981928 -0.45592472472976314 0.5926909578499405 -0.20449860347014456
Ni 0.8812020248459339 0.037195292314002995 3.209258346402766 -0.704913697302799 0.18754346367304475 2.319117053757748
Ni 6.570570132208751 6.5029456573702955 5.242365384567923 0.4967872672720799 1.662716730674304 -0.4725078258994249
P 2.41263544065549 8.499936867827929 13.37371956608063 -0.5729423144681035 -0.40248871639781003 -2.1402837162641912
Ni 0.7939494225827989 8.059214999316703 1.3970304587504452 -1.5555755195094114 -1.8376558753197771 -2.3712574832067292
P 0.5772965728532599 0.6447708931578201 9.990631710554123 -1.1266430070977758 -0.7058169258433586 -0.9236796093252351
Ni 1.1618573290719179 6.008900617797717 7.705181737990081 -1.247917315229941 0.326522902394457 -0.3941138620705535
P 7.879688773669203 3.636504761073313 4.534409646662247 0.14892215175642096 -0.3219216561770198 -0.6750436492162439
P 7.822364533625395 8.534408320274014 4.406958661407203 -0.10529773019825091 0.0037844067430967084 -0.36813594994955307
P 7.896370576154401 8.692116359685386 0.06041614163505515 0.15513573676630057 1.1529276518259175 2.5757650855379386
Ni 4.417546387199674 8.138952550273665 8.965086315389923 -2.217942601699251 -0.184822722307772 -0.5687511592048914
