# total energy = -340890.43951801304 ev
CRYSTAL
PRIMVEC
9.06669937792212 0.00000000000000 0.00000000000000

0.00000000000000 9.06669937792212 0.00000000000000

0.00000000000000 0.00000000000000 13.27003101560845

PRIMCOORD
 96 1
Ni 6.268063234925898 2.064251742947658 11.492258315849915 1.0287729368221636 0.008531434509778855 0.6560563094804637
Ni 4.771151146761863 0.338621279747624 6.007436424324327 -1.0003481058225674 -0.5893156136198043 0.14605460040063878
Ni 2.7659870844838896 1.5800990561162152 5.080590347484867 0.8759311382963625 0.9216988314497804 -0.9904827829927134
Ni 3.2478640297397474 4.138032587074362 4.444757217965772 -0.4579864923547983 1.1181588808861647 0.8464557545450649
Ni 4.892282252139642 4.459864152679877 2.6807057089462103 0.4787833744954915 1.3344819877950629 0.15935748815713202
Ni 7.236840076963009 6.015918321710624 2.5724085167168016 -0.2914191167127884 0.20488709715781486 -0.7555759995443567
Ni 5.0481841501165094 4.669323044628791 11.238535796920887 -0.15031440411825725 -0.055445325452498063 0.3075653874553477
Ni 5.630683326471364 7.8911293799931075 12.410598015214417 -0.3943779143652175 -0.4380828114523358 -0.7366837906255442
Ni 1.7660479962504139 6.518902543412549 0.35877292606593647 0.0282934476280545 0.5024853460981217 -0.02043332815368739
Ni 2.97051369190245 1.6690615116526506 0.6340379230172393 0.005669539580951526 -0.3419829457032691 -1.320857712143409
Ni 0.7491505532640484 9.260454872732282 4.771014239599348 -0.4153421753217105 -0.544596673445875 -0.14746022249891377
Ni 8.664872448992687 2.2529932265291888 1.413576426339983 -0.39418996672412754 0.10175089338725701 -0.15168994430954522
Ni 6.922252804261449 0.7628992963924067 4.909951436133672 -0.8665630668179012 -0.5558678754843202 -0.12277300416487888
Ni 0.8759782659403961 7.647915165789593 2.8045278107368734 0.6873160388256937 0.34109797199515446 -0.9491623269773716
Ni 7.251364929568938 3.8898679549414865 3.871545061913196 1.0998729380927832 -0.8223313506930353 -1.484004235029328
Ni 7.523365914698683 3.8415787133814523 12.693156265246998 0.6979686334435334 0.03081749960148886 0.10843524738596809
Ni 8.461098377632986 8.791933175846296 6.79296892268938 -1.8821526721805715 0.5767501182499679 -0.18485460398697195
Ni 7.122717530302072 0.4550630881417674 0.34824920795126657 -1.146635648169619 1.4087624436761932 0.7834678408586184
Ni 1.6455515598379362 6.24861516448912 9.34346866672393 -0.27676022914903303 1.9234309621040682 -1.1771672410995728
Ni 0.10926551573647018 4.606400150068776 1.3948391851443454 -0.5005014828988735 1.118155795562371 0.5049206950124917
Ni 6.127302725121254 1.936556347128747 7.134353732445922 1.7080036275365618 0.7248688002684872 0.12189420110435137
Ni 3.4984132038422606 4.242326831472611 0.5748387219436509 -1.7409942235299691 1.3997237305126926 0.3765974504533449
Ni 6.195538705590803 5.792233778239424 4.788583689898828 -1.756560710509659 0.40410491184499436 -0.5812107251244829
Ni 4.746081722632405 2.8313851880085847 9.704878189005726 0.2370739663030046 -0.9124315472152416 -1.0823256732376392
P -0.038479979366305136 5.600282683033363 12.477106789428392 0.2971557620862495 -0.3755394415024758 0.08225858899060026
P 3.8538731579093164 5.973177900247235 12.52773251945069 -0.5585953017178121 0.9696815299766461 -0.04949502140633411
P 2.545902020715908 8.5592363330678 1.2949522633751487 -0.4920718640742816 -1.0695789150949322 1.0308264769170827
P 6.520462015727293 7.863738880790542 5.838694266509436 0.15149068381454556 -0.49995049549141 -0.7027154040998995
P 4.949302725322341 0.9749421977000523 12.810874664931351 -0.6839862031215124 0.2963872593513412 -0.004154902708638005
P 4.1488128927850045 6.224742544694233 8.118711697581217 0.21526766906119052 -0.6395662822452405 1.2538833030053889
P 4.844391945357799 1.1655786214779869 3.8924456176105657 0.6297071300629735 -2.41666367925567 0.3153419460769731
P 0.17439343161593654 5.696580098468797 3.359520434135508 0.9493518172803586 -0.26689104966443716 -0.0028097015346532253
Ni 1.4330915903530919 1.130998229568492 2.464828500418186 0.3113996735997734 -1.593942292213068 0.3151128607853025
Ni 1.9683623289899188 6.71575872305045 4.8486170273268145 0.19110084200699992 -0.25895636819839274 -0.1906619546973684
Ni 6.234208178976749 5.632324399081647 9.22072096882453 -0.9045220625601776 0.5482800358347332 -1.5001967856287903
Ni 8.736843909658019 2.3387732705396065 9.98792785415144 -0.01918325779667019 -0.5632271440628687 1.1148994934086027
Ni 2.3818219597861408 5.412067068023084 6.960741850327258 0.23213333446827764 -1.3144098996355362 -0.15415614646185063
Ni 0.6687661021286547 9.156913164392892 9.030945881499505 -0.35143586358605283 -0.3237911052855908 0.17592979069351639
Ni 1.7676165352646618 1.1990347426489456 11.446039001786717 -0.9947680406316286 -0.7763194027392952 0.6705617021854903
Ni 4.0203377608087205 6.706320288866448 1.5530186380366977 1.1125664744000519 1.3101117864808145 -0.8963999476736756
Ni 5.946657804197085 7.8714274419702095 7.909721553996676 -0.48013243232421826 0.13516443585069626 0.18300829480685257
Ni 5.112213182016052 2.8233430255482483 5.163011179328932 0.41263660346508935 0.8053548707396969 -0.33530167702835156
Ni 0.9952153377917227 7.289490400984623 7.122583343149407 0.1147305934763766 -0.20481022117329242 0.23155277937445928
Ni 5.2802644573287125 4.770534611195568 6.928296666151033 -0.4544764223190108 -0.6736984480422591 0.4114937481098978
Ni 8.427977724343688 7.316871833487684 9.45248212821418 -1.177349789424024 -1.13594911499005 -1.2319404801857103
Ni 4.7102229260928 0.25397457317524713 10.695737884355571 -0.21257778093385324 1.3662055441505891 -1.413794606783462
Ni 8.28936602232157 7.116017239368376 4.714430781332758 0.6604071302499916 0.9215116551396388 -0.06360472133483885
Ni 7.538452902673879 5.948788478580601 6.6836898069036526 0.7871342339666121 0.33321754080581323 2.2256307143721283
Ni 2.3244841521207906 5.493631096763989 2.5234156992752315 -1.1415253235262468 -1.2209883520495812 0.7858808211754853
Ni 1.960773501504799 5.469885410762163 11.395108630661074 0.9080203055214232 -1.521122222927548 1.135779422181405
Ni 0.8964381800418555 2.895550220400692 3.772683583857939 0.3283141899669249 1.1579364178944187 0.18935120630574487
Ni 3.7564605384348506 2.475716699852929 2.7758380534953386 -0.647385264069027 0.031219877246230102 -0.6224257659102119
Ni 1.3622716005248103 3.3467273211349053 8.377848849454226 -1.1355886463268376 0.6621012301229628 -0.40578692753310763
Ni 3.635374766554592 2.8756125481906816 7.282447388809664 0.08276998140938004 0.17498825271585344 0.011583076851909084
Ni 4.319874312333102 6.93627898839464 6.093306228659838 -0.18609104749723435 0.40419747155880065 -1.145188631310447
Ni 0.5940447115036623 7.490762063281131 11.41960503938186 1.0116146798753223 0.5251791881512116 -0.009953768778602212
P 0.18709043760179309 5.278315116935283 8.05444421148471 0.11764545313032643 1.2568117895060937 0.1040340329944789
P 8.447616195470054 1.5601976507042221 7.936513651031957 -0.15258494531998884 0.5114561821381644 -0.2691595339836397
P 1.9135541304862749 3.1356817567727355 10.645113061003222 -0.5086824760477691 1.5168230813315617 -1.252185860698308
P 4.074184889164907 6.34129496682233 3.7393752498889006 -0.9968393213383607 -1.2906814456703448 0.9410037024259794
P 6.71575872305045 3.680209595603478 10.129226925906641 0.8169448895701414 0.6450743565476633 0.7024963461105579
P 6.38915807350566 7.929617519388967 10.02878602879773 0.034070202210831645 -0.9248255500042202 1.2547317670486133
P 2.4678740047816885 8.630690991861382 5.971540454316754 0.45569306833493134 -0.5596363413878168 -0.025051286541672983
P 6.81024279858502 4.03498954720771 1.7234054951416728 0.7148479256973753 -0.9699957187829553 -1.4680330564120525
Ni 5.282975400480505 2.962126994860949 0.5129467111172782 1.4186388222496407 -1.4716223164252076 0.019661997205301623
Ni 1.5085174635295704 1.313610624285099 7.053180478453653 -0.7704899405417117 -0.21256363986646618 -0.23993483279056743
Ni 6.757347673676788 0.9491021041127264 9.340323428665881 -0.35157933114245254 -0.2843724942786522 -0.6429858494497507
Ni 2.6292612559586708 1.4606634235457436 9.182582804029538 0.9311085547994545 0.054358263035906386 0.6211458707565237
Ni 6.485392022044564 1.8822558837973455 2.5474215995528326 -0.46187734276877235 -0.06546182914823566 -0.04695528570361591
Ni 4.066441927788213 7.024053706296009 10.41324582122937 0.2313614892992596 -1.5234806958573957 -1.2834185934603446
Ni 8.294543107738539 7.45692514073099 0.13331856285149363 0.3563620972430766 -0.8806974493367542 0.3362478429917048
Ni 7.559242844637296 3.768609915770646 8.105454369565992 0.9308640428888161 -0.3142119462375879 -0.37113025669118666
Ni 3.233819712207548 8.324653616792402 12.242970154768608 -1.2466088808311626 -0.236278981205535 1.9006317048213657
Ni -0.2545512152637222 4.704003170232833 10.379313698334435 0.17024662426581005 0.2729699088686654 -0.551838699720269
Ni 8.594115926060935 2.325644689657344 5.656749180876347 0.05610327075147112 0.09229951816637008 1.2351620724468018
Ni 3.6145213576946444 2.827985175694463 11.896529753368455 0.3828660570708761 -0.4053968911835405 -0.44847161088582765
Ni 1.1418510688751686 3.4398060582463046 12.872872756141923 0.09668890548331735 -0.5223103512438488 -0.8724043560900264
Ni 3.351677739064267 8.29720871739281 8.042899583005854 -0.5441493014958112 0.004067228090838156 0.3913764085347324
Ni 5.460428843179152 7.9502623941603145 3.6320073943586855 0.9573199230874996 0.561510161371762 0.18556757089359655
Ni 3.12306997776222 8.661699104166175 3.611956388404871 -0.09567254840366103 -0.2499744764147566 0.11780820396043581
Ni 3.1795101821766423 4.541527915115331 9.264631901193926 1.2318738886138332 -0.007061791942787837 0.44443934979798294
Ni 7.034199343041347 6.102187967494274 11.306676577045641 0.9105217317870383 0.8792046668413117 1.5189033608993583
Ni 0.9027939363943872 0.2646179717233741 0.2416964487064904 -1.411169767566105 -0.521918772232385 -0.544804675691623
Ni 4.560404783483336 0.1733036143355167 1.6033252202364443 1.5824402051107391 -0.3442424311614071 0.02193562373082674
Ni 5.7861228227735095 5.474056092534152 0.28624658339094106 0.39954351772655705 0.6069988898321805 0.06820545333164384
Ni 7.766489461907154 8.969812753421646 11.413633711088309 0.7562460290281879 0.4951885553263923 -0.676057692303055
Ni 0.1597679386455101 4.708563720083509 5.280875552875304 0.37559806265455314 0.5323155420856768 0.810335868894056
Ni 7.7059057758192555 -0.6379946306809265 2.5817644439353145 -0.23074339609928649 0.7383856038079993 -0.15998458021816964
P 8.391457058740267 1.2606338990813286 3.4888369558257923 1.0133020948800742 0.7727468548966886 -0.882962334111531
P 1.921560026148594 3.1928291637484953 1.7972401625551424 -0.9660979263904458 1.00877901019874 -0.31437212596453595
P 4.5888923533259245 1.0895180793362056 8.289562769700813 0.32837306822931833 -0.10656348428455195 0.20616339276707718
P 8.554195248143394 1.7583866351692592 12.522225406171763 0.055996055749645494 0.10246797405893966 -0.8429420849648515
P 6.320287424070809 7.543412387302745 1.0515821019401599 -0.011571763997999425 -0.5029067499062565 2.753126980692291
P 1.880261209906394 3.4282550830777945 6.016047975513534 -0.6235292833870358 -0.8788004894243574 -0.235545188363304
P 7.012810998910646 3.907221617792764 5.898727603937422 -0.5124619976948593 -0.11817664304344808 1.3718154341381987
P 2.375040068556906 8.485188598215977 10.182028663809978 0.02974972045860683 -0.3060615492163116 0.4128129811419536
