# total energy = -381165.8587220278 ev
CRYSTAL
PRIMVEC
9.23360120956192 0.00000000000000 0.00000000000000

0.00000000000000 9.23360120956192 0.00000000000000

0.00000000000000 0.00000000000000 13.51430871690373

PRIMCOORD
 96 1
Ni 3.6098670529088817 9.187349830389287 1.4753299840298773 -0.5297323547395328 2.429501968670919 1.7906167716531034
Ni 9.039824588211086 5.735765164750775 3.6802160117313942 0.18987134047527301 0.16956065394237896 -0.49109381643172845
Ni 8.763361342541844 8.95705458940747 7.473844650337543 1.790220050435317 1.626587846162231 -0.5199878737582593
Ni 2.2670798701760413 7.326723839880404 11.138276744626399 -0.9563398185624173 2.399737335813977 -1.5334061825012235
Ni 4.514843047190864 0.5082349394409639 4.296536713666278 -0.1426697430888059 -0.06119636900366235 0.22178850089884386
Ni 3.7232741396230744 2.365390019357446 2.871236226235882 0.5867565946433766 0.49991141472335837 -0.9756891696233067
Ni 5.836651488593738 2.202380028407083 12.266221117546305 1.9482997003212899 0.19935382604441151 -0.2439933191306572
Ni 6.670621091666459 6.542255571433541 2.253849043392719 0.10736335447802799 -1.5512005303701673 0.12861172233384302
Ni 3.871057922627524 8.409335848997726 9.712557975073537 -0.2617493575624976 0.39524669012341607 0.1973445089238666
Ni 9.038134839239527 8.39566088600931 12.582861607614731 0.19195316270496618 -1.0276053988766238 3.8478800810600053
Ni 1.460229353056714 4.90415936351805 5.451807005200576 -0.6452332507230306 -0.4670383181444215 -0.46004003244971736
Ni 8.824737087973308 3.0841796843359774 2.482362199393602 0.5377053456426804 0.8033573806936939 -0.3130528929324802
Ni 3.959552754012382 1.7533500148171801 11.143885233835828 -1.0249085687707509 -2.1317754216828644 0.6820391066974706
Ni 6.499439363886422 0.0984246458330292 6.975045527694595 1.1183113473036288 1.1092962882892121 0.09226866492843463
Ni 3.8338649780513343 7.652051301710818 3.7949259595378653 0.8636857452701061 -0.1974470959400019 -1.6741457984468522
Ni 7.426668336427744 4.232064018480381 11.778787634297307 0.8628475656395269 -0.888146963636264 1.4186791885692729
Ni 1.865427462996375 2.907771738425324 10.600542296910357 -0.8502723000776776 -1.3926333993248146 0.4537048342603089
Ni 8.159031394784378 3.8204393222882307 9.335630381124174 0.1292933217818999 -1.5766002013901943 -0.26868336567816953
Ni 8.11963161958413 6.22929190125842 12.918665513068818 -0.7403890073912732 -0.966702135633348 0.8736454275859792
Ni 9.118264028175023 2.496959599115672 12.475328014456874 -0.9178074668151741 -0.6731420613181568 -0.004511514717108359
Ni 7.331414509156646 8.40788617365054 1.00880968354419 1.794299105600697 0.7047602024440701 -1.1259686067385704
Ni 1.063424586369227 6.477989708908645 13.104297826316019 1.2544923973442976 -1.1706746913966937 -0.027887984659519714
Ni 2.2166274746536225 0.6939992931815714 3.3256281918901824 -1.0126901723276882 -1.1615107655092385 -1.870964516774236
Ni 0.3207466724053279 2.688750724188176 6.209568006295857 0.16512010167252206 -1.3093078025222804 0.12998957651797613
P 8.805909775661775 3.873467892472208 4.672275019814892 1.124232083663438 0.706953353440647 0.47370981662732614
Ni 4.787178873241051 7.978080517212482 6.14438801727815 0.14299833007281826 -2.561704236569498 -0.7695010942658812
P 7.604923002525894 0.784344538194301 12.596970549847208 -0.6642522150276946 0.46383729470862056 0.525823763713746
Ni 7.649244287025823 1.1436645785159731 2.282850860577266 -1.792122152554036 -0.9239328629866217 0.6374286670769475
P 1.7337009120222118 2.5831460302661577 1.3879468781978928 -0.058453259040886434 -1.2858845385023339 2.1885610632133408
P 2.2339866444160945 0.24917241473841176 10.717238392278482 1.4633929865368795 1.7868398211091743 0.39117971914289407
P 4.403107242246356 3.5363952902493128 7.81171595904153 -0.6768429072085117 0.6187981964599536 -0.10750630781379548
Ni 3.4733759638509762 1.5139873777147526 8.845871877159118 -0.46173670342585 1.1135175254594112 1.0548449513188671
Ni 5.690354315340223 7.50822873350855 8.482688498205201 -1.4933175420104539 0.20480739295981504 -2.448410375539648
Ni 5.6226535532665824 8.681764011057288 2.350462980081907 -0.028042507959512995 1.955066586731478 0.9223241237386051
Ni 5.361111806712316 3.9648436073495614 1.9268022850677449 -0.41616338567142525 -0.6325340579888075 1.312539936306333
Ni 1.9299426327465836 3.511344530905915 13.109662548460697 0.02869428261089897 3.7532490865469814 -0.6905214331368689
Ni 0.5395913248645697 4.542765456425819 11.431267212613646 -0.9785744615909019 1.6485563800135221 -0.8211643269681277
Ni 6.539568593560732 7.906834052378847 12.519479400699552 0.515418509220022 0.7866125571351872 -2.3728163430534166
Ni 0.17614478828393546 0.49735683417651266 4.551835622626711 -0.0821418609070779 0.5745094018449073 0.05916751149909165
Ni 7.576067999596254 8.523786332617854 9.326575912044875 0.4720504266470321 1.1687522775630002 0.002177981487925281
Ni 4.664898296025935 6.691673701803926 12.018436513028796 -0.10412993514239485 -0.7854733013244214 -2.235151766488686
Ni 6.422431132067796 5.640197395047804 5.329151543787399 -1.3002649755937221 0.46856632475317367 1.5813896523590378
Ni 4.547871637744248 0.20752333434979126 12.951234270295515 1.2281473316918654 0.07073053374634271 -0.9936388121231919
Ni 2.4493142182782486 6.945625428387579 5.328813593993086 0.5828855417237445 0.32176481888418135 3.9970020075320587
Ni 0.13108573906910168 0.3608906758411384 10.965239063057927 0.37586442894206235 2.8302287080723003 -0.8430241031556965
Ni 8.500369920640392 7.0486262468452265 10.775431315466795 0.9078835228332428 -0.10659459463280352 2.2664482626091225
Ni 0.7075671463991121 6.691996877836738 7.452194626219421 -0.4536297580479993 1.1045819135326782 -0.07957847105527584
Ni 8.321856713715992 4.982801942702611 6.668243439425057 0.4542182835616177 -0.6894508257805094 -0.25658915351779676
Ni 6.053530307413389 4.690696977045269 10.203465138995215 -1.1759714210192587 0.33796533990344374 -0.8310612743668655
Ni 7.470869584115485 2.2328786123035966 4.404989050117416 0.6224429923013926 1.6760044489221457 -0.013739461073279563
Ni 2.789055331172077 8.028422109523651 13.274821198349212 -1.1738062950471397 -0.4975362296229625 -1.6566882650920374
Ni 1.5172837732494349 7.261137572421448 3.4996381716373715 -1.0749664046590905 1.6249102013494918 -3.1145423240885584
Ni 1.968742223885896 1.4356402737601912 12.74630373108897 0.472095935172987 -3.7428628582166503 -0.4530887979428648
Ni 7.481912970836717 7.2432243866027255 6.811210976180514 -1.1850175903819269 -1.36040899207347 0.16380318263331145
Ni 2.9901446923886286 5.438470915366566 3.2815035830902226 0.12767918321724464 -0.7500848945227986 -0.2007717894378607
Ni 4.036394781014133 2.494678899684113 0.1847920555618903 -0.31202445166796583 -0.09829147408374685 1.4540606533923603
P 6.276004688401156 6.785958000976587 10.238399544782096 0.2247028463321614 0.5413539981388612 2.8272467426258405
Ni 5.778710642711019 2.446941182837315 9.082276991881269 0.5165546797069942 -0.8628100275333721 1.4154272572908784
P 3.0631178405975734 7.1712946352997164 1.6232033329634208 -0.570266053187521 -2.0857526750958466 2.015823811315193
Ni 6.219439649058122 2.6374396037785703 6.834212799475884 1.6808982866793374 -0.14561776997353632 -0.17112439888507303
P 8.252087625032354 5.243429562764067 1.4673299921776402 -0.9639852509228172 -1.6703716761164007 -0.30463972916812054
P 2.487698297375374 0.9431569341584831 5.285486768314125 -0.49431386603092287 -0.6023595912879561 1.9213000318039946
P 4.566532745238906 4.106579381739958 12.292614442466013 0.26575565050841327 0.9558502805205086 -0.29655335261556026
Ni 2.6458606478335573 5.473272357299947 11.843359129013235 1.9551131236986974 -4.3819925671451045 0.2367258389349665
Ni 1.8593332863776346 0.5803770635655354 7.559080020591468 -0.4670416605785311 -0.4678369027863169 -1.5285257144804707
Ni 5.059736305713737 7.240472773523355 0.6292643637290505 -0.5997720330664381 0.16059110345391697 1.1505118432955734
Ni 6.172015874643199 5.180262498750732 0.24123705809273702 0.23494817820925343 0.031566976173003705 -1.3954035058707839
Ni 6.294924336722064 7.674073439946721 4.251966121941037 0.5713762555325643 0.29268384235782496 1.5959906901016643
Ni 1.0628521031111031 2.792194755490822 8.440820581474362 -0.13724882918355075 0.4462872016399992 -0.20827529690375743
Ni 5.7942230922859945 0.10231476190799171 10.686737038301688 -0.18561282230923518 0.21948839201075745 0.19786232910054957
Ni 3.908998788879651 3.686385903877821 10.17997670493044 0.4183961316566859 1.8653713389571747 -0.9058742057126979
Ni 0.9421781724591097 8.32164434089443 9.475354153870294 0.5386764513066982 -1.649733688151075 -3.2630201892187096
Ni 1.6445689621726676 3.1831454191839432 3.6577423504096487 -0.009896433178105539 -0.06727908486263252 0.8178923410850752
Ni 4.084372571485306 5.513438521378008 6.3737128068014375 1.235938031380878 -0.30296465545854273 -1.0250381523700798
Ni 8.388606414893072 8.029502440833337 3.105060549496006 -1.2727955665288595 2.6056202212261574 2.8138664646641924
Ni 8.072244779572955 6.041591261401221 8.952337142688508 -1.0528754862973222 0.24292142622271715 -2.3866167392716187
Ni 3.6802824936581437 5.121582964793014 0.6658875951273979 -0.8133391744967541 0.5429108011030198 -0.3687933810278939
Ni 7.269318542852059 2.9433949708421414 0.6719919287071693 -0.2914890507187754 -0.0289058844010728 -0.23142191022354983
Ni 2.281539689244143 5.0621924435631085 7.600149230841215 0.2721548691665377 -1.442225094210013 1.504412880592667
Ni 0.42109098387326027 0.6510935197053592 1.3199598744951895 1.0317263630235327 0.3006228946992436 -0.19350405213185384
Ni 7.648948811795823 1.6670989484601315 10.574729765489618 -0.7837169807549471 1.268073478462842 -0.8781273746167328
Ni 3.013431833952966 7.589465954556545 7.688776102719478 -0.25776080522839473 -0.07344741845687351 -0.17476148141702808
Ni 5.004750212131014 2.669267826210082 4.969427071744664 -0.18131162383072 0.8594400826198747 -0.4663618609026871
Ni 1.1594632697200102 4.807677467322268 1.6900998483954068 0.6818226198112902 0.34660861740073856 -0.4011555994086833
Ni 6.109467461892675 5.007446423604759 7.716142649177996 -0.2149020581916557 0.11186664166502025 0.30052750677195983
Ni 3.8618427888919142 5.9498092680826185 9.304763376550255 0.16519363522293484 0.3234704887213784 0.2656787745238908
Ni 9.163453271163077 7.563113257480961 5.311528293038114 0.33990112347357593 -0.5495355055083891 0.21466500248018514
Ni 7.0474997475308525 4.5233471936542875 3.6350784769085913 -0.6821172682335737 -1.4463180333324641 -2.3645690154429597
P 6.662597092451785 0.49941685054566554 4.796443868421724 -0.7979400663328645 -2.446397973095309 0.9711812544506241
Ni 4.360863517957362 0.7147933624927879 6.938624512156778 -1.5224890213680877 1.3202090228158168 -0.5621238836963609
P 4.783660871283868 4.583938083006066 4.029236893567395 0.5146970576729651 0.23328801689801112 0.3434533596012085
Ni 2.9379286790871504 2.717319485488755 6.233529200728631 -0.5440456860384114 1.782170697768279 1.0464194462593333
P 0.8042494117352379 5.143743607042977 9.21096107134653 0.0916521143903583 -0.8723984425527557 0.4643792832550196
P 5.5106038058902 1.7115864377769348 1.7491708870328744 0.1451562569560855 -0.24311425895981356 -0.5271959614709243
P 8.204386842589305 1.9616415847649702 7.945210744595222 -0.2860108012130236 -0.2604761472770288 0.3640224420018118
Ni 0.056971317784283375 7.100879194550455 1.527847012721918 1.699292987136441 -0.39468361853109446 -2.28411148421684
