# total energy = -340864.6613000476 ev
CRYSTAL
PRIMVEC
9.31265015061837 0.00000000000000 0.00000000000000
0.00000000000000 9.31265015061837 0.00000000000000
0.00000000000000 0.00000000000000 13.63000483253139
PRIMCOORD
 96 1
Ni 7.948300175942651 0.5646557674362075 0.6358714641953785 -1.534448507722809 1.6930043259142522 -0.43749325749745305
Ni 2.537864741266837 5.493196954852971 5.76318837117165 0.7891952302606989 0.9421511857668612 -0.3153229199135795
Ni 3.6583720968689155 6.427078805295803 10.799271109038935 0.046436437085668414 -0.1142791077612548 -0.7424330344044956
Ni 7.767336761957897 2.106093038611983 7.503890276029733 0.20561909022783298 -0.7863878427188908 1.8574613400814783
Ni 5.021017664030153 2.9967548805995228 9.42683794677179 -1.636525674101233 0.011802906172199028 -0.24384445225761875
Ni 6.076047777777209 5.36045444235098 12.831558602938415 -0.603096983674613 0.05843037622275099 -0.9620301840789754
Ni 2.4707298477192827 0.19108998954913345 0.7731753126468204 -2.3462355072410945 0.8934179822272161 0.16117705786437403
Ni 0.8330835898269315 4.451046235997893 2.0538509348773353 1.4185046106646215 -0.5453860021163899 -2.731606075901379
Ni 5.712761302913826 8.241024702073918 10.955934094223164 -0.44449488562626677 -1.3402569426056272 -0.7328330494208863
Ni 5.6645217761311475 2.188677618439937 3.438904600367624 -0.0018884752719644893 -1.9418480311586748 0.00750067925241934
Ni 1.4528478946548735 3.437550541063724 6.09276212192191 -0.9994327930971497 0.9945273853757323 -0.9432932697911045
Ni 4.024042610121558 3.9662855550817553 13.546807370316197 0.9460322659888224 0.2530896250049706 -1.1598850569803574
Ni 2.5349033185801786 3.591740086419095 3.822575534724174 1.6951668807832097 0.6672629768295605 0.0499562773134688
Ni 7.592091315047384 4.425166381764483 8.344601857437299 -0.15661206420151091 1.5925718942281024 0.9054630863172083
Ni 1.8569889648842048 4.101281728873594 11.497099633405197 0.2721507554014797 0.27224357222560214 -1.1942442511865172
Ni 5.138282552301872 6.730540816828697 8.90420923733125 2.195950927919508 -1.369558262672906 0.8149707965629062
Ni 0.15296679441587968 6.6855700301812915 10.377327045884808 -0.41725173363959756 -0.8204824704097546 0.9665818080053998
Ni 0.6087930719123676 1.9791243690839808 1.5792680491003463 -1.2492802570157386 -0.030118673762251358 -0.9706140690932445
Ni 8.336926371341878 5.465594260377322 2.892491382934233 -3.064047143552484 1.575015373401578 -0.7545043637467328
Ni 0.4030226209693701 5.9843088630404955 7.96955909326688 -0.47540391650029734 -0.13716064034511863 -1.0374588946319359
Ni 6.305185529994936 1.7164797023172036 5.644866497129694 2.072371882913566 1.2145415679829727 -0.19282399534569372
Ni 2.9891185076339246 2.2858178701523166 7.136752089143702 2.163728577550693 -0.5938001317537193 1.1840187168037675
Ni 3.6723503844559433 4.817173069098479 8.228883800323613 0.38959669092649035 -2.180468001792561 0.045833513394346874
Ni 8.791206748945331 -0.00033991172346868674 2.622522316975452 2.003495885877459 2.05299707793138 0.4051287251238184
P 0.34907816482239157 5.755077984323188 5.564109059223509 1.2820160566858632 -0.4474974198980164 2.5200361674067504
P 6.614719389300475 6.243079467424725 7.30553269445334 0.7785215525969367 -0.11725156012601742 0.3902641493071602
P 8.114251598195034 9.17782141195362 6.468254687085304 -0.7049417223272569 0.1673281650674344 0.06669698710691739
P 0.5055148526126393 0.8865074688412552 13.260235712012209 0.6704765986708516 0.9249353361092071 -0.05544018324617549
P 0.6836928529949416 5.745597706665897 12.421568257270435 -2.56256812723169 2.4212325295732753 -1.0970336688717752
P 3.0283527019071736 1.3958824148615048 3.6799653383266375 1.8440607504048563 0.2839096957096207 -1.0334289475369363
P 8.369464770295291 3.0165163238104964 9.725185450947725 -0.24963689056967978 -1.6121729562884815 -0.13639676559590058
P 7.209993287268747 3.4296720391992173 12.99794026961886 1.4840188903173472 -0.7988137271870694 2.618766528800129
Ni 1.1158882812228874 6.271306109447563 3.7470108304345957 2.3289013868380217 0.655965035318238 -0.24772527536926364
Ni 7.162405645983132 1.1846063252633103 12.132462626912863 0.28678213216140935 0.3642129607460631 -0.6834982077415003
Ni 3.5866367542420856 6.321734108970384 2.8691706449092935 0.7401146706839641 -0.1066457595857131 1.1855948030416357
Ni 6.687097304774411 1.1581583993824591 9.736184621813173 1.0108446344785171 -0.20521234170771757 -0.6880115222308216
Ni 5.611709738219067 6.678734545112086 5.451920496443923 -2.808954372074556 0.5663214667174763 -0.27201885780930574
Ni 5.57179572049888 6.055811389418374 1.381305323882175 -0.20286235341830225 0.22273492397251318 -0.5099664849665153
Ni 6.143825244171869 8.533069404758248 7.608173330259934 1.4987590247409994 -0.2758778265440797 -1.6312957931608618
Ni 6.621154430421486 4.041131322794573 4.7913695785947255 -1.207125992245192 0.5523858304729906 -1.2488022889380557
Ni 7.278357450610765 8.294665565832265 3.8387134258364726 -2.7042433676177104 -0.24229561971326014 0.5089956364128136
Ni 7.356928278306801 7.737117212844037 1.4528627948948063 -1.4699230743459137 -0.13853155255071625 1.0543885805077389
Ni 8.370535725040467 4.164058302240783 6.1620845569446105 0.049861146496501224 0.4567544197199101 1.395499922239332
Ni 0.21475902068250372 4.03780670675955 4.052786104217068 -0.7119436075663867 -1.8260938815137906 2.6541078844138997
Ni 4.646444257417619 9.10684039397339 3.8031260652867944 0.21355557146609025 -0.007272108181381025 0.04929756068354736
Ni 7.122091184314749 7.544857554460174 12.721850930107651 0.5867398824728282 0.049735419551914344 -1.2084470250494608
Ni 7.763770017023965 6.4961786679845055 5.099365919392191 1.3274847305416235 -0.7488438230268458 0.747018596892649
Ni 7.7901713796550265 3.5153484188132422 1.53145411042075 0.10454259719978125 0.25804568345866524 -0.8369547570331651
Ni 0.2653322975446694 2.3196041642001086 11.392243851202574 -0.7291687131954216 -0.5959117787800834 0.27726159426548375
Ni 4.295776423247389 8.279411445200985 1.5574457164536568 0.5282336587068194 -0.3272615803326945 -0.5722416888566533
Ni 4.92565612845976 3.9136877081187107 2.2995177095055985 -0.8930482575926233 2.168520085402065 -0.19583861380230144
Ni 0.909425900388007 3.6782732298292604 8.565858313995532 -0.0850484930309116 -1.1876879381252383 -0.11870346208119557
Ni 1.896521163956111 7.2980350799721165 1.3312237549377939 0.6452821016830951 -1.418491755148815 -0.1490905590134852
Ni 1.5636777418055814 7.8362038083976495 8.888753032195881 -0.1416688126281173 1.1398944727910432 2.316456733316765
Ni 2.576074544044701 1.558369531329495 12.009819683290376 -1.654920631668653 -1.503038883063276 1.7444533857231632
Ni 4.335206183169756 8.891643678742858 8.754634110030091 -2.024569675828623 1.398924631650165 1.0392915769653006
P 3.5985383208884687 7.7894822435581315 5.544753647550706 -0.6270974603542684 -0.09595125598634444 0.23889379312056275
P 1.99666940160494 5.3780367254717705 9.386752576292379 -0.267502715106507 0.8039091394321057 0.7251300243496738
P 7.813564756349638 8.64335911821139 10.828834116330754 0.8372532621101904 0.48820878157444947 -0.49817849119265173
P 6.254319835924088 0.22084018110510786 2.2519496247848942 -0.7445804197648016 0.42873582301979707 -0.2624312141208706
P 4.21092886947963 3.1876083288397217 5.413606391986529 0.519249452930338 0.1867831884682525 0.02944504473399445
P 7.873277467880632 2.5814758810203675 3.4175870133486606 0.1065377732529391 -0.2818654115860823 1.4063816021488424
P 5.335598979612955 1.4707747458241123 7.912531218718791 0.14652896893389603 -0.5698657324253088 -0.12718244608648419
P 6.206899822337716 5.97346893848933 3.3862518087698263 -0.5233747879526212 -0.16617939617497188 0.9331587524602639
Ni 2.8488793119157068 8.281087722193432 12.338438887419935 0.403600204294434 0.3221304297537162 -0.4912264853548508
Ni 1.5842307602629893 7.926657577440152 6.693940239963584 -0.8365734624343464 -0.06813089133996654 -2.296097967154755
Ni 2.342280466847951 8.69177558534327 3.1549507279668454 -0.7819048672468727 0.08220716692737455 0.7555050370971054
Ni 5.663925766533832 9.172867082175939 13.366604799833015 -1.3662271414171439 0.5337327341481776 0.5455968325756152
Ni 6.019538617831785 3.3290581690524856 11.382594083316047 -1.9302374435029404 -0.5362963811102958 -0.36667479202299436
Ni 8.195932850977059 5.96669864196983 0.3021908348136205 0.9170363929771044 -1.9446495051632122 0.3718902747856627
Ni 8.089358884857178 8.046800074548905 8.715338452267119 1.0007761944989217 -0.20798399091558376 -0.3651064190946099
Ni 8.896719072969994 1.923714101833606 5.504136524758688 -2.296617072883019 -0.7866585798817742 -1.435361020100328
Ni 1.0146132129291348 1.7534043594008568 3.879467444582874 -1.134617026442188 -0.13248508924632021 -2.1865198644135955
Ni 5.681629114104078 3.5281346872056396 7.3136561190117435 -0.6226108853378245 0.7114409568983554 -1.9645102486428814
Ni 0.0662613669814904 8.648695266637349 4.781841806422649 0.6932514304735223 -0.35072855310638307 0.8149615405915256
Ni 3.273871405401104 6.883603531539144 7.7702879407296015 0.08732623332149476 1.0303945315859868 -1.5190383438153257
Ni 5.77160793799872 2.266913190737483 0.8021600043762432 0.7743249980170858 -0.5760363800123951 -0.2054303712557946
Ni 2.082075714370182 0.6643830733069328 5.521419871815826 0.6987445923776096 -1.2205558924978528 1.2307803984393384
Ni 2.654701247640485 5.9205917120275435 12.888641422121255 1.0360985239492992 0.1676860626274854 1.0408069851685624
Ni 2.726781158315763 2.7600273186659883 1.3332697441335768 0.39327491110902596 -0.36598239394166004 1.194047047574047
Ni 4.597841537286576 0.8751963242022124 10.902804494947516 -0.6113437970644374 1.3684053800153853 0.4783496293921827
Ni 0.16801324295309492 4.033336634779689 13.369248661156105 -0.33609151991949854 -2.7018396432722245 0.484550615996572
Ni 2.4724806259113947 2.002499120478677 9.57571835038608 0.33334583885356145 -0.02337569861146297 0.2621851595483356
Ni 0.5926970877248805 8.93386723365264 11.487762770557259 0.24233547181226006 0.2935952984285008 -0.8179697312902301
Ni 9.323452631997545 8.058347760496883 0.1363884149605658 1.1273109796990781 -0.22252409351328775 -0.7267598466436128
Ni 7.971218607489404 4.579011359071407 11.283067930684416 1.4857654406948089 1.2025000634374063 -0.534493523573602
Ni 0.17985427737475068 0.7402010816753702 9.253164475174195 0.05746184166189459 0.7066396788549701 -0.5949542999628206
Ni 4.679271348519732 0.45577133286173543 6.061739822381667 -2.8788945487091193 -1.6004842070966436 1.1333067922711966
P 2.687751842341591 5.166006311226974 1.3359406121415445 1.2916584648716336 -1.1742462107980358 0.19507705304592857
P 4.008658112390866 1.3348286817365536 0.0856093285343272 0.5371517871320556 0.4571647677844513 -0.5336370891105778
P 3.744039163832983 3.113740389372499 11.375329285083774 1.9266296715470237 1.0402580546436277 -1.0890084845744534
P 2.644997466384201 9.169961535389028 10.262384732512627 -0.236680844629644 0.18418843115788278 0.28097889521607095
P 0.7673129994982302 1.5862422926539275 7.117206699411754 1.6715834370363145 -0.3437390091624274 2.62535986574693
P 6.381316443401964 6.009685834176172 10.667141368904185 -0.35149037097307206 0.03810631995341825 0.24969345483922803
P 4.565042384134337 7.094739931387968 13.052774083836832 1.1100344520068173 0.32640643142125075 0.3663873426895625
P 9.313674349541598 7.326485225593948 2.3923108162175626 -0.3505393199137124 0.5637758174774872 -1.2108481782917855
