# total energy = -340857.68064891244 ev
CRYSTAL
PRIMVEC
9.32407324206291 0.00000000000000 0.00000000000000
0.00000000000000 9.32407324206291 0.00000000000000
0.00000000000000 0.00000000000000 13.64672368152662
PRIMCOORD
 96 1
Ni 4.835893324093405 5.665372209507875 5.361578982666674 1.2685686729317056 2.3033921868233236 0.027247265751727263
Ni 5.010393356023484 7.465505774269668 10.226444999745189 -0.9852174208287162 -0.36397539081396024 0.7443793594975889
Ni -0.09094514621638314 0.5371207020762906 11.021052783400894 0.350960466611531 0.299580055257026 -0.4179976106666866
Ni 4.368514825534645 7.80382977419395 6.272402948421214 1.401418344606296 0.40919029678770175 1.2703244792805477
Ni 2.4006971264297827 2.141254786678008 6.427511705095883 1.1028063096894942 -4.882945278648784 -0.11842706849135735
Ni 2.125926010162216 8.751631149867181 6.125386554969205 0.2589638243975605 0.13202563311139842 -0.33557447107376404
Ni 2.085301022766044 8.017267136251736 10.787939761851852 1.0840696525119395 -0.007723336786186698 0.03745968750835484
Ni 2.8046626024314234 6.244928634016449 7.071650390954203 1.7572399959648706 -0.4218228979500477 -0.9368894231472896
Ni 1.5707333892033775 4.58077735435582 3.1765206320023274 1.44325533524674 0.8234880900052979 -1.3571843144885851
Ni 3.0081045579047014 2.8329238686232516 9.666711555086113 0.5262359115505002 -1.702367769407023 3.139195089640232
Ni 7.712948031676051 8.4874055605092 2.1165795590798373 0.6758723157651264 -0.4570372410676516 0.18149725747896486
Ni 8.035663532885348 4.759072284121622 1.7658722573972685 3.5549419565995297 -2.832827836258044 0.9911073039505899
Ni 4.101827680823765 0.42281595500527597 9.33040155499602 -2.1701799896029916 -0.9781011214989089 -0.41894377663003984
Ni 4.9590270361782895 0.47547552381807384 11.359778650884682 -0.8597527287642871 -0.5177096192470438 2.0830828415731673
Ni 8.12302077569341 2.2781135346699775 12.8930152792862 -0.4863956396251106 0.04072678829540083 -0.2892683889183728
Ni 1.2075980302106506 0.8454230507684877 1.582050949382738 -0.21192009274519635 -1.3388518347279845 1.465121282081896
Ni 3.255621407897536 0.15824071289830438 3.1414621163701018 1.0052044054736045 0.6391826736535766 -0.23688678999286297
Ni 6.834918696554932 4.439443051176758 4.29813112577363 0.419977874321509 0.7021153086220553 -0.9338460083352755
Ni 1.2626380349385835 5.648290507210471 11.163483597600793 0.27895363725592603 -0.5835997941819497 -0.6988466651731126
Ni 8.240466803061366 5.126981568647247 11.448686487083608 1.2746966402063142 -0.15010305943839955 1.7885331496511971
Ni 8.524645909295135 0.5239448540869561 4.077367839318973 1.1863046846244665 0.5510455143950123 -0.6694766966514277
Ni 6.864699786695711 5.8873131264211365 6.2232333802470166 -0.23006976707102955 1.9440625223114905 -0.5864748017368996
Ni 6.748680342543641 4.7716318108654 13.576743047996347 -1.576877366310981 -0.28405984813423985 -1.8659215550336898
Ni 3.6496101254612823 3.981071607432022 5.8749009200356 1.0023535662883707 -1.361268768970604 1.227250788019525
P 4.23549759574493 0.5934716715111091 6.128525038044153 0.05926881296364631 0.11925393526802687 -1.1998276588115657
P 4.114042216855205 4.621728684317716 3.772159218149854 -1.2150563028358623 -0.3407956102633873 -1.2688381245430083
P 6.605266771017242 6.044022826482523 1.997975481807222 -1.2835646321199055 2.284012496745131 0.4219581379763313
P 0.8631742215292938 5.632831193668389 6.568713606433994 -1.8986028473167946 -1.430492379154117 3.2840111896480795
P 0.5357220910803242 7.819102606269904 1.2793616928210194 -0.3210238269530987 0.42707129083318063 0.766745385897615
P 4.417578099273149 1.9935148451374196 2.0395850913445543 1.0680758481868444 -1.2670872032901728 0.2984379712327828
P 8.7308198182472 1.9661580140563162 1.3118243864447312 -0.7388689712023211 0.5545537846585868 0.969567115885969
P 1.5831717029941723 1.702790239442529 8.55032720440307 0.6777301949094715 -1.049511712031412 -0.596538870841121
Ni 8.800936849511652 6.789827478044973 9.855731966376316 -2.2878627237291567 2.5356893005629746 2.289442666621767
Ni 1.2741719136186533 8.030162329634546 3.5317724870144565 -1.9402238652916906 1.941203455596141 -1.1367219886003326
Ni 8.81617238529438 1.925635591466515 8.734026367057286 -1.8220855316853457 -0.7072978812642594 2.8624651995085024
Ni 5.168995842966078 2.7053052772779673 3.9721932248296277 -2.194786218187446 0.8724676052277942 0.7659465441454035
Ni 8.100717592344399 4.4484407819174745 7.279162304425744 1.2024260156663613 -0.2936983996652684 0.3229662953914503
Ni 5.721064899367258 8.881748592858592 0.8055253410902183 0.5254774361179207 0.8410818918276611 -0.9897603030043923
Ni 1.5247843559492267 3.8159422691749176 5.381994973578461 -2.7482508835469117 2.1251548310425528 -0.6834077049102231
Ni 1.0542729687595032 8.872452491772068 8.878162554264934 -0.25049615324618146 0.5643831120441828 -0.8693863951993092
Ni 3.134837362285874 5.527636998625099 9.57215333046348 1.0607037240924895 -0.024321607464500048 -0.5493167046293636
Ni 7.662868433947146 3.0316944633700023 10.560926549059884 -0.5603750193260543 -0.2806904174413747 -0.3527800363187731
Ni 6.238373810482019 3.145662611394654 6.363726652013838 -1.386887755090289 0.9111943323740306 -0.48552634964628
Ni 5.929336724813274 8.581886395323387 8.195894935434577 0.05398056798151349 -1.0546678023110547 -1.094598062847089
Ni 2.683403029081133 2.7124941377972345 1.1735036237583116 -3.8349793138379376 -0.9669484473161991 2.9802353511421513
Ni 8.314071037742426 8.931651033194676 -0.14435810015234152 0.27377235016530266 0.6432460450896729 0.9143107665158254
Ni 1.1921293925952618 -0.06345311607233614 12.95067255139125 1.7504556260531854 -0.13541768951208288 0.17304629849813422
Ni 3.955607563232127 5.433734256355913 11.77297402705237 1.5256157399225274 1.3721478777769531 0.47534092447284576
Ni 3.8612852376641498 1.324176918761107 13.419737774811145 -0.3456434252739918 0.20260087222679948 -0.9763864528006474
Ni 9.159587329243978 3.162762961838671 3.4418128953465645 -0.889410917950352 -1.0941409207050126 -0.15367406461910954
Ni 1.1968939940548544 6.358495846888924 8.667471131795896 2.08013327202654 2.460082155450621 -1.3616845163517837
Ni 3.235285604016184 8.760255917675641 0.9274049653153872 -0.411598134898246 -0.682033964491148 -1.3245852975066414
Ni 0.07767978712330677 4.706941390265299 9.198601116772798 -1.4254579020540032 -3.833909734922843 1.4658327063266239
Ni 6.3694609570973 7.734365428060951 4.014565543563426 -0.6152169068665985 -0.5525238987127516 0.2377733063628744
Ni 4.477447973973819 1.9437709140475465 7.689696590071774 1.48426777310336 -0.06805838623081828 0.25622765641331996
Ni 6.775887988451842 1.920516675221278 2.5638376398506226 2.2371099186563215 -1.2054804862219692 -0.12696981585504585
P 6.511009713962411 5.86617545223543 10.838228218822822 -2.446397973095309 1.6741398849095812 -0.5963067002256569
P 9.22217983335013 7.601049827925429 11.980813215496966 -0.29203001082391 0.0033033533416201174 -2.176864600712019
P 5.171587935345269 3.4691520106883855 11.841384752901742 -0.5523616621032745 -1.0583251965579838 3.4042930519599888
P 6.742684963407599 3.0846645238239048 8.38825895941247 0.3095250822848798 -0.5038979101749322 1.8995942646957866
P 3.9091643540927343 7.4419065447310615 12.707828926939605 -0.27706824730775503 1.3829976760072633 -1.3183452301342002
P 1.4846442203649899 0.7364731189973633 4.325724788316718 -1.183010587254227 -0.6141594121363616 1.007828987580645
P 6.764755044923949 0.48881174586827913 12.467946628170088 -1.1767779760809538 1.632383884018718 0.4559195825234406
P 7.974609500874759 9.21274387116401 8.647792675082648 0.7430567840314235 -0.8988450667800584 0.1235736456893033
Ni 8.53755042675125 6.331735756499432 0.04491406111713564 -0.5144072943466883 3.8462096353361175 1.7108192426084856
Ni 3.2936263306945976 7.400563603690292 4.347819112423665 1.0512166105376606 -1.2580793433646076 -1.0670381509509494
Ni 0.16808133986592427 2.4450237709286124 6.811011772597213 0.09677580877016882 1.0382554223913023 -2.7583059537900687
Ni 0.845815594254689 6.229376079741302 4.719500917009078 2.5223159645798625 -0.22564746963361784 0.13373284561049226
Ni -0.0851763420616869 0.08258797931181834 6.7344266316800825 -0.5349545223704205 -0.04749341759527305 -0.15517893129941016
Ni 6.053505409035175 2.292146264996174 0.39242786769224786 -0.4415725697731492 -0.8477055677917659 -1.680059849938442
Ni 2.588884897973721 3.692817881163339 11.967945061926745 -1.2333653855576951 -1.4417872353416459 0.13582520936314674
Ni 2.6735381595229164 2.3606875278718364 3.8469298944015504 0.26897621432824 1.305821900856209 -0.6114304432409728
Ni 0.43717782511919007 4.775072393915477 13.370500140901813 3.220711401148169 -4.166823371334992 0.13716398277922828
Ni 8.557410702893975 6.481070114575422 3.4769805026364753 -2.4095759191709534 0.15067333011957276 -1.832657393663921
Ni 6.800839208619882 7.2700452255467045 12.692258656925176 -2.364376954036812 -0.23615351137126425 -1.1137250134845271
Ni 1.0591028387322405 2.1916514028993324 13.326230373250151 0.22497332638472867 0.9513925018594712 -1.406232735275804
Ni 4.62200840651691 6.4883428917544475 0.855343864766543 0.7129602217563592 -1.6149037249560836 -0.6698885873778657
Ni 6.403409908006059 1.2377334351370743 4.99949071710626 0.5327076353177729 -2.1141430533130814 0.7617831567963331
Ni 4.1217625495529395 3.825602009120393 0.2571299695717769 2.8627413359880243 2.8445777777051204 -2.7067622773848226
Ni 8.438724573776263 7.144300772936015 7.582379303536608 -0.3133902216672409 0.34739383230619525 -0.822932474612144
Ni 1.707088637236799 6.97490100910456 12.968822792489574 1.2289310039354255 -0.8753269290534602 2.240142534835058
Ni 1.8999384454339583 3.780520114683741 7.927545308453157 -0.9144424069976832 2.6297880767216126 -0.9278118863260538
Ni 5.75189028571836 3.9634957292493773 2.00473077291774 -1.0509101350408352 1.417315989673159 1.0371565329001686
Ni 7.178855788609693 8.685924405276678 10.70947115812682 0.44187750260807773 -2.186808599298608 -0.1903840184456334
Ni 5.3397942177935 4.098890597732235 9.937517142976448 0.5069539233924366 0.23520888806980786 -1.194629145329762
Ni 6.297451138951642 6.003705533505464 8.697575767280409 0.6096489258605179 0.06864716885475274 -0.7977662597591615
Ni 6.305143499429457 1.0646506623495742 9.598791275492658 0.8970918315343777 3.2248516485687877 -1.3366396575680142
Ni 2.369881064151989 6.788811154054572 1.9096270900066832 0.3509869489740923 0.08426276390482262 0.7903519695729615
P 0.35980013797101207 3.4476134013505026 11.430387060812382 0.08564524607464606 0.13301165117375158 0.12350319746268408
P 3.3437991691565667 7.861648352767203 8.534633856620996 -0.3184982323177676 -0.9092685761062276 0.34904525186668917
P 8.073276844603537 3.0190883162596913 5.345694491381817 0.24161222049299036 -0.5129859885191295 -0.9524391979564306
P 4.6944844283278915 7.892240637285642 2.412208627333917 -0.5772735948536057 0.3441611843015105 2.3657815476938224
P 2.383466238959476 4.888863384547307 1.1198696892849904 -0.6951699876524737 -0.64207670737192 -1.1656893223669602
P 2.272649627712402 1.2102087707364548 11.40842886817571 0.8145126259795649 -0.13559715251274065 0.26759064683462297
P 7.548238276717736 8.703929190831419 5.546520111885307 -0.35819580801770573 -1.0870184507276184 0.9489119015294625
P 4.055375147611066 3.897182919893955 8.226176728311913 0.030521565627624852 3.233167624633651 -1.8156955689986018
