# total energy = -340867.84565305966 ev
CRYSTAL
PRIMVEC
9.27473290685442 0.00000000000000 0.00000000000000
0.00000000000000 9.27473290685442 0.00000000000000
0.00000000000000 0.00000000000000 13.57450911355096
PRIMCOORD
 96 1
Ni 0.40313924680094754 3.0678033760410206 6.756318246297192 1.5257676921193595 -1.1657957660378373 0.804293262244402
Ni 4.509300900940641 0.9855609340274116 6.114990875961886 1.0745866527221686 0.8849107160871533 1.105241144383232
Ni 1.085848620048307 7.891406422905651 5.901096987585497 1.4263292489153627 -0.944213981833161 0.20324904733375962
Ni 5.266657033844948 1.634476890758935 9.32428957595877 -0.5028206179503534 -0.04663904001477775 -0.6710509831170831
Ni 2.3805920474811164 8.39998639728425 0.026834584478336865 0.4566870568170845 -1.064988210400456 1.024284819143823
Ni 2.1564310298690734 2.225360844213594 0.6966706285666283 0.28215183247824954 0.16776576682548525 0.9521512344023667
Ni 2.2706215403924497 6.732686227062822 8.641288048627471 -0.44288666059888243 1.6545141402588537 1.83403421940679
Ni 7.426130176080141 2.4785425008304807 7.0814820318308245 -0.16186997016634058 -0.8136883303060566 1.0162611775083983
Ni 2.899374227965606 1.8644253416528647 8.055466244347897 -0.3770563923676345 0.06363531746245815 -0.3250059515292983
Ni 1.5184499831364993 0.8693438943820931 12.41645396523409 0.15768112889597358 -0.8092246381077484 0.8266649450713827
Ni 8.265308001953683 5.249294733999289 0.7188641367400678 -0.8253264287656172 -1.6728728452716994 -0.06381606601469654
Ni 4.048940262511605 6.695837713554913 2.973414420095894 -0.8226632801111573 0.4844182041837657 -0.2612094258986276
Ni 3.7087894362084204 8.44035003453228 5.191028079981988 -1.7182872688507569 -2.033922834908749 -1.2312264848378216
Ni 5.282600299568607 4.788034446486369 4.057447974930636 0.8697255237062829 -3.833702504008043 -0.5737678956931925
Ni 1.830173753335546 8.174118828832677 10.798712402381947 -0.10604746388008188 0.7041567645321164 0.021865175504207503
Ni 4.457937430563899 2.5045952253317934 11.658154592001631 -0.3762459806511972 0.24923142760114497 0.18982583194931824
Ni 2.160864352158724 4.270958816841412 8.288635809951442 -0.5064201623761536 -0.8049936307455362 -0.6829742169172303
Ni 5.487803763289342 5.009867506159705 1.7492248127250056 -1.2828148984380747 -0.5939204593816674 -1.724950025582913
Ni 2.7374559423323137 4.448384455755656 2.12420689814698 0.3701324115542916 0.610907223747651 0.3131796483183316
Ni 6.8873702210937555 8.790146582971943 0.7327233699982777 -2.389668638724065 0.4869067749335743 1.0855200118052208
Ni 6.796032652247574 3.165095323359914 11.641376600323856 0.9046382764230678 -0.14947288205356837 1.2493044253854548
Ni 7.460817676840167 0.8939896419140755 3.0125500827180867 -1.1326686444665652 -0.364052781019115 -0.19386914878075642
Ni 6.453915582585799 4.3863364931662 8.322246514230654 0.8884770932821731 -0.38071172973203465 1.7357738556712947
Ni 7.535915188512338 2.119601065826812 9.682941639298347 0.7289540260814542 1.4152243972514529 -0.06541940594607443
P 4.240917957225978 3.069528476346198 2.410656093928609 1.1180285259558873 -0.48200290987405364 0.07456199167729094
P 1.9668276667575262 2.9509139182659956 12.113769349644864 1.7066908222624089 1.2098593320159552 -0.43635117347320984
P 8.97765385646537 4.715079398096436 3.8061565088631846 -0.9041032298552042 0.8551807931228884 0.4167015175630824
P 8.392093599651423 7.26366468121026 0.8972014818908661 0.0818775515020977 0.008428847493643548 -0.26423304321629976
P 2.3835135883205303 0.3693513951248057 1.9414937340500376 -1.0788667681547612 -0.503245621302914 -0.7337838433699299
P 8.179080810893268 4.718993335347967 10.099393837594198 -3.0865077865488457 -1.7974355943471498 -1.1970238708141836
P 4.1236760596036595 3.4597257609651835 9.662131921262178 -0.16119094182144497 -0.06957250888249954 -1.178039616402197
P 0.02185869031850977 1.6917854648755644 8.36481568294412 -0.12236059921780862 -0.07571667410702444 0.3493329583104371
Ni 2.920669014528445 1.2989077824705773 3.87539980917714 0.33215721786209895 0.3331882302297746 -0.39034411061547614
Ni 8.033736472815635 7.668451120560668 10.733663136250794 1.4615330505100055 0.7169955681679975 1.0089440750216947
Ni 5.64559479281616 6.691413665998086 4.714739015401812 0.6770311119599179 1.0656312433010937 1.5745916556005977
Ni 9.145934608815608 2.712070998594295 12.508855345935133 -0.20470840548810548 0.9286611217002264 0.9959319790327428
Ni 8.66028177397679 2.5982514773838603 4.722775571393406 -3.424691927331315 -1.1325758276424431 0.5408426057200815
Ni 7.395773975548708 4.790798316867783 5.355483005042518 -0.2924889527381995 -0.9430297317170726 0.8188148528993446
Ni 5.493146009395698 4.859700307013833 10.930587973453239 0.07985203643163667 1.55421746281962 -1.7297392194414407
Ni 8.957138147459709 7.9682475843486475 2.8220183188509034 -2.9303320385538045 0.8202922087758195 -1.4791939581248783
Ni 0.35015177070680364 6.13906622742522 9.978078477315782 1.3672049319493809 0.8012855857663297 -0.9429574837182405
Ni 4.783693871524956 6.890115542009522 0.10204617536423778 -0.44975510558394155 0.05771406688201673 1.5081566639058157
Ni 8.557128195513423 -0.2898270534759605 6.9076874508169945 -0.8718315143056921 0.6352391156247963 -0.870319705646856
Ni 9.11346376920041 0.10713522126451203 0.5828065886386409 1.1029502914665263 0.5553667674781855 1.2239584904214984
Ni 3.6642707186554477 9.003530361043037 9.212340768358844 0.4947067305939673 -1.183440475702794 0.300511823042676
Ni 1.3291063125440106 1.0862010598956013 5.605335960049038 -0.40129983829603144 -0.298240510509996 0.35913888865726534
Ni 3.7585669272723385 5.130949143170969 12.443019582460547 -0.19951092044756608 -0.8255706835659394 1.581936011780811
Ni 2.620343890969524 4.844146580068763 10.45614550817823 0.3948689950690232 0.3709777902737224 0.04694320151875786
Ni 6.246718051308003 7.728115476814476 12.26181356244743 0.6988962874641255 0.5790638539848092 -1.7741110606885961
Ni 0.6834624815526307 3.484888111115437 10.299767020460434 0.011573820880528454 -0.013929979817530849 -0.806323148190237
Ni 4.742727376643397 7.6901725448333895 7.257815107218456 0.4622707215524491 -0.1842750773344181 0.05938888348127837
Ni 1.6261945543475174 8.257591424244502 3.4541284597061797 3.570973299030779 0.061879768223932145 1.3900507261993027
Ni 8.378589588660354 6.804797274765814 4.7231280112407 0.1792683681484461 0.18234366463966015 0.7457680123149995
Ni 4.490482468041686 5.557243687939156 8.653260801229374 -1.364084126932212 -0.5226440804341838 0.8863816442057251
Ni 6.3272598311475905 6.986711884366651 9.379849862938164 -1.5927261604177794 0.2562286848545845 1.7806663453086107
Ni 7.139327612977937 6.401244374880937 2.5968036915901065 -0.37893998254359257 0.46733476633891774 0.5114057885162031
P 2.807823340264481 6.190170005282903 0.6649816489284527 0.4487492900272465 0.02911748619124663 -0.8757735296725757
P 0.22607439499353837 8.344421472938446 12.341739500027533 0.3004948537618115 -0.9346679900159386 -1.2419119895761257
P 3.999793453279688 6.945216729714151 10.254129770128944 -0.22324991593571872 0.1654656579373989 0.42840749314610094
P 8.232688766613308 2.488568487012724 0.9053465522564954 -0.10170641330256679 -0.5387109040890593 0.9117314358244233
P 0.08774453735034518 7.081824269472013 7.8118718790507 0.27026459412236037 -0.5003796126090285 0.02939593666361389
P 2.3889114828238287 6.336247047253597 4.540604979166639 -0.122629279498163 1.385699905429775 0.16102510566754202
P 6.332054868017359 2.7157437927924155 5.32777752315205 0.3846881978812794 0.8383367249823562 -0.6054410584267572
P 6.03963181682409 4.9187989045654055 13.050817866165486 0.19259491005402316 0.07214155516125641 1.1496860049601683
Ni 4.066757024265618 8.70051556496529 11.75551146245029 0.5972940038395907 0.6139987181887813 -0.06666099166265939
Ni 5.234297491023631 2.7792757126336376 0.43752160885107805 0.385705069181568 2.203740084946624 0.11569270027932979
Ni 0.40832382244930415 1.0434259921134532 2.7534808257048193 1.6835799472765585 1.4076393858153433 0.6068855041827678
Ni 0.30565902240573656 1.1787257945431973 10.552103748917098 -0.6151348886757535 -0.939603222534027 -1.5450627929035456
Ni 5.3059262526198 1.751950656701843 3.8114644384580942 -0.15776880351377345 -0.05755311582412023 -0.25169634420186976
Ni 7.05073536504752 3.462675126003068 2.684739288436617 1.012546190550656 -0.32727726406197827 -0.07217523661266924
Ni 7.491980779127247 9.16033826889056 8.962393211077524 -0.17707521715186922 -0.3938603512988507 0.696836062500987
Ni 8.895099459603076 5.100092107067065 12.048883318811404 -0.7169590585031071 0.06551607942493878 -0.020610220051183858
Ni 6.158589540018763 8.781873521293349 4.973482729292974 1.4627522676290874 1.8856324031990557 0.5016643928587231
Ni 1.1690986218723667 6.3056126047374566 1.995018217174664 -0.8746337596411776 -0.24255915778729192 0.3058180657469378
Ni 4.765969857099178 3.260708544037747 7.125531447902927 -0.1280594493747988 -0.0018424525253774723 -0.1353256440189089
Ni 2.890322088729835 5.907086610042937 6.789236128034485 1.5745042380931142 -0.309207551044461 -3.1187681892444483
Ni 3.2001816376313506 4.303800645769552 4.688187310274593 -0.6341039735790885 1.2544247773311556 -0.34440775309467786
Ni 0.4597169719710822 3.667915688655097 2.052221059337105 -1.9757102311237589 -0.32691345296465635 -1.362254529922641
Ni 8.688560434355752 4.8702085793029 7.782754782824491 0.9378823831881783 0.19374496449806633 1.1239826866567932
Ni 1.691460849226741 6.249695240544359 12.084693062243078 -0.43101022087627067 1.032554258241467 1.1436629386945398
Ni 2.6675059073772043 1.3494179774275548 10.525294206217385 0.5302337198559836 1.1586702107366496 -0.8274918118480523
Ni 1.3450959519317867 4.4724152885014385 0.12561419894212525 0.6780564679006387 0.44686441429970786 -1.2475650740968451
Ni 1.2410519991173594 9.124370855000887 8.616446604232912 -1.4288635853014422 -0.11007098321717816 -0.00992317265098291
Ni 1.2455131456054802 3.2136578244239487 3.9693760395116193 3.403451787005616 -0.4598947651211047 1.43382478596146
Ni 0.8532689274523405 5.111323808516366 5.899481329127637 0.037393095936477536 1.2519963703953212 -1.3796570416698046
Ni 7.17031449534137 6.560194746010699 7.439943963147517 0.09378073069758688 1.0374882052079746 -2.3360379978828028
Ni 4.455832066212956 0.8566282356810252 1.7047821479811855 0.37877646038253476 -0.498659030373496 -0.5767753150609486
Ni 7.957989729845817 0.8178162612343739 12.233048906068513 -2.381986696698775 -1.20878178268106 -0.7527141046155295
P 8.593846862761803 9.158770839043383 4.661880458093915 0.5283251899793611 0.22325840057615096 0.17215746813527769
P 3.126262017027768 2.591119207842562 5.805899274938158 -1.9329409584770323 -1.050731443371126 0.7726959470540952
P 5.277916559492721 0.9227784125983314 13.132454991951533 0.30041309268128263 -1.9812357889276782 -0.46620065273447453
P 6.215350904898804 0.29260854584973894 10.757513111706515 0.8970877177693194 -0.5340232688054029 0.443939527343429
P 5.641625207167688 8.59701882138745 2.817687946095594 0.20733195915388164 -0.6677036639114049 0.09894119185260379
P 5.255026518884234 5.378176421315145 6.659042993497381 0.4319990671521011 1.2824518586717009 -1.3990297897694615
P 2.8108561778977776 9.055431765923544 7.235674465022112 0.9613609259260928 -0.7129663924039463 -1.9815034407667682
P 6.270322246343903 9.349487170093754 7.24873328883765 -0.11427216578271933 -0.2237790489663114 -0.4193286707732843
