# total energy = -381171.141223487 ev
CRYSTAL
PRIMVEC
9.26366623803366 0.00000000000000 0.00000000000000

0.00000000000000 9.26366623803366 0.00000000000000

0.00000000000000 0.00000000000000 13.55831192509313

PRIMCOORD
 96 1
Ni 3.0083199971557826 4.938784647856922 5.755937269950357 0.6794878010305265 -0.20603072384395488 -2.6250006826352985
Ni 5.235759256991563 8.238141244151237 7.79331759704636 0.31583199833951414 -0.008745093182481713 0.8643596314086791
Ni 8.725595356468437 0.5852098756322623 1.953711820880919 0.9912741685457572 -2.9673888341967865 0.5590933244001534
Ni 1.9858150558910914 2.5802737757981062 5.192616511041665 0.3068076833537168 -0.6047548309930101 -3.2963643118967942
Ni 5.007687796610539 1.2155782709666132 9.086861661351916 -0.26316295008057256 0.09507245292581692 0.020492206416080835
Ni 7.190170484666097 7.404050008519755 1.6850404909055845 0.30745431579878013 -0.46091960684119326 0.7540801317251206
Ni 6.754555848071568 4.796448417606944 2.8455508984995332 -2.9326840837257495 0.06265547004769209 -1.237367821848869
Ni 1.4695602055428336 4.201897061038524 9.415353115430031 -0.14916589233611086 -1.0945708091535793 -0.4093093388640692
Ni 4.637808134949551 5.8938408359520675 7.060924741039369 0.5391647037970262 -0.7838637907454564 0.8441389334864301
Ni 2.439966288432916 4.319471511694736 11.585455840055323 -1.1258043132465643 0.003067068961097944 1.3844619192576157
Ni 0.6281034289629795 4.753631752705195 5.112934160366872 -0.14055192541485473 -0.1022633142473013 0.380058669529068
Ni 1.3686974086042227 3.24572923300651 7.070130972449876 -0.8066458216369784 0.7938381283493489 2.535138056045195
Ni 7.541087421737323 7.079423355955489 8.84976739014997 -1.4478079876144292 -0.12674612988001396 1.0847054863237255
Ni 3.7736748300241763 4.931086541294102 9.922880665907252 1.0634972276772263 0.7991361435234946 -1.1332720823785194
Ni 8.682565627245454 6.663975720548999 6.826840234966497 0.15875919245150075 0.4031111804731573 -1.136631228658739
Ni 6.569347370922997 0.00015840869100387962 6.034695805986166 -0.5912526827415172 1.5316226082382396 -1.589919801317236
Ni 4.746961913083979 7.625099609966223 2.769162707504329 1.8169947474259998 0.6188961554903986 -0.7091609026149271
Ni 8.115240185464192 5.2912578808397654 10.442530649896032 -0.8577884059490647 0.4227402675579945 0.055810936322032906
Ni 3.3112511436188163 8.426202930471105 12.486825377399363 0.20136365738558867 0.6623143745750335 1.465051090965593
Ni 2.8832697679241237 1.0859981089922115 10.817933309310032 -0.10279681815326812 0.5670208067773461 0.6366452519437036
Ni 3.4759683912644292 8.17229510522401 6.171553504080606 0.5471747185856963 -0.8620590082999605 0.7260499650607818
Ni 1.2596825854619038 7.5078586512910706 0.9761514086304686 -1.9238965888865767 0.11755057942367497 -0.8810530329039601
Ni 8.964764688885873 5.773616976779649 2.0867195393273343 0.10529747308793477 -0.47886744956886557 -0.4707545906537441
Ni 1.2265001333463543 8.29978167865064 7.498030827882531 0.07215646755959186 -0.01549321053959267 -0.13045931706554306
P 7.876413608693956 8.724242861211913 7.531805228264464 1.1074947163040991 0.6912097174531451 0.5931434720063269
Ni 2.33196120489992 0.4686933356493035 0.9231261836418014 -1.6963498453477173 -0.06378187034265145 0.4356700882457852
P 4.5989748464882485 1.2288531045460611 5.237535101790712 0.48654270672593625 -1.8566516996959896 0.02988290360236144
Ni 8.188867803949503 3.3512145993492686 6.363715289034294 0.4536791232286961 -0.8828767163762601 -0.6694602415911954
P 5.580071200104558 6.347556676185285 10.475110963712444 0.9136438223557877 -0.18146974667513907 -0.18973250090456356
P 1.5254386397027986 1.242257629451477 3.234077393734891 1.4210659436338946 -0.7147803056842336 -0.683293547929862
P 3.8187147747996657 6.593516275883764 4.240958235686884 -2.3517276407039174 -1.6388522653518809 1.7154713966685164
Ni 8.381190776694039 0.882184484766904 11.777400855221321 -1.0922339334902866 0.00446754885305037 -0.666963957531903
Ni 1.2389134459747284 4.923323589068298 0.4881748255429385 0.5846333776527867 -0.16925726376934722 -0.5232464899048731
Ni 5.958955145254188 4.838107124241123 5.122845356770676 -0.3964851905162075 -0.175143290236479 0.8568805494228146
Ni 8.622852035303291 6.126608975066365 12.944147562861106 0.3468919529691123 0.7377281727296585 1.4509375343823463
Ni 5.64697339697181 5.9041142417019685 0.7581532588107085 -0.9315171030917827 -0.25434766578178775 0.8445958185181905
Ni 3.270000038294823 6.725708791709809 1.0728816841037676 0.6074208078609474 0.2510746514574708 -0.8082051957042984
Ni 5.968339239054593 7.651751177452664 12.546278660322976 0.1344535258266007 0.8071052777719003 -0.29021841153646794
Ni 2.242066588671753 2.4705085956984005 13.09882021731049 -0.9252862916907226 0.24865344361048788 -0.5633873237898168
Ni 1.5351376981519835 6.965350571100415 12.024066346279714 -0.07497851038941926 -1.3477761338008079 -0.15188200571569327
Ni 5.09972231971718 2.967559866137241 2.6857656267071635 -0.9912849671790347 -0.7847461933504097 0.26505168246285316
Ni 4.162202251626148 6.2041829153275625 12.130255751249157 -1.2022637790568844 -1.0723796177685208 -0.1302590281292789
Ni 4.285649866615487 1.6120261271187788 0.3865570398138708 0.12747940850161268 1.440381356133055 1.7012645090405154
Ni 6.85368633944189 2.5865915961059804 4.476791721927099 -1.2523902633996302 0.5123308714336339 0.1985380150113355
Ni 4.300267931785319 3.2308054668540387 5.001905416205591 -0.3636496320434253 0.4367265545347576 -1.4464221630104959
Ni 6.939440096905218 4.897894825512412 7.478236226073344 -0.4521336331184471 0.6565026529892629 0.73461996611798
Ni 4.158107711192013 5.127050134831884 2.5007359383151058 0.6592953852430516 -0.190999026321813 1.916534492094551
Ni 1.7172150561450394 8.32395984727755 9.998346195754854 -0.34505644242227024 0.13614634014799135 0.7916902287684107
Ni 7.655956881880487 4.384947103976341 0.7586877723470198 0.41869078007896926 -0.4667493261490929 -0.41066482445069924
Ni 5.96958057031743 0.5712930699892724 3.2323015489357423 0.6707172539267481 -0.07848343821888419 1.0556468783948723
Ni 0.1074205461995256 1.0978185469875887 6.57092775236658 -0.4650667962403474 0.41328992077837207 0.7161285921820119
Ni 0.5828217025012215 6.308436214073625 9.144512234844575 -0.2818358438997275 2.0383415328017347 1.3053760715680423
Ni 0.03982264800511566 7.786259609813854 2.9390212898579633 -1.503616867053933 -0.420673614836953 -0.5201503674780525
Ni 3.6870224969452123 0.685577992798966 2.8307994365372773 0.09574351085091252 0.9798209324034931 1.012100104152173
Ni 2.1278085304938674 8.122715964039637 3.3473034795047165 2.5034594939949915 -0.19559384478134703 -1.7963194784648353
Ni 1.9379126382781637 0.16186125937447296 5.231352531008491 -0.24687115489908454 2.327266936558392 0.1834564380878647
P 7.099701521137214 8.104003358435671 3.889079730070266 0.10315677259584814 -0.2646428770602087 0.25675550389233204
Ni 3.2457755513372124 1.7750018055299632 7.1433861915563375 0.7496344372489413 -0.3897144474512772 -0.14613816125338056
P 7.93981413976007 8.201707245220344 13.322735997060853 1.0140978513084922 0.9293134105722448 -0.16180235015319877
Ni 8.41602216138261 7.68774978407495 11.263093227495812 0.8518990370478231 0.40467055454047723 -1.1520629898327772
P 9.130908541117137 4.735669504058614 7.819281800505171 -1.1575839196510063 -0.7838581343185016 0.5662080810680636
P 3.465380020865749 3.898067338959855 7.988666083152407 0.0021748961641317385 0.35468496665096977 -0.44025282252046116
P 8.534087586344274 4.230984972719938 3.5338385136446187 1.6642910171399596 -2.459027746044178 1.282175979302495
Ni 4.645858260825713 3.35043645139346 11.387884074075536 -0.2246977041258388 -0.518091685176811 2.1970423612114742
Ni 6.558842373519582 8.915963695657311 10.347473392527721 -0.5034824199040683 0.08834850393842203 -0.045983665818965964
Ni 7.833782217115018 6.028182522322726 4.421107824756086 0.809250092029045 2.543508025276445 1.475006659516408
Ni 6.502713820373821 5.211071586726924 12.391469829981325 -0.23364540023742986 -0.7315444125164499 -2.18085392437707
Ni 9.032759998357715 8.770941002226566 4.864071327699935 -2.751038216484062 0.6514766605295812 1.3694140237855577
Ni 1.8780230366793285 5.298011093456246 3.0698048020640254 -0.04499841908756121 0.6006747473863655 0.12264213501396942
Ni 5.72601099648322 2.6638598353845393 6.7567300305147615 -0.27298250727415563 0.26001026338420385 0.33266578206740127
Ni 7.258110212141093 2.5634694854190982 12.9264669296652 -2.546722418448685 0.4029468869811512 -0.9340776647301074
Ni 5.0270395951782065 1.0009576538217078 12.037516263149218 0.33442287396782405 -1.6499812853855067 -1.547240774391471
Ni 8.926968931032317 1.7834595327163107 3.8944758155971524 -0.17752438887414587 0.9267675042219393 1.7235914546724898
Ni 7.381863528113072 1.8057942317812437 8.10407376229834 -0.4295467489568667 -0.32463725533596993 -0.43942981239853357
Ni 2.392517790460877 2.9679859947797076 2.110676306333483 3.2295781075101795 -0.3968230334716005 -0.0013858246039330972
Ni 0.31835144512063895 3.17967929342419 2.0125824192042905 -1.9587401789283232 0.9121006462383839 -0.23193638796612315
Ni 5.829078545963289 3.6639096499244705 9.505013360904842 1.1243943202729152 -0.2670625422452949 -1.2382191141055707
Ni 1.35502423738073 1.2718643064367636 8.946465242791778 0.6341620805105337 1.1109299672378932 -1.204448702523345
Ni 5.562433179772898 7.2069562477128235 5.357349506919717 0.9178079810358065 0.03572624975701589 -0.6390440911931833
Ni 8.62124015739483 0.38626338159721446 9.436083347519418 0.15075843363421135 -1.4867242050636524 -0.011512885735605978
Ni 1.0933256689094086 0.09584281625703153 12.385205738937067 0.6990718938100412 -0.5276888419469428 0.07330677911395117
Ni 7.256025887259464 2.1786845849379204 2.071913421734849 -0.720025870353889 2.142398705724665 -0.7818619298240793
Ni 3.5865580376506463 4.491960975232295 0.3257883162982948 0.750463618018456 -1.2728115073684596 -0.8666923933069138
Ni 1.6869784498621934 5.695663226206688 7.226159827622241 -0.08949958682372973 1.3588586168672145 0.7510580570693453
Ni 4.2513187198985065 8.21126734867742 10.407264799265466 0.5494000083717893 0.11851808554326686 -0.7160013225755282
Ni 8.39420622762155 2.9375733788401908 9.97353439236393 -1.256190868092643 -0.19128853253777378 -0.37956218950862375
Ni 9.110695221598396 4.043340151376395 12.155148148535503 0.695200583780093 -1.6297330766594318 0.11274235940175421
Ni 9.130056283832204 1.8027464856209936 0.2539550699444127 1.622162977621658 0.3886908912827693 -1.4804301445248245
P 5.600340101620142 3.347036685919868 0.6495015713811001 0.3407387888835229 1.0593765206406336 -0.4316681661752437
Ni 3.2371788691587566 6.886794682228316 8.719526728779744 -0.6217264258503421 0.3015932290323129 -0.6633986087781478
P 4.322306193533754 8.73250605140931 0.9568357383607499 -0.20633771356141237 -0.17897834771185306 -0.6840232270070349
Ni 6.414690464706052 0.15578892621932425 0.8352084337680343 -0.2500148427343888 1.0133242063672612 -0.7329106967363571
P 3.11922460819078 9.203998866966295 8.403224406609402 0.7065777152687831 -0.5092676591272778 0.7821681482105884
P 0.967339809397551 2.4644779490408846 10.781704963767462 2.1390423876579225 -0.38797021106666085 1.6692637877642023
P 6.505715248203368 1.8222094481823474 10.813661832852613 0.4066958125006222 1.1259063860420675 -1.165051174562329
Ni 1.2346892142146253 7.162601814231738 5.191219550187666 1.2276058573660986 -2.311785295983025 0.9143729872123285
