# total energy = -381166.049928803 ev
CRYSTAL
PRIMVEC
9.28333322432139 0.00000000000000 0.00000000000000
0.00000000000000 9.28333322432139 0.00000000000000
0.00000000000000 0.00000000000000 13.58709654750231
PRIMCOORD
 96 1
Ni 1.5879605282866172 0.17815830049080192 1.4900835633461929 1.0461427955591789 0.7593308386010987 1.181826851358771
Ni 7.118654703231545 0.5088872506927361 5.076397564026473 -0.1443533014388159 -0.7553214603313895 0.46827450454436775
Ni 2.873126583736284 1.5638702791217065 10.453395949299273 -1.9043603186258622 -2.7245998197868753 2.1486279744638286
Ni 5.226284402163972 6.330741097211269 4.605291622024046 0.2478993390532827 1.2296758525212501 1.1306948085696462
Ni 3.3513482004920454 2.8426215514604083 3.2410519926488006 -0.21074124194574673 1.0159017372864503 1.0277923180764492
Ni 6.381316695458064 9.044872036459143 1.2746146191487657 0.700533308846916 0.43943238350169483 0.6371041938579931
Ni 4.768569668030672 5.991862308958516 10.229996253710098 2.1886875614888757 1.5464982397984914 -2.1219895459406937
Ni 2.321817286180776 1.965578665196469 5.492474692936475 0.8041148276850086 0.5592784438277658 -0.4440899368783642
Ni 2.084553861072189 7.395762193625603 7.210413951717374 -0.8093092274017545 0.3882949413959313 -1.0170415073178483
Ni 1.2229305909403947 3.541173793911733 11.27169204759967 1.8398531400814118 -1.5958497936484257 0.16452617684226503
Ni 2.1843589742791076 4.905638079945857 5.731974472967539 0.08242313959292256 0.1075710996134599 -0.7153714023010131
Ni 4.81387233312692 0.8227121798139823 9.2122820939892 -0.26487839010978254 -0.16350904843166034 0.3080868071764565
Ni 0.4405804863939262 6.731781083309202 5.405028480967801 0.1763761342023156 -0.6561838361972635 -1.7232716094392257
Ni 7.856958177638225 1.9243420999592695 0.5272376150566199 -0.5950556014273752 -0.6522698458548379 0.46997014707923573
Ni 8.365378476680482 2.2376174557662334 11.917853800200447 0.11776552364795848 -0.22876956020236727 0.10716717930682189
Ni 0.943316600633225 7.410773343105241 3.058170332321734 1.1042939499786144 -3.104867777113272 -0.19005851678541463
Ni 2.9276011818479195 2.2283712560867532 1.0969390519745632 0.6548923710793495 1.270753082177534 1.0961476667223962
Ni 7.031344956258141 0.8161989933730953 10.212332855989066 0.07597738396757882 -0.16344091419788626 0.2238952628292015
Ni 0.9424068339980954 2.7888896199896944 0.23702113011698622 -0.5168632120863486 0.3150241577262381 -0.7986615178799212
Ni 7.624178602374205 1.5805802785424536 2.991023056316064 0.46774845683756866 -0.20039820814852585 -0.32433977870020914
Ni 1.5524239295184945 5.211579602673714 1.6435769763586707 0.28151419889425067 -0.29226552387348376 -1.4753671281796203
Ni 0.7542411005208682 5.105294723024751 9.198164929478573 -0.0791526963717669 -0.9625397767255423 0.6541621777815444
Ni 2.211048556687245 0.48766183809518254 7.311692329873221 -0.2994625558425552 0.44952010675500004 1.2515150598835285
Ni 8.959864556072597 8.290322729282291 1.2080651897890378 -2.527687770414737 -0.018822789133457907 -0.7616201488559076
P 6.494814724856984 3.394107232343135 2.155239943621853 1.0033917777448977 -0.48971930468170494 -1.0923254647628287
Ni 5.246419951465972 1.6656248922610455 3.049147860967832 1.0042338140302187 0.18592726822586042 -1.8735147939999155
P 9.332256176496962 4.392009831084134 5.726376623161588 -1.6650736609422547 -0.3912504244798294 0.6998265125878786
Ni 5.233887451900412 2.060333645245117 0.2106230443654103 1.375541219729218 -0.4553418556430997 0.6064317044748007
P 3.4101395484540404 4.978372994091164 8.64435563034306 -0.39825925169749476 1.211576828927694 -0.7132085903217394
P 5.804942398771436 8.051128370907309 9.820481512905943 -0.2158070865044283 -0.2510458551020644 0.20886536507927253
P 8.431958541039148 0.45450455757791436 8.385167757661153 2.0481333220811755 1.7981912415662513 0.9471388687894396
Ni 4.399018747507836 8.175274383270448 7.984552019881846 -1.2862717466384235 -2.069371919744978 3.394129481163425
Ni 8.074336703436122 3.927889597172881 7.860366089186757 1.0863826169158324 0.14887047258287908 -1.3259906624946
Ni 4.930173929095321 5.1571235712281025 12.268264344720118 -0.48947504988138285 0.055471293594427054 0.883884074594852
Ni 2.5242496458301167 7.080593037884288 9.417570006872886 2.318922164138123 -1.7855622399483315 -0.953163734827281
Ni 9.062213302524674 8.604340751730177 6.654470414322513 -1.5705048871257339 0.47782872389170605 0.6518862372631741
Ni 3.2044951555827117 5.586811922999604 3.3349120593951382 -0.529180853111437 -0.133390374669409 -0.34343819009255694
Ni 4.834629865740692 0.940299517404479 11.520389753978554 1.248404796389321 -0.6818555299317547 2.0365235057563895
Ni 3.6178726912529626 2.9958522461486603 12.49830812174564 -0.8207961449954316 1.0070306600490657 -0.9924167667906327
Ni 4.154068722665706 0.337759218291563 1.4650826192128514 -0.13300265231268704 -1.659643233955303 -2.1762969011340068
Ni 6.647200636241187 4.41819811350965 0.04264299018844568 2.391947407455913 -0.9381101829282682 -0.28107993957030947
Ni 7.439449558777845 8.982497321954698 12.438388848822743 -0.16764595341816935 -0.05462951441942204 0.7272475849133089
Ni 7.925459891930277 7.561423271216288 9.297622846030858 -1.4984553774576517 -0.8769868332543863 0.3204630693536223
Ni 4.305674834076941 1.822206870166458 7.26728921974579 -0.2891920271544826 1.5276641378111238 -0.27213661433409264
Ni 0.3428436997819759 4.950736511715851 3.67707621920067 0.6100443615267235 -0.011147789086703382 0.11462826357055741
Ni 5.366564847301144 2.154782275304385 5.183477096981222 -0.639945262851214 -0.6793705587263719 1.166540871733978
Ni 8.768999229355618 3.65769818987241 1.9053595406173007 -0.11336302370488863 -1.5000286354820422 0.6707157112648513
Ni 5.221243552338714 8.782608595550515 4.002935132904757 1.2080423334118742 -1.160090488122944 -0.11137993183658881
Ni 2.3888429505239954 0.8007236772428812 12.97082605869912 1.6215700812326654 -0.792834369675183 -2.158134371292367
Ni 1.4029715513659342 8.925098473944432 5.223029665610131 1.02307434377549 0.9858105743280249 -1.0070237180705301
Ni 6.410466361114256 3.4026943153787963 11.029692265988603 0.012763213202939308 -0.15681132469651057 1.4531854498762586
Ni 4.257930652398661 9.086628468344989 6.189316017113776 -0.3222895810393998 1.1828871743024854 -3.5753804269595393
Ni -0.0030774248933209407 0.2965152263879543 10.92436542630643 0.8557474642596359 -0.6866763483591657 1.2600889175954686
Ni 1.56121524588041 7.540740005266608 13.63016735917636 -0.1817757079513321 -0.7656608945841846 -0.8057004270045737
Ni 5.48569785983806 6.747200699441347 2.2610012432889666 0.1887631950127588 0.07360039909497001 1.1385667551185554
Ni 6.600802537849578 9.08894930159787 7.987609021442542 -1.8739781067895789 -0.5342775509080541 -2.084441412483591
P 3.993012178248737 3.6906540220633284 5.618603625230877 -0.2681706877078091 0.34354386243248575 -0.04235712480997222
Ni 7.2804353476234125 6.324372730765362 11.18684052720772 -0.707583273715162 0.8277980302345613 2.0057353167309393
P 4.852221781797534 8.56109898656249 13.094903374397976 0.8540996442435679 0.15158478619024862 0.7373803024719365
Ni 7.3515456784917035 5.485335809850611 3.4572506068209337 -0.3337926965829929 0.7698209394991451 0.21716077231884534
P 9.640091499159169 0.6868329628575741 13.295095665791635 -2.3871217039324955 0.05745052880798494 -0.23392950713675195
P 2.0356214127684344 8.59261590213662 10.657555008888757 -0.16028257107456267 2.563826425118823 1.9917310320320472
P 2.7983307696624165 5.094860256719795 13.07713136168071 -0.5660841538956897 -0.6073956110499669 -0.13294351693997752
Ni 0.05051618491552107 -0.019210929334052353 3.296474419060914 -0.043684328261827984 3.7753366624746403 1.2127952747158275
Ni 7.03371220617608 5.005257526492545 9.457217265498512 0.04294667876485507 0.6015913456633639 -0.7149800803998654
Ni 1.2783056723541484 2.004707913840052 3.3160121217169714 -1.477465405469546 0.24778723895545066 -0.6458379741865651
Ni 3.388537232536219 7.362518578111327 11.831045353209664 0.1475280996223717 -0.008001273037921704 0.7443194527939311
Ni 8.96834023911212 1.9027676340404827 5.461102597357323 1.5575722382244659 0.5070451975546622 -0.7738894531415639
Ni 7.249753932020319 1.9144924836340402 6.956851778840451 0.28151317045298613 -0.5280148578277939 -0.8680417082459566
Ni 7.6246891856898396 8.029321821663233 3.629425799185807 -1.3637308573578513 -1.7596617180324856 -0.7962732201534028
Ni 5.265849967459097 4.348573115923203 7.756628556116156 -0.5758880273599888 0.9757066531248035 -1.6988852101750613
Ni 7.0439053058227366 5.2414440849717945 5.839761395897767 1.1417803769598465 0.08742470657257202 1.1046281933895814
Ni 6.147952270214318 6.649549319493102 7.522930859217296 0.8478405507077333 0.17656793849814753 0.7153595752264712
Ni 8.294518795803501 5.7222186183057255 1.4368900651901475 0.8747774843078935 1.9278123790012154 -1.13542512416578
Ni 3.731157203992617 6.584092538428831 0.760400591974016 -0.013147850235867679 0.9447351444439537 -0.5314467663274782
Ni 0.7950886941048847 1.6856583248999188 9.219048715421302 -0.9510808841563233 0.08184592693321388 -0.5302902841255318
Ni -0.06486914608464175 6.352844713111714 7.52942547899216 -1.4359696002186044 -0.5544910497414515 0.4825029894389238
Ni 2.7019697730027743 5.2156828358648095 10.663492628682928 -0.5201439397201494 -1.4726016496193413 2.2906063479125645
Ni 0.42187457037570086 6.906001393936514 11.101214776842605 0.4279359528263211 0.6331318394738064 -0.008819398063842875
Ni 7.088038270959531 3.4178075815215614 4.48942077270738 1.8872290582622144 -1.2791952994076163 -0.13632554603833297
Ni 2.68034889041893 2.9681600637752776 8.877387712264994 0.8507358699776573 2.1065819531363723 -1.4798205359652836
Ni 1.050910430236814 3.185287939581864 7.265699913134217 -0.23919924017612354 -0.1937321089822599 -0.5712361304102742
Ni 3.2101022887216737 0.2073386011459323 3.43847320913852 -2.1844398419561153 1.733373730870234 2.576687597352208
Ni 6.246439150133599 2.6932527233049517 8.703065284974555 -0.18562053561871902 -0.9560168880053601 2.2325894050781487
Ni 3.9247332639489616 6.170761419423638 6.746482169466255 1.251149963234626 -1.682548934908883 1.047287193576267
Ni 5.197673169822448 4.4233410799980355 3.472033386308488 -0.6450507023985794 -1.163629354514138 0.3495702711322238
Ni 3.059517343941707 7.211506600012831 5.019399756002303 -0.8518319312553136 1.2575036733667955 -1.2887546609612772
Ni 4.692409204004111 4.350903232509096 1.0661564480416434 -1.8220477364688752 -0.1217803012343064 0.7014329378430502
P 8.654517166657477 3.751144219966433 10.48456473988547 -1.4520274250124152 1.3061546016052794 -1.5184377341168493
Ni 6.541231389914615 6.9103367104528965 0.2252043755266145 -1.2798144210488538 0.047680079684782405 -1.3453135311929283
P 4.5093790103488605 2.9402079480775716 10.241178956655782 -0.03230025479460243 -0.5318164909620712 0.25232060804942996
Ni 9.177957898512384 4.983246743922216 12.447152315185626 -0.6247420727482144 -0.6355000825956668 0.9977572051669397
P 8.542532320539436 6.93888295946334 13.086982834672542 0.5780253854179658 0.36739007292246406 -0.2963036984985994
P 6.855889962340295 7.469963874386733 5.615655238666416 0.36124153682256493 0.688246521059763 -0.03308084171436883
P 3.0160342121157178 7.653012634708006 2.5754611523882014 0.5459598723419888 -1.206585803471006 -0.9535002922310933
Ni 0.6887527561243577 8.226731898153337 9.038543588345185 0.23258019219770915 1.377536652892692 -1.736442599603545
