# total energy = -381167.5454831952 ev
CRYSTAL
PRIMVEC
9.24218647751071 0.00000000000000 0.00000000000000

0.00000000000000 9.24218647751071 0.00000000000000

0.00000000000000 0.00000000000000 13.52687412436119

PRIMCOORD
 96 1
Ni 2.371591217696101 6.469437994096349 13.57665246300292 0.32246827270910916 0.3714012509643862 -1.412709087028767
Ni 3.38769566482669 4.89782269670625 11.91164302452803 -2.4072197602339513 -1.452124612711912 -0.04593558618984992
Ni 4.606952609204714 2.93743483224853 5.590548590213737 -0.7071973511306531 -0.30634874143942725 -0.08362153077639793
Ni 2.809532215925012 8.773006720561792 12.341270676172432 0.23824227557949296 1.1724940039936194 -0.4701724928980289
Ni 6.889079463434404 6.8645044900400665 12.215429991614343 -0.7020263484526749 0.7916056394744044 1.0249828736521123
Ni 8.48825496039649 7.6037130353675915 6.710492697394999 -0.17167847161633012 0.7940304468658131 1.6624624485716528
Ni 3.1633970453053766 4.845927820583946 1.6179898156303278 0.6015499509024672 -0.586983365942202 -0.6868043892965978
Ni 0.734968230249179 7.728519519277758 5.06616634765993 1.7350200082244056 -1.0753199313437674 -0.3548477174810792
Ni 0.47112229551373624 1.9101196131257145 2.4675722467286443 -0.18489805563039768 -0.8191213283961699 0.03907922538964882
Ni 2.9514644710648534 1.885285858514739 1.5179181949376366 0.17726933544054632 -0.54405905577485 0.19670301868512574
Ni 7.067592291983342 4.539521617897799 9.299522983934233 -0.6331449520999289 -0.4968116927521122 -0.10721551604625407
Ni 5.174764809440856 8.769143486684833 11.00375995797698 0.681408157981691 -0.9766772445681889 -0.14907924615957552
Ni 3.4327143543354595 5.640062679142967 3.939972674096852 0.426448312537201 0.20571036439005863 -0.865315310453729
Ni 3.45969229617001 2.4521830823063384 7.672401888231095 -2.4953774883178057 0.45890926127938386 0.03929134140045491
Ni 2.2590860837625666 5.752318274046172 9.799516945257135 -0.0009207120420564787 -0.010272328460285534 -0.7189210673254844
Ni 6.592516189166823 2.380972036799242 13.196885482274315 -0.1309966776262518 0.4913265012678248 0.9988391253772088
Ni 8.070822373586171 3.3625846446264585 1.4591166329869814 -0.0582236595285836 0.7866930326641355 -0.43560992443181107
Ni 5.545173152313459 2.998608863424581 7.685157953774105 2.012973743460907 1.3853890590575753 -0.13103190173956142
Ni 2.8616119357734857 8.588504955284936 9.739349388170083 0.16284261849225504 -0.15910526293700986 1.1859421590787256
Ni 4.120859820308447 3.165374873175398 13.381081331184358 -0.10296316852780334 -0.9080226195142684 -0.7108097510722597
Ni 1.907337715046852 6.794836889646493 2.2592986540476625 -0.7260116556236788 -0.8155878613216146 1.0270598107857989
Ni 6.753912488672395 6.901371571224726 1.0020572481602792 1.8681252475532277 -1.1442375802510876 -0.3529762114899792
Ni 8.65575110286568 3.504507657579992 4.20320585188004 -0.16647764414168104 0.36080702038830764 -0.839139937609942
Ni 1.0251155787813895 5.941542796526677 6.495659000872234 -1.4517741713510286 -0.7186369604261623 0.4186077334468597
P 6.328198902929646 6.715252423343882 10.246539315752791 0.05606393287310344 -0.6787025861250697 -1.8099039020174892
Ni 2.7779886340540556 4.706222932344456 5.915396651459893 0.8829913875772536 -0.24388250458440583 0.1846509726165981
P 5.359922769945616 6.72447612527978 4.110316334167695 0.017730841620859784 0.21264874338110476 0.3298051726901546
Ni 8.299095133220145 8.355564891565162 10.827370059623107 0.3932044628824067 0.35759905497397126 1.5033379023609337
P 1.7108118653826214 3.784693777708886 7.50869966324155 -0.27162445058436446 0.21329203339205843 0.20072370980874463
P 0.7223702060920443 5.064117354955332 4.460012937522919 2.260892622898216 1.393662097699645 0.17076778687660266
P 6.562044700907655 3.162047686104333 3.7385299813164923 -0.27833014473931417 0.2507599484305294 -1.1469431521077087
Ni 4.631379707618115 6.776250852980072 1.8488124944668214 -0.8958633584439152 0.0408435163789232 1.9719024273418941
Ni 1.8470971446879612 0.6154723065918848 8.17016386156049 1.764090957448433 2.053788206374108 -0.12064567340923095
Ni 7.045216958930431 8.699753151880513 8.933309669427066 -1.3306176197436503 -0.5503094075599361 0.0991633351657389
Ni 6.980697256310698 2.5719895434235984 5.721840316256587 0.5007233691016925 0.4300604553684916 1.6900012774218702
Ni 9.059588433616177 2.0451294707204797 12.926402733550729 -0.6833390564558166 0.282112751710198 -0.4513700154795453
Ni 2.0925603708557707 2.916584459936524 12.360708842416498 -0.14894683434676928 -1.946438221632519 -0.37242532135352635
Ni 3.4389251035347796 8.148650824490163 3.337688043148585 1.3319515080637254 0.876718410084348 1.0608819015415665
Ni 2.824255018714474 8.629715864034598 1.0971806023033923 1.759754277746292 -0.20724582719797857 0.7425281652214631
Ni 7.438019119228562 1.7515236960716232 8.506563731473657 -0.9655708502423823 1.0260305981903362 -0.41497605023154344
Ni 0.0712803619044102 7.1627128734705625 9.185261834602082 0.3362992650549305 -0.7884439539169711 -0.829838457703358
Ni 0.6975198155457133 3.84653324629915 10.727852970108925 -0.8214558900666175 0.2922927775669934 0.16967044004736584
Ni 4.895632298551131 7.797595619747588 13.3528778754453 -0.279167553038945 1.911588203832869 -0.3456439394946241
Ni 0.022301395562443024 7.843991395016325 13.359803045646268 -0.72904530024368 -0.8190200269316151 0.16096494185356794
Ni 1.8015608927459152 0.4690603637483069 5.806532014713281 -0.5253625078066113 -1.5542647711177877 -0.21043039557354726
Ni 4.859633982879472 0.596167227830662 2.34631753501684 -0.09143665594544254 0.23439359125736406 -0.547313815266722
Ni 2.071654545425913 2.618283654642943 5.289535203238607 -0.7741151959991248 1.0315952367623071 0.711082288007356
Ni 1.2969929734189303 8.866796427220587 3.2281478025828214 -1.0382446237580247 1.84833083853512 -1.0231558477457023
Ni 0.24968320843627673 5.4944612760386455 1.0767174775977129 -0.8687765295294522 0.3194197156907725 -0.6481478532666644
Ni 4.101996518052771 0.5503379985826361 6.2876968698698485 0.6098255606476981 0.45010169029008296 0.22766141473985307
Ni 9.133886369350318 2.339530073391868 6.630900837343342 0.7169559731793137 0.395080596859197 0.14170557940332368
Ni 9.23402545800306 4.758746277135739 8.558750660683309 0.47430914077422187 0.7093110550395462 -0.8718988772085177
Ni 4.206923059213325 1.4919291670380965 11.16506845671262 -0.5842063174176971 1.4771728139297915 0.9065424354243162
Ni 6.554336717526355 5.225643045069223 2.797290015940755 -0.28751695344490485 -0.22460514441203255 0.5771972330897157
Ni 8.653126321954064 1.6441572177256223 10.50805437110123 1.6564792344050245 -1.6348169189402426 0.19237353807183644
Ni 3.46715074052098 7.629036625852919 5.600883202943917 -1.3468016857026806 -0.9486023407088437 -0.16739501374962784
P 3.6642496057363387 6.72639850003195 7.540082431070738 0.856099448282416 -1.3763596018654556 -0.22449073032135533
Ni 1.359423941932939 7.332880007782912 11.309494253718498 -0.8750381941684479 -0.5093944145131292 -0.07981886920085607
P 8.73117658532946 8.354437344835524 1.9928464227732188 0.2594093965754113 0.08234189273302593 -0.7652680300211401
Ni 0.6875188457412709 2.464715486940683 8.7984735649349 0.174275542919545 -0.3659194019142085 0.5490351688332028
P 1.1071399822694465 4.872748645251252 12.679158538081268 -0.006165505380763576 0.5019351300216065 -0.6034546241243478
P 7.58283493649666 4.380740857117538 6.830395277249867 -0.2883438202215744 -0.13095913952009705 1.244808080176998
P 6.788432054534692 0.373561776841068 6.71429400862369 0.25108673564232886 -0.11587370594188433 0.12601927901631846
Ni 7.420227910584674 3.369035690669801 11.312903696247709 1.3158337765662564 -0.12382355691658029 0.3720363134452238
Ni 7.915692276397772 8.387847848340801 4.5872473437763315 -0.46701774931913115 0.7033052151650985 1.2555779170989925
Ni 8.514151566432947 5.685783774811184 11.180042646969671 0.9548660622303683 -0.18624737056944052 -0.28069221721358756
Ni 1.050938247327376 0.5275366007409025 0.5605376753927116 -0.5522626746315651 0.861752275692819 0.18396500229316703
Ni 7.100448264310107 6.089048090010552 5.500865186931814 1.3068804240277105 -0.5385432681629434 -2.1143520840000942
Ni 5.926598181265811 0.8592516064142832 4.671843847714048 -0.6395212879399179 -1.0301199377683616 -0.42180207201444125
Ni 1.2716139298157523 3.3995626320468215 0.9810164868103174 -0.1611300066765225 0.48739682719611543 -0.8085456097628525
Ni 1.9188534791872598 7.7872443710820525 7.586452328217812 -1.3837633505286941 -0.6638302969989277 -0.2542803028789621
Ni 7.214589265220249 1.3646919881287918 2.694377347176827 0.6929387843291098 0.4775420458892227 -0.26424229918768044
Ni 4.499697037094414 5.129015987213714 8.70731603293677 0.2317124448807751 -0.1913651514119801 0.7694599566153006
Ni 4.792544952465972 0.8809568809598272 8.863646690126645 0.22049343623650414 0.41521027772953656 -0.12334018952225853
Ni 7.172648223752215 0.11896172528866208 0.521347108570091 -0.0009747052084434827 0.004343364570360261 -0.33357723813807716
Ni 5.00842394026023 7.7984828696332045 8.833792579912885 -1.3727142918033843 -1.5645936638476214 -0.2943396327936931
Ni 5.649110779539002 7.71762298162002 6.315278326470344 0.22734799726449234 1.3811053440805567 -0.03171558593572603
Ni 6.870132981501952 6.309196967879343 7.8097001111558475 -0.2005175073352095 -0.09102476521900453 1.2114333613712944
Ni 6.8095781768085715 0.9498102447396216 11.59397799048085 0.16684839721753844 -0.7851655402760155 -0.4936091266544144
Ni 2.8912978381964307 3.3094513155388148 10.054782434223753 0.8098054503118827 -0.13294017450586784 -0.8417830316597439
Ni 6.696278214852504 8.298965742611827 2.7989804118165824 -1.7236433909563476 -0.7637587924654653 -0.4409269657693503
Ni 8.978109319120323 0.09577585249649431 8.308868745241398 1.7194224108964649 0.361951418405396 -0.6496838302952166
Ni 4.48747886679456 3.0230636883969075 3.335754577772844 -1.8977019327690805 -0.14954538716271665 0.39033151220998585
Ni 4.089621230585672 6.825557916935991 11.354159891710282 0.16508950554490276 0.45396888655497303 -1.0848558958586607
Ni 5.601217770088285 4.635621871133722 11.232215712899862 -0.9649614987931574 1.045668941246554 -0.04430499256496241
Ni 5.650182873150789 3.2276672088947786 1.5185808596959571 0.7184970924141884 0.7522232810220401 0.16275211566097778
Ni 2.1543628707008002 3.5847298347378884 3.1405882537145957 -1.3391559962319646 0.3085892007341718 1.5057650237451874
Ni 9.02917239847486 1.2844328422256606 4.542202776145899 0.10561423299740522 -1.4674537868698148 0.4283894954239719
P 3.2264472403020554 1.2879263886502788 4.131188887726842 1.0330751637419433 -1.1551683682309783 -0.6012383331993194
Ni 4.918968818980129 5.323721126175167 0.09024532820947986 1.576123518864092 0.3665400662173429 -0.3769124105906025
P 7.120106394588315 4.8142363637320535 13.35937051132703 0.05747392584675263 -0.3484215022397612 0.11702221772403072
Ni 8.710742111401336 6.364788718525052 3.225889012249021 -0.01735648900057656 0.30199972044211215 0.0403488361306918
P 4.7501048329372795 1.0359936320665097 0.06825909120015715 -0.014403062799207453 -0.552984383288938 -0.08956617839560704
P 1.4010322646938667 0.8578310823786646 11.125813194585838 0.4119915136819227 0.1061845036785784 0.26231294337545147
P 5.489692307903453 2.8535065383809197 9.795458701249068 -0.1395121712964307 0.15576411437891885 1.020709957308371
Ni 5.075318884761251 5.208212281691366 6.22992396325533 -0.3389906958441646 0.46014030547300755 0.2731812535485231
