# total energy = -381174.04563503375 ev
CRYSTAL
PRIMVEC
9.22558042357751 0.00000000000000 0.00000000000000
0.00000000000000 9.22558042357751 0.00000000000000
0.00000000000000 0.00000000000000 13.50256948586157
PRIMCOORD
 96 1
Ni 2.360327791475188 1.5867444406673683 1.227058442444783 0.5679579738796348 -0.6834064193586424 0.5190777032391641
Ni 4.042833754603382 1.978250387552731 3.861181157936146 1.2757363943247386 -1.5592750798481856 1.844623821997178
Ni 1.6209252153029519 4.156825023536519 7.492926749124749 0.17733515568147523 0.9209814936677816 0.3840945301613385
Ni 6.202551304661358 7.484722440654188 7.03506766177744 0.29153018836935596 1.4563124255410145 0.44195849235765816
Ni 5.325438492865543 0.5570728219184276 12.54556114528744 -0.05037459579781002 -0.10778244429331761 -1.0731522342684872
Ni 8.760186579842681 5.025302692266503 2.3325283506629333 0.14518171087738221 -0.21000950598604476 -0.5519839670488816
Ni 3.003812010323223 6.260718587813141 13.344791609047194 -0.15459709065401117 -0.14061106078756427 0.49678829571334443
Ni 7.340517396570839 1.5799175113204498 -0.2890457306423785 1.3499772552171847 -1.1495924168050975 -0.2638250091446037
Ni 4.051634958112787 3.1493824402759563 2.1368630202321377 0.10532806921555407 0.8779826215087524 -2.580804447734059
Ni 0.023212482337541803 8.892158504582769 10.658252837099818 0.45989193690762725 -1.1776421238534622 -0.5433882549600707
Ni 6.0946489186592565 5.256403476239883 11.809049865949424 1.1046755016877492 -0.8479320819802751 -0.4859734644860275
Ni 2.6451122266238616 3.2118765205408533 10.58440760295864 -0.1325478241634556 0.06189776594606114 0.9179319082081803
Ni 3.5422906753514973 5.247611498310675 5.83089511613117 -0.9887735136110907 -0.6357679915450728 1.4011231819633805
Ni 6.268523428661104 5.441560870824543 8.07143059384438 0.46784255921327167 -1.2720188362638352 -0.2000829909009522
Ni 5.141139077239347 6.9570192532978075 9.204484986856158 -0.3518863208599101 0.7939435435789617 1.6994793921156341
Ni 7.5317359973459395 7.781518581221358 9.05447151747981 -0.2027440826728831 0.08578974207231031 -0.0013667984405395814
Ni 0.48025326072124014 8.340136687823042 8.169864766888722 -1.754357789321069 -0.47316268587460447 -1.7487481564437755
Ni 8.69796926698374 6.258338388121918 11.493589454082592 -0.48527566708805453 -0.384601294594428 -1.4163168589846833
Ni 3.120939976523863 5.211816247140347 9.059845417945459 -0.09351205041723248 -0.29730951405529443 -1.0905280065427734
Ni 1.668667592830387 3.513064037282528 0.0976481536114269 -0.22109353171434826 0.7635672452799495 -0.30582449350484103
Ni 2.5024386288534695 9.069280418814502 2.798988446429339 -0.12144888603681664 1.3661649207206408 1.493038063096822
Ni 7.276851667620727 4.636047786949582 4.3579537425608885 0.4371937239791632 0.0009721341052821967 0.34295610824981576
Ni 0.06669079669721233 1.9464221358677745 10.137202215624603 0.11189338113789762 0.13622424457377827 0.1702849337029132
Ni 8.303750999520007 6.772959702756772 3.7770327958292405 0.9527667564991785 0.9957535444733496 0.4066405337826545
P 2.756040602931084 6.265995619686705 3.797259880414535 0.24131937184291985 -0.35348014770959124 0.571033527481165
Ni 9.015513737417423 3.706063175035946 11.99341386063701 -0.32765495911637116 -0.144189522167442 1.2658810987972133
P 6.476634066779728 6.832104897409601 5.110114373589683 2.4068639195564288 -1.027800031385933 -1.8706482710853978
Ni 0.4281868537547505 4.230094581473309 9.797721160594836 0.35822357593184756 -0.16050497149801388 -0.10616239219139137
P 4.516069116467595 4.134877368244197 7.563815184812295 -1.8018123832586066 0.6622089593454208 1.5555053283931084
P 7.354614083114205 5.080296375829988 9.953662065248746 0.5818360174133076 -0.3724417764137586 0.35752449298229394
P 6.526784320738981 2.3779578752345945 4.442628885297132 -1.308100669588057 0.2976378439289906 -0.7623182033641968
Ni 2.1657049516068274 7.456815060553611 9.612991832931389 0.23223180771935487 -0.28940697137876603 0.9012601039794542
Ni 3.2405127214771157 8.706373770544609 13.1450882421635 -0.023401409643075827 0.5178623427748242 0.7845572172680553
Ni 5.211336516970024 8.86235988054149 3.9374702482719175 -0.42695044898460016 2.2598623818614887 -1.132739864024133
Ni 0.5243201670975774 1.9491805843471373 7.677939302100292 0.11084231416556395 0.16899141170247026 0.5693965060983742
Ni 4.488678368858134 7.168211235202742 5.006657794685257 -2.3104069275782595 -0.6033700348303416 0.0844972485131319
Ni 1.676970615009071 7.826382577726849 5.031840860953206 0.2957601672903035 -0.7252547228529961 -0.22211374544874649
Ni 0.49465808164323766 5.922822487461484 0.08363357473182761 1.1798514727999552 -0.3789327834547409 1.2863504223951587
Ni 8.419126105482924 1.7676672939408995 3.7493394491892684 0.5465483978556072 0.7006698344247805 -0.22576522615840472
Ni 7.842130643125754 2.226224757709238 6.23598572985888 -0.7295281534173694 -0.5899339639300938 -0.4528720539463685
Ni 1.787871314575698 5.127872692913849 11.747451589521805 -0.5319687002692193 0.042544815340746084 -1.209981459416116
Ni 9.20333732467946 1.4925235900996983 1.2696427980832152 -1.274947836985172 0.3987004529999714 1.4570693583116971
Ni 3.5791468682446568 7.440910160291331 1.8856477037518846 1.5139395891361795 -1.4468929319993273 0.08513385365586629
Ni 7.1792081267993995 8.900055601232717 2.6867011421588716 -0.008851022632726692 -0.33544643013633196 -0.5739740981667276
Ni 6.187670443801116 6.592562707554558 2.8830011925073267 -0.6003898691560949 0.3576458490515066 -1.1909689228693554
Ni 5.424687284641417 2.23668656565438 7.799678213284161 0.13714418528488637 -0.5451692581198934 -0.3578314826997515
Ni 4.864500829405983 4.907104558762832 3.758750463549797 -1.2031130144310571 -0.20208768003580677 -0.21670465861803326
Ni 1.5281066529254599 1.8883932364189697 4.034770597509859 0.265539163622233 -1.2718355166084356 1.3567806512922633
Ni 0.37520157900048645 0.47564416085405054 5.7183384249189055 -0.019194570650579845 -0.21500130277368135 0.19258796807548767
Ni 3.9152901083585925 7.164687063566901 7.284460926168482 -0.5168197604429228 0.41289911309785665 0.7032697339414726
Ni 8.432641580473783 6.815111378683893 6.153458302192858 0.5225263239093968 0.4335610123225824 0.972536482926938
Ni 5.992715483045608 3.3073612755957233 -0.13739656589682847 -1.7444682981214987 1.028799676295041 0.12896447768757144
Ni 1.172414408370822 7.040086377405444 2.36189614010894 -0.7629902897305569 0.24888561422595204 -0.1977355737146982
Ni 5.164433667240656 3.83402197238967 9.877440321648423 0.008213389048727789 2.35882697075286 -1.3265655611614637
Ni 8.017370538996985 4.423093719226727 6.910966079504724 2.168326995554653 3.1883980337274447 -4.562431301452568
Ni 2.538566000910945 3.9828213554118914 4.1580889280237185 0.497833192038091 0.15011591495420598 -0.3328570721426009
P 7.426509029601413 0.19825864102460442 7.2697968664429045 0.1738554246629909 -0.06112900610083666 1.399836087720841
Ni 3.160305527231025 2.536379538403891 6.141265775402469 0.06951671594389963 0.23763780922627462 -0.8406535460409909
P 4.009160386878718 4.361282331896521 12.709414830077634 0.04559002992497309 0.5010763815657371 0.48066285090639155
Ni 7.541441307714801 3.2718981453125426 8.434447026518638 -0.6022840008550144 -2.2969158350703602 4.795399730227632
P 1.586910501110942 0.5613811678711449 9.033812675741222 1.3647199607439982 1.4405667326709835 2.4916380758800316
P 0.6248909845159013 3.3117618773504263 5.877668807737758 -0.10134157376398031 -1.6438376343816141 -1.2625484348795546
P 7.201810798285818 7.528580848918039 1.0865122634681739 -0.6933992689052961 -0.9072170928938376 -0.6262446254356698
Ni 2.721518481828155 0.6714810870765386 11.173956312291962 -0.41708306927221717 -0.49283805281634474 -1.5469073023114521
Ni 1.1020878105173657 3.3267718963334474 2.4351075768904784 -0.8333855516246679 0.04469862845895528 -0.9768345960816595
Ni 5.190034652291599 7.4316292266116015 0.05232472321204874 1.2657797973326588 -0.3922824652887696 0.09262681959880177
Ni 2.479854408527448 5.13853746362336 1.9912104826156374 -0.3901404792451023 -0.40660762366219 -0.4943002391841681
Ni 4.877582702127509 0.3756047368551625 1.4158387223734095 -0.5098870378788315 0.05017584952344262 0.2049881415120534
Ni 7.317195129828934 9.30261379319593 5.124306083609095 -0.7819604030751566 -0.8643963981838855 0.003128775436968805
Ni 4.851455859005249 0.20147191060775524 6.581908084983267 0.2442326888349729 0.17865747403732457 -0.7093233963347204
Ni 4.661925539406482 5.258774450350907 1.2840485415632326 0.7787593796393556 0.484502793477772 -1.3751540115931284
Ni 1.2766911413548985 7.710453936952019 12.367840490900821 1.1720831417084459 -0.2611235510530406 -0.7643437184346578
Ni 6.63621815305404 1.7906943421164507 2.1916288319647195 -0.739280861928759 0.8057647045836058 -0.2577016698556852
Ni 6.571325421937523 7.583399246457752 11.447950508840425 -0.7097301448548358 0.3668377999634198 -0.2302227477091261
Ni 2.5413705772913002 0.32590376865157805 7.054592679709625 -0.605730307532402 -0.9248515181461492 -0.2941617124549321
Ni 6.4708496279952445 4.11163813172408 2.0820012624654907 0.8367004749305138 0.20113585764549877 0.7289005471356994
Ni 9.110325025117799 5.938681259822771 8.4538641051625 -0.5902802915259189 0.8360242747990956 0.0303277044492639
Ni 6.747930703678139 1.1144131856626127 9.330937246963462 1.3244464579359319 -1.4034042646880733 -0.09952226116705441
Ni 8.491805226287008 8.481214260219087 13.070972698522503 -1.4582132421081533 -0.22130744749736725 0.6121796627021715
Ni 3.6159015797556324 2.3280474863605027 12.901785705819533 0.378329088432471 -1.0705448785526273 -0.6546810263994919
Ni 4.682849155296767 1.80117460122199 10.340470346697012 -0.3792634273212823 -1.6759720530223137 0.8097123763774442
Ni 3.937662140340047 9.057776120306926 9.03332648766476 0.2633328999995336 0.8844260631412509 -0.45309908235550994
Ni 0.12350560979188958 8.904917481997348 3.3971114099991815 0.8995711463128055 0.23889302178961438 -0.24824078155310153
Ni 5.487310523029094 3.8179879140046107 5.752864236253915 0.8839606934690581 -0.9581300776936208 -0.17361399807614616
Ni 3.1046291507328476 2.369977748362859 8.428371059399879 -0.351646179824646 -0.4425845559774314 1.1073337652462025
Ni 6.9177090560718355 2.800148101860295 11.018933352867807 0.5554469858968176 -0.06399527190503818 0.3252967432968398
Ni 0.9302706048997914 1.0145462800134373 12.688026244945345 0.39075523001096574 0.7838776747025274 -0.9213741011205099
Ni 4.050426407106779 5.796911768911835 11.098477227897622 -1.115024706132557 0.8040523498781895 -0.17312985935087602
P 4.181005269236888 7.9794165020602 10.919176231622993 -0.11183475998582029 0.9522237395115148 1.2539941175516405
Ni 7.55325005036893 5.460989942722664 0.06729414964219672 -1.0791912413737157 0.8247988383969215 0.7518599841453503
P 1.0842363128331944 8.862230722418712 0.9357589025599019 0.7806740801635652 -0.6490114868185403 0.10825372750278131
Ni 1.7443081248782009 6.6427406382544065 7.175035396875601 -0.44178417156332306 -0.5333475828946169 -0.3768285926275446
P 8.181032331719052 3.4588453024557193 0.6471080267500208 0.43048700138294893 -0.24187935811144798 0.617217482236395
P 7.385630483741691 0.34094976739737387 11.38222009504188 -0.6353879824978348 1.4190483989832334 -0.2694176727410328
P 3.1023135301030145 0.31181815280445 4.954673495382535 0.5025352254994506 0.40361923045782744 -0.09004800312803202
Ni 0.750402235442953 5.260102933899496 5.099677474711077 -0.18102983092424307 0.9670176099912376 -0.3616868518900997
