# total energy = -340856.156754 ev
CRYSTAL
PRIMVEC
9.39311739391179 0.00000000000000 0.00000000000000
0.00000000000000 9.39311739391179 0.00000000000000
0.00000000000000 0.00000000000000 13.74777677684137
PRIMCOORD
 96 1
Ni 0.31553547071650867 6.867439469205039 6.749732439280154 -0.839219898918258 -1.743386635021546 0.791832924993862
Ni 8.995666206562268 1.4542424008052428 7.317391385986418 0.12800777020125695 0.42055971496690797 -0.5713667424508676
Ni 0.2825524790733907 8.784724974196402 5.318093635641285 -0.5832748067423632 -0.0936719730338645 -0.20790068717315807
Ni 4.5840384361411655 2.7171657910201144 4.076325423924627 -0.9486691893910371 2.0818176017074985 0.2124620812915954
Ni 8.505580318033568 6.842153197773908 2.5333030368420886 -0.7936334685377107 -0.2498844878041116 -0.3979388922435986
Ni 1.238228885165673 2.3629419492892882 9.951973830128612 -2.6413081615460703 -0.414963194715737 -0.6304383518020433
Ni 4.809557786360344 6.675331436772092 8.865115967526023 -1.0896047233975559 1.2554331639910121 -1.2450747035748233
Ni 1.2581798660422416 0.2879619752536241 3.28089277887754 0.8369483292752619 -4.96470275963325 -0.6351321577332868
Ni 9.103076501441535 3.9138958845131517 13.515535562732493 1.0171541216363127 0.004515371371850288 -0.5873219802285433
Ni 3.1366342246382497 4.6700699963334875 6.194679055820763 -0.25357530639213743 0.7589099490135961 1.2601786490957974
Ni 7.782977206991411 5.580619988900718 5.246921047505763 -0.6309649137294746 -1.788925242883293 1.8419871557052792
Ni 2.5823745595800216 4.71201026451328 2.5342930713921783 -0.9764543299241055 -0.2755332987204674 -1.4581919019519145
Ni 6.865307231606648 4.605050839258343 3.0499714469718677 -0.7246219743650036 0.5924130215982056 0.5474313146811927
Ni 5.947411821409721 5.795797517111843 13.27558180935276 3.394118168309516 1.3711883420771611 -0.5376526380278741
Ni 0.6240467684106549 5.801367635595745 4.5264830499721045 -0.4269036549070648 -0.6148111867877476 -1.1510440616499595
Ni 7.214928445922448 3.286407477970117 4.960583142211441 -0.5836622719887691 -1.7682399466197998 -0.2990465513510592
Ni 8.951828528713424 8.592767231638232 7.968541054689563 -1.5750544541696292 0.801010220617756 -1.194787268174181
Ni 7.64110356520248 5.1513357478362485 0.9530904809344107 -2.011327723217052 0.8040297241703701 -0.9323941063800975
Ni 6.6708227405288 6.49351826076133 7.332129186831679 1.169844225075598 -1.7297808713126532 -1.1123733845526391
Ni 4.90998899517968 6.575792574084241 5.702192286542509 0.039750026204428315 0.21481721178733323 1.0347813477997727
Ni 1.7400749563956284 2.068148359915359 2.349976629654671 0.38307765886104994 3.7031434281398417 -0.9751484666284884
Ni 6.551370469433074 8.748073030985307 13.591422556377408 -0.49058936599148406 0.8795507373268208 -1.4890554242999903
Ni 1.8390971976389359 0.5941409619535838 0.7311038820841962 0.2465536236586657 -0.8365084135243659 -1.539621567283316
Ni 4.033470266132133 5.117849285112629 4.175199253916592 1.2061327750939872 0.7463251703700501 -1.5813063486166121
P 4.890310414701143 6.245934478301541 2.2049506577423044 0.2102383341673992 -0.7590583016660024 1.7658979287501844
P 7.58965746244308 1.064662866033266 5.226313487738764 0.7681970307424769 0.1906997499138393 0.9572780141059706
P 5.481268988556336 1.6124224940074148 9.71512731990988 0.8114686969469187 0.9619823615601756 0.4159664391692707
P 6.4081911843570225 5.355542115188696 9.13475103186238 2.597928766119171 -1.8669253137078556 -0.15955289199738973
P 7.845131463328632 7.1150138585476554 13.60189869996104 1.056590216144748 -0.6708807760878059 0.31105000356983853
P 2.0277297767176785 3.1659971089226913 4.729550971523121 0.6806597098514405 0.006008925198241265 -1.1717830939695237
P 6.5433017817810155 3.82738527534498 12.716088299405442 0.7268385224003482 -0.4828462317109556 0.9562264329130049
P 5.120883261959679 0.2782466741610465 1.1065993769661886 -1.6039397697454119 2.465564004500799 -0.3593188658785554
Ni 4.048668329718898 6.305975283274717 0.32075898317670626 -3.4716353859603886 -1.2861884428959978 0.5002641700770868
Ni 9.327853795404003 3.7454960798261836 5.81948883724691 -0.08800731854891941 0.5436903595815217 -0.4351185866176894
Ni 5.710169860957984 0.7489085356866141 4.111423745555222 0.7539001545038305 -1.8655639145839549 1.461299851453277
Ni 2.2869610244726393 8.907389691365475 10.666432169269603 0.23577067411054878 0.9931713855684701 0.38949873189604534
Ni 4.723582584871063 7.605240643833959 12.386471606734101 -0.7207362661573522 0.8538101380276069 -1.1738777717150235
Ni 3.253944865018412 2.6605065082294077 10.791413229133667 2.1555812658532103 -0.2534488081166022 0.12891845494098442
Ni 5.659738214853324 3.7622252215122325 1.1163287677345264 1.1418068593224076 3.693501534174703 -1.5586091641294124
Ni 5.410830002872069 5.666210072585884 10.953266031150687 1.326050312087942 0.12896370635662308 1.7476364114368355
Ni 1.7148638299018857 2.860777159486149 6.795017596485439 1.101432312160103 -1.0337181966425812 2.0251728566302605
Ni 2.2072698183724477 7.050680399026178 5.489115998643101 1.5214430966020764 0.568602292331853 0.5029111207816307
Ni 4.091688806373646 2.3460343383769424 1.013164161817694 -2.9160166503723977 -1.48529518592661 -0.5284504027033158
Ni 8.436691196682931 6.143906439562704 11.648078665723249 0.5852399008885341 -0.9434097407643106 1.785861259245989
Ni 6.869740782912553 3.4151025763645917 10.652257955454754 -0.08106842533724103 -0.4808849942195267 -0.9638867776717398
Ni 2.657096806695418 6.79438919694653 9.718605591199236 -0.19952506151495317 -0.3737468683784273 -0.9772346597335556
Ni 4.389441227657235 4.316278237992644 12.661536832108474 -2.881262277610348 -0.24067788160417908 0.48630025169782704
Ni 5.690510066713795 9.309311782103464 10.968526089310798 0.8832397561426336 -0.10434410803572997 0.5934702592181262
Ni 2.5766635443385177 4.37975692385133 8.847230533115912 -0.4643108919109294 0.09548202965940976 -0.646507232339448
Ni 1.3595128141102364 6.293238216387416 11.5625815738981 0.5175697512350699 0.43558472762083045 -0.5095669355352515
Ni 1.5609012463106264 3.9137737739898952 11.675340309695974 -0.182683307367266 0.8078766087202861 1.6709779422418318
Ni 0.037003245793386985 1.632354688649636 4.31726921185445 -1.2576751659476533 1.0305624246224185 1.5189213586214874
Ni 3.548109115541715 8.172199803310795 1.5672744763128637 -0.7114802947767231 0.8891481512072688 0.20002077020444908
Ni 7.743065852121101 9.166132497027412 3.1619477361091843 2.716892938060921 1.2512088414970193 0.9926743913273937
Ni 4.455634524379071 9.231555558141018 8.738581286081459 0.4088126017333088 -0.7696306778652101 -0.5964653372907083
Ni 3.578430097777856 0.9370977596347659 3.067816490978132 0.38901999248741387 -0.8312559068761749 -1.7842388931512172
P 2.3880779308456432 8.05783860172312 13.217263702069209 1.2566708930528552 -1.012102161034702 0.42682600759159395
P 8.175881905242816 0.08991561414357438 11.736930039691062 -1.8602070211474158 0.7048216518096249 -0.6428999746041638
P 4.809783221172508 0.2857358064834985 6.000849265009909 0.47163519348648447 -0.2621334803747937 1.2015847507119886
P 8.204991175363572 1.5661426056934538 1.880200539078567 0.5070755365719654 0.3550955718258272 0.5286396358959864
P 5.401662320510707 4.165894432044498 5.693586312588124 -0.09537841420200992 0.7931698986377307 0.37796322045262004
P 2.5249732205326065 4.164898761624104 0.27276860822544635 1.5869900292649508 -2.1108250446834425 0.22631415668333926
P 7.610463216982439 7.263312392483279 4.314904964261874 -0.7354262640693592 2.646573523710068 0.5007814760331376
P 0.0524765277133358 5.094995831029441 1.8184182501814192 2.8466161482913876 -0.7455522967597676 0.18258560544713714
Ni 8.910423668212523 5.883764059441912 9.26429620736106 -0.21021262313578634 -0.6088261728489063 -0.6534114156584488
Ni 7.552808263771339 3.7115493543610616 7.388178856317825 0.43099736536046424 2.1819942086291 0.807116847736126
Ni 9.131471894657103 2.074911404280298 11.928148543927678 0.1845851523756692 -0.060842328098353285 0.18341530043728413
Ni 4.923355400917607 2.2086412134797824 12.256266095098123 3.282244327555644 -0.03680996973949789 -1.0812180419957573
Ni 0.3839164244280581 3.6361226234576502 3.366432139729968 -0.9923835995598521 1.4128481837097926 -0.37509361221430887
Ni 9.38909691937539 8.103404613131893 9.989890086911267 0.049314529964411845 0.1910602185770516 1.961374274117061
Ni 5.946669765153013 8.3215691526042 2.390133144883211 -1.342374246058946 -2.3684123004484503 0.20629246214577374
Ni 3.730495271700063 2.121379154937729 8.582571942258088 -0.28366286980613725 0.16548699809363757 -0.0009132558428887498
Ni 3.7126577421875377 8.159312446548718 3.9976881255713046 0.8409916461067001 -0.7601299374636263 -0.28008595108815637
Ni 6.0221152822907715 2.11815731574721 2.3954402560862524 1.8225794406026288 -1.315033135041832 -0.5047767132354598
Ni 3.8476368359711013 0.5301719553784394 12.918277025189017 -1.2878316349263754 -2.3064340589734407 0.7817693701102729
Ni 6.388437458941098 1.8695872559842002 7.637660048446666 -0.9826972255100237 -1.9376419634971278 0.3160032338100558
Ni 4.212841231677779 2.416304247952088 6.4037275750761635 0.30510998393631966 -0.20861879628610525 -0.23987286920438045
Ni 6.731145339017182 8.542777062040729 6.028441546707141 -0.05601611035430353 0.24308494838377487 -0.22519598391849602
Ni 1.5107420006039995 5.877790036919548 0.1396784703054786 -1.3225117028070643 1.08175180301204 0.35140166791400773
Ni 7.261856459321382 1.972150702401927 13.66438265471105 0.11756214938790076 -0.19854649965176774 0.18311139604362012
Ni 8.796325473905707 9.27232168667412 0.5875479330094863 -1.563904865310713 1.844417876633959 -0.47250139814152164
Ni 2.9144306447813273 0.5472956079857767 5.321076889655595 -2.041389575599439 0.7878245751654174 0.011317996115980508
Ni 6.996961161910784 7.115568052460893 10.284492056694855 0.08692745522117933 2.5563090336958556 -0.7143807562529697
Ni 5.065238435823712 4.0220576287663 8.188409505617148 0.2551873880742637 0.09998634528766652 -1.0213661028351313
Ni 0.7415696932389385 7.821056904012885 1.3838240799787553 2.724722975628301 -0.7846101819931778 0.5807425272388127
Ni 8.075206475376968 1.2863028588597774 9.797861895974293 -0.5954883180894196 -0.3371891238590516 -0.23564263317311673
Ni 0.4561372844401449 8.36390393170528 12.317925334160298 0.22770898014833685 -0.45957543410847307 0.7571155761173347
Ni 1.9453051735199907 8.750900359254537 7.3067508628522475 0.0455694610996828 -0.03998708191589888 0.4064507863693516
P 1.9061640542579092 1.399283272222944 11.970133899069902 -0.14649554459279931 -0.18923704932538377 0.45829605317541716
P 3.0609069139852862 6.828279563708611 7.406051140363891 0.8217574804674364 -0.6942857852753076 1.107954172439021
P 1.8392850599824067 1.2314470545663876 8.342535529447225 -1.1249627911818756 -1.2505388120131884 -1.1448500170241056
P 3.6338025235157896 4.8628073676170605 10.6633249261086 -3.6647673994648047 -0.091747502317642 -0.5866612067160929
P 6.71949787372201 8.23122615162923 8.391876634648039 -0.21331234510703262 1.9430471936730989 0.6608200494176942
P 1.6275548057739646 7.433496889433216 3.4485063796570836 -0.1286438611233591 0.979406470573894 -0.67539589034934
P 8.98157653080198 4.136606692697445 10.651172111109494 0.5679209499941122 -0.4455852904769681 0.6175177870856333
P 0.47153542142270544 4.811680630841561 7.653359704490496 0.3524365369364253 -0.3835031764342427 -0.6697435771595691
