# total energy = -340867.97649015527 ev
CRYSTAL
PRIMVEC
9.23613375179784 0.00000000000000 0.00000000000000
0.00000000000000 9.23613375179784 0.00000000000000
0.00000000000000 0.00000000000000 13.51801534846385
PRIMCOORD
 96 1
Ni 9.05662008735114 1.9983668058175112 0.981268998217755 0.4461635315779413 -0.29129056155472416 -0.0007592467635277248
Ni 4.094202529300587 7.811857128694285 12.1121011731154 -0.565479173321839 0.08768773042597156 0.03316003169173644
Ni 6.907713540319658 4.0484190151464885 2.352634410690321 -0.02254780339352891 -1.341268414589277 0.24025956311983784
Ni 3.9380841634045347 1.2173224057918506 10.763651531667191 0.14703239093287582 0.03406017490850263 0.9562696274461144
Ni 8.771417518546539 2.745339109068011 3.3926433712476434 -2.7198929012295094 -2.0623628354169967 -1.4046417366396002
Ni 4.4483528352769355 1.9751286937312267 8.657667144606847 -0.0037795216470902647 1.7506754553734754 2.5074881555384105
Ni 8.488754886476327 3.7745030015761625 9.99351685262576 0.23729045318918487 -0.8109765878018486 3.3148852535191167
Ni 5.45643987095643 2.295216139065994 2.1968393094695546 0.8131293724787931 -0.04188224205608271 -0.015447702013637911
Ni 6.4966594153593675 0.911590682879862 6.936580152209353 -0.6383360093825652 -0.642298850685055 1.3562111519420383
Ni 7.066418023617999 3.503108452473069 0.16996425374523685 -0.03967957797780908 -0.8642747850043568 -1.6743823399376905
Ni 1.8589750778341227 9.151641429618108 1.2623217722050408 -0.19111292619185796 0.6357697913172857 -0.3253044566063236
Ni 7.056138206943899 2.154956214526123 10.816196819214918 -2.7491651678310656 -0.7367462684323633 -0.5526521967604998
Ni 6.137216804841906 8.068954143016152 0.6592225689507533 -0.6697518046896853 -1.4676062532872791 -0.16191573580261148
Ni 4.741498478959998 4.025384097998955 0.5366147429082218 1.371122264725916 3.1453328271068535 -0.7722709437015345
Ni 1.9525832916634127 5.768334865806088 11.213423528593184 0.6776224656870137 0.7794324944469803 0.31406487913676234
Ni 2.833802796493462 7.917564677512857 8.09319529920918 -0.2712385279998554 0.22523815001034114 -2.7734075853181976
Ni 0.9718536836467063 3.153446907416408 4.956961773945081 0.6868599251248816 -0.5180271504874627 -0.18477541400960437
Ni 1.7470054304485794 2.3106312460103537 2.4753512231090915 0.1374923126529245 0.44518728370760097 0.5099214906611927
Ni 4.788824427421889 4.9727989721940276 6.606984107354382 -1.7643755785683872 0.19108515827771605 2.6058019982196607
Ni 2.277547415528211 8.45970724636847 10.04994131627692 -0.43917861561967586 0.7413858240869038 2.0395093278575906
Ni 2.3231000263428196 4.9064465885581505 6.6401168893444975 -0.8440234909544884 -0.19938725038550822 -1.567444245922539
Ni 6.705359089724106 6.990118324116888 5.510753878084651 -0.8967002525229137 -0.4066837283157641 0.49241073547093905
Ni 2.8858853537488507 8.727130258032336 3.461855261839766 -1.3585912221384409 -1.0810740602187254 0.9867138028685845
Ni 9.033381975264856 8.139148758221143 13.2605506544175 0.16806530034377506 -0.9310198517403901 0.37073173570118734
P 5.9506838510682165 7.421990694165607 10.539915431834856 -1.3809245955283185 0.13953428278361776 -0.041360051004025546
P 2.6028532763354555 6.40137022521859 0.16335302932895604 1.9869284684370812 1.5580813166504006 -0.8213561312639597
P 8.935682154259801 8.304614091299756 1.956165064265583 -1.4432697334244433 1.7111321458632143 -0.10395330035521451
P 9.1751935702461 3.4132870534114166 6.8733560470168875 5.039362196120353e-05 0.6953635917205185 0.22543766761565692
P 6.922749965787253 1.4385555134241133 3.761563178431137 1.5273679467269436 -1.9024947261720333 -0.9377571704642236
P 2.169078262769338 1.1680753415454004 4.974250892392742 0.15351208511994852 0.04677068049663558 -0.9981492983990359
P 6.9447781443746095 5.288397656609108 8.49614009888658 1.5997918090153092 0.31192392153435955 -0.32092046860601503
P 8.399210571422064 7.687049255633092 6.607835678870423 1.1353634176899092 -0.4014852148339602 1.1372588349404091
Ni 5.349439263436713 -0.02229510284780689 4.96221990479195 0.4480823458672089 -0.5933244776688814 -0.7800906968562695
Ni 7.986632484421138 6.0370694084382555 1.8627147883205044 -0.05734305669584317 1.1204985847629347 -0.9941399201293266
Ni 7.915135574381421 2.0207921381487903 5.698343445539846 0.9985529615953578 1.4431717743939982 -0.9767476927948082
Ni 2.1645433211817524 2.3860996934893013 12.398344654174423 0.9430914381929435 -0.337366015756548 1.917632096034104
Ni 8.855281611449344 2.371488130166367 12.063706603998348 0.5255208877613465 -0.3601315915878378 1.0214185533396216
Ni 7.282848341788867 3.0606145288078053 8.234525691630928 -0.7523397519952462 -1.3027630594252273 -0.3688085505365455
Ni 1.7413344444307024 4.5525826027227705 13.547619845818542 -0.9232201531903133 -1.4607938583511357 0.529492470814585
Ni 0.15735416056900306 7.309466878765287 3.796710361154963 0.16514889802792848 -1.5906068000819313 1.0888544754950924
Ni 1.209610234252881 3.357094416713104 8.668089197738073 1.4811888770677202 -0.4059684474162944 -0.1703129587273712
Ni 6.985823522002371 0.6848417562738598 1.5977079492010653 1.7270824985448836 0.5333110732297267 1.6196726070996363
Ni 3.111505624831425 5.632231201377039 2.4336343785700927 -0.6130731210507183 0.42954057830927966 -0.18917894239393868
Ni 7.543325781000868 5.2271528548427515 4.105799418623138 -0.22137815283430262 0.7218860634910792 0.2730133605120911
Ni 6.793767360348079 8.059533286764955 8.097939901029024 1.7429495474841274 -1.0031413522969885 0.4345202909120581
Ni 0.5265436628530212 0.39499710673214855 3.4396183466335106 0.24942323189697688 1.2746058802647209 0.22860089583498694
Ni 2.9862728896255697 3.7229561400683906 10.31336692932753 0.49131081753854094 -0.27579169458817665 -0.440764472049557
Ni 8.73892480061349 0.09448749374606821 10.929044822903881 -0.8196674307076269 0.21753821026292214 -0.18952629843102844
Ni 4.41344948647961 5.444192757829874 11.615233207453647 -0.8841789801274514 0.8066501925123527 1.1553444887975264
Ni 5.687629530587505 6.008326560738527 2.502197892584927 -1.4015445857715152 0.2593037242354825 0.1259673427324605
Ni 3.833254047276026 1.587857612738417 3.7116686612207563 -0.5456112307533184 0.6411421113727925 0.291602179257872
Ni 6.167575975918065 9.222011531361115 11.780450088538968 -0.6543167010815376 -1.3889443805090014 -1.7593475292261767
Ni 0.9391670069084866 6.809810524375852 1.4255962943985705 2.29515925739057 -2.147050859784696 -0.25260728605191335
Ni -0.046385710063488864 8.042224772436777 8.777895742639272 0.6524369675603215 0.6507914615370985 -0.22099660112516778
Ni 0.1374946261461378 1.3819103061804 7.666553351606591 -0.19640065695335854 -0.4505760588233402 1.0562168919657293
Ni 9.232272875768055 5.188148662736083 8.664993245762188 0.2832157549663897 3.681374669004182 -2.770037383294384
P 4.876429154424437 7.994067571952719 3.103385216188237 -0.22690216797632537 -2.0421439372669603 1.0167435164614556
P 0.9992850003781312 3.8927809281965753 11.430711883573597 0.05742558910732045 -0.26579036040109066 -0.8575855459096392
P 5.436508294691643 4.930321993861427 4.755502304693393 1.1403523862640683 1.460190420439182 -3.739924601523933
P 1.7446502163857802 6.007495308716362 4.707567695028605 2.1844514119203415 0.5312534193697496 -1.0388997408435205
P 3.6285720910184143 0.5825174031854973 12.837653035368081 0.08215574486414884 0.05403816069232629 1.2800944141831179
P 6.333891033285999 5.581875801101035 0.10801381137339876 -1.1679423800671949 -0.30476057101670095 1.3048140284169851
P 5.053116389802268 7.856578487486729 6.8616095323303465 -1.0036727993204264 0.6814127859673813 -0.40978833538301684
P 4.978322180074631 3.456844659372831 11.191024057435929 -0.5845814413689288 -2.5653703725671755 -0.34558428990128226
Ni 5.670145529721315 2.7893215771740874 4.627081256175859 -0.7781500281901308 0.8474713402937727 1.873072564256174
Ni 5.779519823570988 1.504972549995048 13.342402193813312 -1.9803006787079183 1.3818859310003233 0.3191554062857923
Ni 7.179034200354114 6.944639602370915 12.391247609131856 -0.31284823312084187 1.077978452012537 -1.1653548218456768
Ni 1.5787138404946088 9.120053852775863 12.308652560982887 1.15837864763816 0.5424276908190142 -0.5561491541701648
Ni 8.568582789004846 5.021741244032352 12.428706596090656 1.6730397098668672 -0.02872847828294407 0.5193211867085378
Ni 0.06464924060379847 5.206990375238476 5.608502650597678 -1.7550764126546483 0.13438642003409113 0.7285207951987775
Ni 7.033130998197105 4.401756541367831 6.299138233466023 0.6542459957446022 0.05046124197434535 0.4772358275027136
Ni 1.0829274260750281 6.775119606650858 7.025610014623233 -0.4191736332526587 0.8597889813188612 0.24978601455303434
Ni 3.2108679498808086 4.086471885494458 4.594245877687007 0.7003368765653938 0.2901191669544423 -0.9522944448484502
Ni 6.988474292339718 8.031279954144946 3.0815666978331375 0.6011180055713713 -0.048895697259438375 0.6162124380106485
Ni 3.1415415312322983 7.648017355125683 5.7499013904079135 0.10781252620030465 -0.4419698052115678 -0.7629046719952861
Ni 4.068433716613491 6.637205660040205 9.533350510969282 -0.2052326534226917 0.03326416136976852 1.2342153922628163
Ni 2.3506237044100406 2.5450350801271324 6.612688343453147 1.0291454896702341 -1.002897868827615 1.513922362744999
Ni 4.356324000289757 0.12994778139824312 1.7625055098218714 -0.07124886814365794 1.7217916824595898 -2.8413104198077583
Ni 1.4361171741590975 1.7291981649071022 10.417469238129968 -0.7987671902198502 -1.1357318567729215 -1.9606556507834816
Ni 3.5231878068751286 2.350577523742143 0.8836753927488659 -2.268552967656951 -3.727421069740284 -1.5775777348121152
Ni 8.093115868460396 8.979378302224909 5.005477336412026 -0.9950968847259571 0.9638898629955335 -0.2234581752917829
Ni 7.861778430692047 6.48071784880097 10.19523308639096 0.7449565721572976 0.035028966579675164 -0.8794640911502855
Ni 1.0194474799824076 9.044566933029756 6.128851638658858 0.35920008091250394 -0.5383002989142021 -0.0009412808673467659
Ni 6.581714969493944 4.753523924880642 11.239580258890623 0.9586131879776265 -0.3426239217213777 -0.41245071270652833
Ni 4.052824650863959 0.7583623031808683 6.878574462489364 -1.1915667043543545 -1.417781102235036 -1.7900135908514656
Ni 4.846984360572658 8.792208055234227 8.971500803894864 -0.13662302267409374 0.8367282428446557 1.1221512898750095
Ni 5.107120062842214 4.573576334349211 9.063490847121008 -0.7123475278730248 -1.6914251543525902 0.7106328591747633
Ni 0.5073251161005805 4.672135115777169 3.1547935356923147 1.3702809997715433 2.1359442083485733 -1.1258719332597062
P 3.7724618160550696 3.5948047866513804 2.5000218595135726 -0.722331121448298 0.6475207612056267 1.42457215701494
P 7.750261353851903 0.5162656934056375 13.086939051521677 0.3405665249717167 1.614177131202704 -0.6824682238150892
P 0.561167156802884 7.370831750268177 11.002582918464691 -0.523206380695557 0.958644298325878 -0.08953223983387806
P 3.0277154209972545 5.089340505701475 8.476606599979073 0.32477352380351804 -0.03594067976066714 2.0755304831472063
P 8.855891196265599 4.172977512601032 1.1024073554077716 1.551551743061999 0.06135089230365563 0.6171058963591953
P 5.274404914236007 2.735927488950394 6.966225370159809 0.9380366493778555 0.9188708750826821 -1.490349974741698
P 2.4668973900436795 1.0838695117001476 8.472389381386625 -0.725274520347338 -0.6129422518998089 0.6512393477077946
P 7.519145583289464 0.9384558246228571 9.023910320278972 0.5786177675863261 -0.8990394421790517 0.10485061535850329
