# total energy = -381170.02875544666 ev
CRYSTAL
PRIMVEC
9.21564168360308 0.00000000000000 0.00000000000000

0.00000000000000 9.21564168360308 0.00000000000000

0.00000000000000 0.00000000000000 13.48802313528708

PRIMCOORD
 96 1
Ni 4.788327635090852 4.620464721135769 10.009192335939224 -0.39412157538003734 -0.7179918706429956 -0.10285441086408094
Ni -0.038191462421776345 5.9123871027737165 9.839378470631722 1.1430980673300057 -0.6891934583540646 0.021750761413530283
Ni 5.3358012628333515 1.2544700136822267 12.95009345145361 0.7934812592305625 1.0061585418567576 -0.4178312602921514
Ni 3.9513999165212748 4.5487946754685336 2.453700549322281 0.479796132030722 -0.3193256133150694 -0.19970323896403025
Ni 8.046462471837268 5.523579178548354 11.962689970164693 0.39021632678836016 0.19181020936919868 -0.35345160846450097
Ni 2.875565901966434 4.466296250778668 0.29300026976146726 1.8568895267384085 0.024340890738209692 -0.17150852169736916
Ni 1.4517216090868164 8.924851362511369 6.71695501700281 -0.9137746915066972 0.31418186433060086 0.30306338581993614
Ni 1.0230652500581727 1.0476894447377216 3.252852430911716 0.9444443526764121 -0.24998296105518883 -0.3554197879344653
Ni 6.537871137687765 0.2502166530699233 4.782030587102627 0.27097498992582364 -1.3898571221312581 -1.102767743142075
Ni 7.524543818588177 0.041418780152606444 12.825639896262953 0.058046767631087126 -0.14893140772780156 -0.031145572364868944
Ni 7.423015093743644 6.903040940897767 8.779570457030376 -1.3092101006021517 -1.0109847596008072 0.08986905434800652
Ni 7.520083447995025 4.234790115095678 5.193172619039773 -1.3510545474417635 1.1826483188188022 0.5484800676606812
Ni 5.27763213228795 7.975188698764052 12.837036880379793 -0.2708559478494561 -0.28533511530223765 -0.5057799576889934
Ni 5.3394875195219065 0.08245695430211956 8.089010168100744 -2.396875183774833 -0.23967592270222593 -0.6867102869208948
Ni 6.617475850877115 3.741863870702075 11.943873472897963 -1.5179001164458246 -1.242934003082737 -0.3522581023770321
Ni 5.188885502510983 4.055057454603447 5.4964639959115145 -1.4098034833461979 -0.6544709672712148 -1.0861257637100197
Ni 1.3783190227759605 6.505754626288728 5.261017251828459 -1.124841949333295 0.7597226747228787 0.4187270326335434
Ni 6.387895784313897 1.9527207556283561 6.127798120190301 0.7479997298589957 1.6701500470238977 2.1385063126487944
Ni 2.6988375406753753 8.374014025540562 4.7036782796232135 -0.3566652303057922 0.9890650767095803 0.8109521623218163
Ni 8.45101071212276 3.3151612277183653 6.9916917280008315 -0.38169594802217494 0.01523969976788988 2.0155343050992323
Ni 3.5503996982985164 5.914230231117993 4.7514392644084795 -0.6004369203439466 -1.6447115523461353 -0.5268408921243507
Ni 4.3992801041807335 1.4093388728101528 4.93302887670757 -0.8510577720934503 0.31862550192425126 0.5452736449082415
Ni 3.206720771582792 1.0556609748267223 7.227516313394463 0.10546716589657965 -1.825923160263881 -1.3409475409147489
Ni 7.336360414637433 9.578185066707453 8.759999198706662 1.3559733248996197 -0.5652783701649426 3.2613276320076348
P -0.21759604606872604 3.848885118012554 10.76147346373368 -1.047636092275254 -0.5925891421647536 -1.2536609025819379
Ni 2.432293535167669 4.928055194870537 10.789892659674095 -0.06912847936654547 -0.6480609499798129 0.1750836406431372
P 6.524941592352659 7.312298374102888 2.5761045457941014 1.5569731711878863 -1.5737385635716832 1.540654893643837
Ni 5.12552796567644 6.343043256055901 6.440382550173889 0.8276954432184263 1.318792087863632 -0.33989675259820173
P 5.115547425692177 3.2706588938457823 0.5878510403805893 -0.12858446864033338 0.9976492188341657 -0.21246388106380829
P 3.641422591580666 0.20612165056142578 0.09481328672215665 -1.1273929978899229 -0.9908121413076743 0.8390538056540389
P 1.3040962443519013 5.394173137496622 12.546532206396478 0.43306838895688 -0.3779634775629362 0.2990131270099624
Ni 2.8108813127240113 4.079967334176359 6.555597424538855 -0.12304888353408487 1.254813271018826 0.1553257412899196
Ni 1.6993274708570705 8.589337494360795 1.0230615638014842 0.6551754495374071 0.9310478767648481 0.30051825080057926
Ni 1.6366703227933532 7.912817235593698 11.152666396036537 2.329678117103046 0.4565790704843104 -1.265034434526202
Ni 3.81015177585756 3.091801719317083 11.887453471151282 0.837816590812828 0.7076663203472716 0.3857945435715808
Ni 2.949023782127618 8.79040436543804 9.006573830168294 -0.3012121915438103 -0.34639187340424216 0.7754256872804323
Ni 5.861166566086241 -0.015312710284258381 10.62562200286201 -0.1716756434028527 0.5987469342360334 0.10598267208041748
Ni 8.792376512766417 2.108031965558909 4.723586830433929 -0.6965956643554068 1.1476589472278105 1.3508270048119897
Ni 5.0732015519823985 5.423543387662687 12.510141480367063 0.14232650081677423 0.05986813711054205 0.4803394061287018
Ni 0.8443546042328436 5.797053346630544 7.36032016154887 -1.5318627492735035 -0.14179916755839453 -0.2957676234894713
Ni 0.724691339608964 7.724136186989999 3.1755120008933115 -0.09941170373111913 1.6653179157425773 0.8421704969061496
Ni 3.2139274034089174 0.2544549266975897 2.757586335085052 0.3948965058728489 -0.10309917988503535 -1.0469431799732873
Ni 8.650391120764992 8.056258698987103 10.714588886476118 -2.208960709915615 0.9010317900187321 -0.043437502358344544
Ni 1.1786160666734817 3.902990150558823 8.773015371073953 0.21741042643580624 1.1163375114067096 0.7043051171845224
Ni 7.173372575152964 4.620860993729789 9.708935669886335 0.16131769720729636 0.14919134625740757 0.029844851275574406
Ni 0.9863224865149985 6.162711578851779 1.232337728524141 1.78332820841149 0.7956283874805523 -0.31122535280543817
Ni 1.8376634687368265 1.763578924938588 1.1109797073876984 0.95724484687519 0.0974401818270451 -0.6451383770163792
Ni 5.1283018738345785 6.2961632866192 1.317027632815353 -0.2799031456533889 -0.0638453765907352 -0.08511816992658244
Ni 8.722816849053379 8.253455000541365 1.223042832283949 -1.6116080849239471 0.9094624372845885 0.41961843409956123
Ni 6.391222630975317 2.676415884367238 3.822802087248509 1.326438034444664 -0.1743652744198739 0.27796633364199225
Ni 1.329337887026783 3.1705954560349507 12.03820938937895 0.2068557908484115 -0.7047751148424056 0.042034451363230835
Ni 2.677383526747984 1.9881364667636505 9.384898961935578 1.6319318840829635 1.3527653594852833 -0.08231078238477438
Ni 2.806513098548073 3.582304249937962 4.2482421873163885 1.7299677905124788 -1.1300695162808216 2.3620051113705256
Ni 2.0708560668548297 6.521181610530332 9.161847255967789 0.8750101691439898 1.2414322217262297 0.11337845032385635
Ni 3.06256970377684 7.113904039124847 2.4598243432461433 0.4718563083583551 -0.7694874674191264 -0.14716685962821105
Ni 8.517483135859132 3.8731683339484113 3.1699015182133303 0.5213155914307473 -1.4950067567874188 -1.0244295722518035
P 4.971451651736554 2.1015349381453303 10.354984409301663 0.1851929611629972 0.18696985055776186 -0.6728286438427961
Ni 6.68237239987913 1.8632645214388424 1.4576509529703574 0.01599457565604342 0.6845060801807242 0.055920465316703694
P 8.863926755091272 1.9890027370854608 1.5478582619601644 0.4537979081947475 0.15443176872074046 0.8023091419348376
Ni 5.772622680427145 8.915202585629077 1.5932591209005826 -0.8803842889717096 0.6908204524345264 -0.5654177239562843
P 1.3886405415039154 0.717427570804166 10.524907019181477 -0.874472808583281 -0.40530098903562456 0.2554812651655987
P 6.278542979647906 7.090791209687605 10.774691458654667 0.27108734713397187 -0.7886162178287773 1.414864442808873
P 7.854122813470178 5.827944177680637 6.7428242448789195 -0.03384085980884494 0.2128757717902463 0.011509286191180178
Ni 2.94366027864577 7.280098921928359 6.988414645804706 0.9396117071744592 -0.18793684245672151 -0.01850320101051007
Ni 7.261372737950498 8.126887377139822 6.788036183164049 -0.727431933009973 -0.04449294020605241 -0.9871609177083321
Ni 6.548782457485889 2.590351006331195 8.748048354522368 -0.344198208187033 -0.7768451933357783 0.6802041103712608
Ni 0.7667165089868379 0.8921699613042655 12.720244288152127 -0.0271135683873404 -1.4097150373974496 -0.6405417587846323
Ni 8.040334070092545 6.862058982162754 4.751089070023066 -0.41002770508733255 -0.07982478273812703 0.17082717935962835
Ni 8.984789896267277 9.156071813300995 5.224976720184455 0.03973948468146704 -1.3752026054428765 0.66527859940968
Ni 8.454309911859017 6.013215438847422 2.5112678984632755 -2.461404730916787 0.8241794596453675 0.3036765939239028
Ni 0.3990391296644467 1.7988564014480615 8.913870003836163 -1.7609385278623804 -1.410291992946842 -0.5909117544623307
Ni 1.3218179233821306 2.3449845454992384 6.86625394227433 -0.09886097343397167 -0.6492685971346689 -1.1372351807913252
Ni 0.5585019861904849 4.205115748752809 5.212352212590325 1.596146241842922 0.7754794233365031 -0.07033946895551113
Ni 3.841521820277165 6.790038742110107 11.029062523012591 0.08070075758517714 0.7987767033015468 -0.0388622242828363
Ni 4.4497633895304975 2.7084125924238975 7.530916434838517 0.6327713708105941 -0.15473721577630126 0.7592405928801376
Ni 4.621552166858892 2.0027709058172145 2.7805563220756113 -0.9242156843343632 1.1464502716316902 -2.3898871824927745
Ni 8.442458596605313 1.473894443068476 10.917988236473045 -0.5493838104218731 0.25741987694920826 -0.03467646833626286
Ni 0.6932005702828089 3.9950083331468833 0.7207221627195621 -3.8612158789369624 -1.0061847671090025 -2.4133911791519855
Ni 3.4125152668631085 0.7207774565698906 11.363754355921618 0.1470537310891145 -0.8279348129227418 0.6878770535354862
Ni 4.829844101045705 7.616893764278206 4.176916806649533 2.1483520950946224 0.5103593495295597 -1.35629008480909
Ni 7.281177152009762 6.771930006127579 0.1687946153331156 -0.7129375960485399 0.27005247811155425 0.682551784667831
Ni 5.079247012951629 6.892184914949971 9.01128117995958 -1.0310820445713147 0.3535894195939459 -1.3043268043679215
Ni 1.7054005787514652 3.635561443445863 2.4695763353157165 0.00922846057680346 0.43462056393534826 1.5779847404425469
Ni 8.155861354711865 2.518551941679861 13.067452805647143 0.5373546471714811 -0.27264466431876266 0.2299062449099718
Ni 6.085512148151712 5.102663958565676 3.563954064142334 0.06316557691489122 1.3761793675338494 -0.8315644392555291
Ni 5.659555972147435 4.490026528211241 7.650730835986627 1.7841255075018048 1.8158179535090793 1.4202118231637153
Ni 7.260635486612787 4.386765262723089 1.2290735482264254 -1.3267331970875798 -0.2840858162761688 -1.2968058134005278
Ni 8.025284927161518 0.5287124243260979 3.2119432757463025 -0.690281806322237 -0.4041123680441621 -3.064429209482251
P 1.5345610125203735 5.7709546492755734 3.3011940011254293 0.6844605716547696 -2.0309511538749345 0.3605571091610307
Ni -0.09129014689207 8.211422458650114 8.298519488558952 2.5969118948188825 -0.07048062251906571 0.16914593500246353
P 2.218536725440073 1.5332708226793792 4.987102576071987 -0.32518310053711097 -0.1588178136035781 0.4585251384670877
Ni 9.622604459804544 7.225146050343722 12.765429501076264 -1.939104664085583 1.154414263673773 0.9228583989755202
P 8.195304301279405 1.0824508453107973 7.139439660770641 1.7429336066445273 0.8962824482592049 -2.3236895036197787
P 4.970511656280971 8.778433246841956 5.993457102996766 -0.8235348840828334 -0.9665026180280323 1.4450527934667954
P 3.532982135445093 5.451881485955955 8.058460315794342 1.1864988029131436 -0.789797125510756 0.3391724728376675
Ni 2.811296016601474 7.030548559754893 13.329633204799773 1.7558387447419697 -0.5262518523901002 -1.0431806276070617
