# total energy = -340855.1880334964 ev
CRYSTAL
PRIMVEC
9.42431411925450 0.00000000000000 0.00000000000000
0.00000000000000 9.42431411925450 0.00000000000000
0.00000000000000 0.00000000000000 13.79343633780201
PRIMCOORD
 96 1
Ni 4.486162086739194 7.0671801918000945 0.7043675951969146 -0.19937439486970177 -2.690735562939263 0.7194206326697223
Ni 8.833532296978644 2.668711349498336 2.02424186861319 0.2520472997833853 0.3897807819128384 -0.27153908995940973
Ni 3.0715536636819136 5.06097928802587 7.205250165825479 0.23985435726161916 2.5937070147283396 -0.07621418256873326
Ni 3.476752056437159 6.012816182350657 3.407434339995866 -0.30882728488690686 1.3626245116675502 1.6103557005740845
Ni 8.518204165261055 6.881869899981362 8.097395338321375 0.09219564559865412 -0.4301609855020979 0.05535893638627886
Ni 7.707835652693426 0.7278200012992854 2.5329305414131817 -0.9765615449259312 2.113870516377985 -1.8540579708268843
Ni 5.8217193615599125 5.938062521428815 2.4951635443407927 1.485313697869371 1.4197616230001742 0.35753760560841646
Ni 0.08998241037766722 -0.05009776988506409 3.477601187154387 0.5675453118222483 0.5707939006665331 -0.1523527747045247
Ni 8.889578694041452 5.672174342459082 5.697806592455957 -1.0852652154819373 -0.3074221770092641 -0.43963035844511383
Ni 8.494699925430108 5.017250469735735 11.379144195695964 4.2266202888879665 -0.02796640330593893 0.9192457419235975
Ni 1.3725194354530255 1.0027564644156484 12.48705998621653 0.6979809747387076 0.1745766190997316 0.5569279413177183
Ni 3.5369263031575273 4.1975613103385925 13.421551430096706 -0.5221871954024232 2.4742857006445127 -1.2373228275435464
Ni 6.630825016013128 3.5003788123538326 2.2301094171854285 0.13946614854984368 1.0176400601337958 -1.1344866715119106
Ni 7.986173350835847 4.995159877047788 3.5250233942134668 -1.1219553718141193 -1.0672278983642522 0.23688447600001783
Ni 3.067340995195774 0.20941391803831128 3.336894289991593 0.7533419680075155 3.6159568057200047 -0.8019810691714575
Ni 2.6366027107236616 2.1273598882436136 9.846664931423913 2.07273158024583 0.1417019798588979 -0.4436423078179843
Ni 3.5312434416426672 2.2745017072013445 0.60789465957002 1.367959036506586 -1.8860712905086874 1.0327494049714085
Ni 6.5377881853751525 8.795778493946257 3.6503639469318507 -1.5065116721032246 -2.012875527320146 0.6918270393221698
Ni 4.8514673571189775 4.765602429653155 8.847096712531444 -0.06857800617971414 0.4225566907922787 0.013045520330048502
Ni 1.6223485828782793 3.7307938723485528 7.955736585415628 -1.7792861771316324 -2.080718712216365 0.44104215119097584
Ni 0.9300931164025891 2.778523459566579 10.929133188507619 -1.1486969015740216 2.5618649305170784 0.01925781978834748
Ni 6.643708053643002 1.3191306950190576 13.120054422026229 -0.15979149037075707 0.2543096134550007 1.2371490209698435
Ni 2.3124251478908926 7.62687136865667 12.822709766830458 1.3819023860605557 0.8012627029481942 -0.14532312155125293
Ni 9.342567784544386 4.795062836113277 1.0115842196079694 -0.4745549382364408 0.7458744559858768 -0.1992054733920053
P 5.6297460795405065 4.348680189925297 14.065305605527493 0.9032146566026639 -0.23051559635919655 0.035923967590118774
P 6.56479827012074 6.377876420558988 8.253674972411458 -3.6201734149045137 -0.8008168736600273 -0.4464823483699407
P 7.2166121191294845 7.5919919814817165 0.39248782007681715 0.3387420701684682 0.46353261898400816 -0.40643381708848714
P 8.823354037549043 3.111361967228795 13.591156102156708 -0.5187917965676291 -1.1766471069300444 -1.0362322213136863
P 9.361454110374867 8.211923375258667 5.211339510312498 -2.1101974384017725 -1.5044879568049767 0.7610581057048507
P 2.542962723971339 6.379619918702021 5.613818045964611 2.1434310036439217 0.12796457566814737 -1.5238164819302595
P 5.642478328141793 0.38249144991294953 6.6772642670921085 -0.9422766556011319 -1.0427006026468495 -0.512257337883221
P 2.523416696140792 6.2293115301439705 0.6892679588468169 -0.7052839361580241 -1.3112672402414967 0.5452075675569965
Ni 1.3068790864463904 2.495991941566591 3.4708288749079887 -0.3958097617157377 -1.36458369227645 1.2736625425148451
Ni 4.973634743217041 6.166828326423368 6.382181447325138 0.674110081658381 -0.5085495500143307 -0.016391553984145962
Ni 1.8739212284465665 7.889234854083192 2.934953882685249 -0.8073688158459321 -4.407503824042332 -0.1507229524105856
Ni 8.573911287009544 1.7460898294622162 11.670750385922586 -0.7271257146234639 1.2849098332938902 0.9667589570132123
Ni 1.5620518200721845 7.314379955539367 9.902887563163882 2.89666652798056 -3.0746267188405434 0.4466633540324953
Ni 2.0834520079820327 8.565108977465798 5.202415627114453 -0.3063047755753693 0.049011911122328486 1.0002365199453678
Ni 1.929260801937875 4.2577544056875345 1.9047076359268214 -0.1222544126572475 0.3766948952631577 -0.3037339295243995
Ni 5.38880406048758 0.4375652577413738 11.336825254823117 -0.0648668758767141 1.4751812374210596 -1.783016590708342
Ni 2.9552387767558708 5.843979591905019 11.257816516000842 1.8279995831769356 0.6394235860197891 -0.3416846977365599
Ni 6.193715895083229 7.9502667134036455 9.877438144864167 -0.19656109379062278 -0.48594415390998885 -0.3930707655180198
Ni 4.184395543280119 3.1589924516336096 7.332714958984079 0.03453454344175988 -1.5394001953011294 -0.8041225409944925
Ni 4.158808529991818 4.55437527354609 1.8784590357755968 1.444004554707939 -0.9025716237020263 -1.1896980265767318
Ni 4.311868818321575 3.6912023280302653 11.125882713007508 1.2244925085480978 1.5819231562650045 -0.680342435721338
Ni 0.026170378342645413 6.9539847529029375 13.516078244823404 -0.812225372607285 1.3308341066298306 1.2475069671654
Ni 1.456292165147208 4.796250299713396 4.484811582501915 1.2070912823525146 -0.829222935606546 1.197782346246763
Ni 9.57434937011067 8.6777766547629 9.20024932963857 -1.9683473630007844 4.3908268776072825 -1.273201029497394
Ni 6.78927601211486 3.7876790333828745 12.190046124452222 -0.9611791489325898 -2.1062991317886306 0.39372613971383164
Ni 3.2599362819580997 9.078234617431951 0.8891444708270212 1.3183997375212195 1.0024890634249701 -0.8238357031527037
Ni 5.876107079308267 1.9284785838520815 8.252985112605675 2.2237072720971702 0.2695431425753035 -0.9390193250060989
Ni 7.980047546549514 2.8329017530006473 9.417441134257668 0.31244097038009416 0.3667048739299814 0.6053700959795058
Ni 8.783903857945056 0.1218215137637428 13.773642869415154 0.39192225373587336 -0.41557280327527785 0.9854022831460125
Ni 2.5164709765115183 1.3750074544247057 7.735124697141899 0.5847663036862252 0.36689719244644553 -2.039835857959074
Ni 7.788243902187268 0.573528897523689 7.089260417742326 -1.29968133517611 0.23842688078647326 0.7256090208686213
Ni 2.6632923687835026 -0.15954987114755653 10.831116550200568 0.822640654403338 -0.023986849832900625 1.424098302702315
P 8.392615753076932 2.4644958832205504 4.182735921534237 -0.3148758050738319 -0.6182958029022384 -1.7316307800371984
P 9.104519029977466 4.610987129466098 7.582555415586476 -0.3439146155083432 -0.002907660565098218 -0.10885459431157382
P 1.6691968491973008 1.5102652130669496 5.760221941113696 -0.5421857500115371 0.13370739168919551 -0.5712006491866486
P 5.592095943965273 0.7114405430690582 1.2855659996870932 0.0375735873783998 0.6245942343164405 -0.2763077149926467
P 2.8270115565714806 2.69174437361495 12.031435857439044 -1.918058384938245 -1.9254893872949939 1.631238457560365
P 5.994900560891703 5.189319599981701 4.516867445116583 -0.41570752908092923 0.3899152506081736 1.03158906611472
P 4.421143742475479 7.882317407396778 11.354756897616358 -1.0707773062784076 -1.11420298156221 -1.2653000294827628
P 5.960068295288183 2.909841854836996 10.104657419884278 -0.12147022619305531 1.1034413721703318 0.8394091321109286
Ni 8.79664553086063 2.767666649508339 6.212798246650872 1.274064148828638 0.06659748541457562 0.36457240096801086
Ni 7.589673600167195 5.511084538357083 13.622466501511301 -1.3219298621616653 -0.9031226111094898 1.2392976918817302
Ni 7.013046930537479 3.838146236387976 7.310286975844668 -0.21382656573928985 1.5476063852610056 1.170341219316675
Ni 0.43579631394976637 8.393030422905545 11.723013863230724 0.0926461028725114 0.20274125445940572 -0.01904853199101881
Ni 0.972692901841181 6.888061674467703 6.868937855917197 1.3991917692686227 0.6193139597541076 0.7340849195501165
Ni 3.8468731514174292 7.136656236721403 9.12497921629382 0.7508048034079586 -0.39129490456451965 0.5628252806387598
Ni 6.539305499975306 3.1158102435721022 5.178801122806352 -0.5293402615074367 0.07021605600376939 -1.0613804384445398
Ni 7.752930996555127 -0.3186549146607824 11.583065623368007 -1.266657829062238 1.2801154972290405 -0.6505446356336151
Ni 4.018753795377661 4.104128658500577 5.068053178329443 0.43263824339799684 -0.19796645877858163 -0.6179013956772972
Ni 5.404589786917747 5.950144492344322 12.498577440706265 -1.1095875942773858 -0.36530593669992567 -0.5412465260267194
Ni 3.8999320408513642 1.0722702065941039 5.505002085916468 0.05165449095149814 1.2403875825117994 0.3686404003897974
Ni 8.489657917286742 7.123122921405749 2.2151982671210644 -0.27940692274326073 0.5637305660618486 -0.41755358115073254
Ni 7.384261245975003 7.007948376508392 11.89890832264565 0.019505159912463182 -0.5291142615395598 -0.27601203812909886
Ni 0.5126035329546732 9.291440879539218 6.934236102315227 1.4451772348598013 0.09687788156567187 -0.014937080925806532
Ni 4.516187952056515 0.44974524152546214 9.046991130708793 -0.36311098593113594 -1.6920674159222793 0.33468975447596555
Ni 1.4191226696005936 5.405532218346414 12.802350420676973 -0.39673278775063936 -2.1627183911186236 0.01674199534502923
Ni 0.23148000750911324 1.7426311061190094 8.3287113627619 0.07593598920668213 -0.07279821490864881 0.6708517226220834
Ni 5.296266718506797 8.498554469973355 13.122675323829352 2.220676455690646 1.1086221450403229 1.4598852304939374
Ni 7.015996740909206 7.3117034502819545 5.852941172360211 0.496353522168771 0.5886898071103475 -0.2127664999058916
Ni 3.8708297583341365 8.213261627887373 6.989947936220859 -0.2053522097196915 0.95005835642908 0.6101682886990976
Ni 4.380769980071398 8.399900748020526 4.733810447838513 1.7243440165677981 -1.9368117542863483 -0.2984855366412666
Ni 1.3413532281070182 1.9225601144800546 0.9104453059777459 -0.8947007055943818 -0.17618278724458689 0.12323734539580714
Ni 5.278549007647864 2.039798584206191 3.1342828420053976 -1.3788851965007867 -1.4678538505217107 0.46402755634255566
Ni 6.80072655397316 5.114914638688465 10.152562151834836 -1.6394652163455314 0.37681393733952523 -1.753187937382684
P 0.4449916173992673 5.6094461065670265 2.943933369337585 0.8420540259329433 1.5930930568388952 -0.6626211071821749
P 1.341720776364198 9.252706947821016 1.5632788657923085 -2.7398444046507717 1.9213015744658912 -1.4244106917364112
P 3.3363580465086815 3.035251205049673 3.10933008506859 0.25856710317977405 -0.7798412998496247 0.9534385857552226
P 2.189371876249882 4.711940384104874 9.690771694219583 0.6020631430934599 -0.05206535323667163 0.2185275707593849
P 4.489479445368101 8.095683882846917 2.536874616942152 0.938077787028436 0.10174575118093443 1.552691513093397
P 2.5802735842322533 9.025354789969464 8.780308482044694 -1.1915880445105929 -1.5870936447223505 -0.939581368157156
P 7.302335681881007 0.44798383718528406 9.573458772410582 0.5029113778919468 0.7699890896458933 -0.7859013900007755
P 8.948716266190289 6.988119619249246 10.270179478995296 -1.62190715285711 -1.7714831361474461 1.20245866867651
