# total energy = -340887.79476565454 ev
CRYSTAL
PRIMVEC
9.06146999523395 0.00000000000000 0.00000000000000

0.00000000000000 9.06146999523395 0.00000000000000

0.00000000000000 0.00000000000000 13.26237728544916

PRIMCOORD
 96 1
Ni 6.381078235871801 2.4376895221088417 11.439383896956327 0.4402361103499128 -0.2741364183729408 -0.32403690274780966
Ni 4.642118678968922 0.23383576860488262 5.840035068506812 0.30890416087142925 1.095266292558707 0.07907170662218639
Ni 3.0101207160135384 1.7735200041509072 4.651102220500568 -1.4251995061862939 -0.29269361254983783 0.6334478280523285
Ni 3.3411271600416623 4.442141093673495 4.721604989198338 0.7307687106926899 -0.1983827203803938 -0.018292884771916883
Ni 3.799927517949954 2.634948666351723 2.3519100208427837 -0.01800903498291092 -0.03831149398568886 0.9679995142885329
Ni 4.955228719401123 4.50771895333107 2.597317286861335 1.373947907100169 -0.7759321946032057 -1.7186371959910078
Ni 5.29334841751674 4.758721677182777 11.161484011183715 -0.08875962333391164 0.1986334029386192 1.655619971728523
Ni 5.828274186366483 8.01312150617806 12.341623608531993 -0.1920601205964757 0.2178889087341215 -0.005647428093764468
Ni 1.9777927263093567 6.521721314460334 0.19018666677117588 0.6611887456110226 0.6176039190415363 -1.800441471053009
Ni 3.0222993319289424 1.9643636275097816 0.35745596932237506 -0.11710217903234671 -2.1761274654356777 0.42299583521222633
Ni 8.415097384617974 0.25020440832927704 5.79559308803278 0.43356332631542754 -1.7618952353486947 1.1483030085697128
Ni 8.794374280269134 2.517783856987009 1.2469733767721274 -0.34061023372545857 1.1131426586184958 0.3154409335486826
Ni 6.69747758997758 0.7849362617172716 4.335815614932297 -0.7666276293728281 0.05528977371124027 1.262003618119678
Ni 0.6773276787992725 7.555526323803064 1.8528468325052394 -0.5091223917986651 -0.37903897001530207 0.9579454724866405
Ni 7.728328560043211 3.8739144219300687 3.6482276334537005 0.6142686840207163 -0.7733081267167973 0.9815178604899418
Ni 7.73694601817978 4.102036933589519 12.513808758653212 0.6689380505391384 -1.2753103625309132 -0.9304698927741912
Ni 7.997436101304873 7.097324022926332 8.883366072712281 -0.23826644394920904 -0.25397794114719485 -0.633388949789935
Ni 7.190213153691815 0.9254841948689653 0.1953535170650475 -2.062471078860087 0.4040390916040654 0.34717683119938275
Ni 1.6221481448749946 6.438881354119094 9.521856290340855 1.2810472650146905 0.10739960703260214 -0.14819607222367379
Ni 0.029347383456264496 5.291010558211552 0.764171902810911 -0.5167184589783682 -0.6811263650752141 2.7346137523794516
Ni 6.633820761997137 1.6785104893644394 6.793878040435933 -0.19411648890487213 0.4173517495525716 0.49154735902937924
Ni 3.327634630950861 4.498159102296284 0.4622663702502871 1.6089292525402032 0.33225620533380845 -0.2167879623604589
Ni 5.900213198087014 5.198039874214492 4.607601726777734 -0.19410260494780118 1.1990133904403868 0.6837607173742676
Ni 5.4620639307078935 3.1550317470545677 8.940474176197142 -0.5337669298202227 -0.6601621041187211 -0.4772391699368232
P 0.353843161163542 5.782314409638113 12.04527547562979 1.174124340508191 0.8032825615917005 -0.9563351905767272
P 4.333657172736577 6.310416891445966 12.437271956965809 0.03528813377833278 -0.03230976787629919 0.633709052133515
P 2.4430086051016557 8.716055993545295 1.2163401706980088 -0.8876944494798776 0.19699869554867364 0.8598951678794223
P 6.371844597763321 7.909847930591854 5.6916815849462425 1.1195470194829429 -0.3059247665281312 0.8228232027277893
P 4.927872140942338 1.2237877930349663 12.64221522791722 -0.042953106522758286 0.38309951323792085 -0.741951981003019
P 3.923317557324997 6.43801145298228 8.14865663402886 -0.2524918435199716 0.055712205960639534 -0.35109159287275665
P 4.682550958890451 1.0779706149764217 3.5532425846367057 1.3619611670519383 0.30480633665297185 -0.29116046373476306
P 0.16074957476017737 5.7034071273528895 3.471387606103506 0.8998776218096308 -0.2380954655889835 -0.15825422779062423
Ni 0.9529223265593253 8.719381553099575 3.982201708964187 -1.3895313633607231 -0.35619368998601236 0.7359199158763261
Ni 2.1530506209669698 6.587625387044213 4.498253341586106 -1.4755918425959167 -0.797331486214588 -0.02306948022495382
Ni 5.719763081019038 5.618374291229265 9.068110420496263 1.2873343835749829 0.9663846043929293 -0.6538402756657513
Ni 9.143295250833534 2.007704639357533 10.026291118198227 0.310725016130252 -0.4681768026242388 0.25621480089751364
Ni 2.4323976235265525 5.349556717013207 7.02856921182535 -1.0544973381714615 0.11218108758164551 -0.4335445572623501
Ni 0.7594064756457984 8.488712768320909 8.871137618710915 0.062049975253209266 1.6623971425513564 -0.8226352550866992
Ni 2.1553431729212833 1.383351221349216 11.52604054853534 -1.456865212720691 -0.9498439264254287 -0.6574354492161775
Ni 4.243395868321888 6.8549025113304936 1.462110801670584 0.34482504313775453 0.8637572219379899 -0.9795800200372807
Ni 5.734379232411559 7.74352464552694 7.870956100600102 -0.8216852324686043 1.1971742803491188 -0.312760558503042
Ni 5.216108445743745 2.7967774622097616 4.970115808751879 0.5956405273965677 0.2578657062373752 -0.5301648142912612
Ni 0.822513272386609 7.344529990774652 6.629185820002547 0.2171761989378131 0.6605899356847592 -0.048485349194897144
Ni 4.827153899945524 4.712018859900044 6.868983129835662 0.9285657337729427 0.7476981394581768 0.07198523208905022
Ni 0.8148119288847474 8.085133009659993 11.294280762747587 0.6278909027898413 -0.6051502666592159 0.6445858469470189
Ni 5.0571974432821065 0.7287234314857167 10.331988876027152 -1.553175651818667 -0.981120110830891 1.4189980053612723
Ni 8.22965439748349 7.19169923480054 4.66330349009141 -0.35408564250407404 -0.06522863009150702 0.19548200179383107
Ni 6.995409667866399 6.002036938445196 6.727937721971353 0.11671342823436028 1.143758840842456 -0.36617445534780807
Ni 2.1846479674677246 5.404550779506204 2.263808064770834 -0.8087878076806458 -0.011584876624121984 1.6890764516147554
Ni 2.8595825119937395 5.294626084811436 11.241708831232406 -1.4724823504326576 0.5694345584251612 1.7668353529627892
Ni 1.1294216426309343 3.575900790809673 4.0029035437263385 -0.11070578858769967 -0.5594154836262625 -1.0181028587028274
Ni 1.611790884464796 1.3079054206709013 2.551164500818234 -0.25886380848458646 0.8839910324863615 -0.7646483941592702
Ni 1.1254074113433419 3.1308285602167367 8.192728000372728 0.39419408048918564 1.3173792666765054 -0.19257331278746834
Ni 3.764207202519505 2.7346248382783944 6.945295207062721 0.12622008217321487 -1.394212056665844 0.8075220535943448
Ni 4.241520143995632 6.933981961549044 5.648154812959901 0.41202365247143874 -0.4486898975442208 0.523786164458427
Ni 0.3767677745596588 0.4046327014952684 0.3364560121914605 2.040005807878035 -0.14867686851483425 -0.71909204568571
P 0.2916443237342818 5.68643499371483 8.070037506495208 0.771358202079278 -0.7791535297539807 -1.4726705551840638
P 8.55379224711885 0.8804559372746004 7.846354209074565 0.8856493940253909 1.3396455342738736 0.24105300555541065
P 2.082488952713062 3.282064497440022 10.26917838936107 -0.8768443941392511 0.24625666124353718 0.265299279697285
P 4.107636922157762 6.131552531658642 3.435923730279014 -1.229885654539211 1.4126936604097993 2.022280879794446
P 7.025647793840881 4.095992932982692 10.045720722547788 1.2631230764361019 0.051028684442041145 0.3991668511134287
P 6.514019064811454 8.119702518378197 9.929237335740247 -1.4093190875106114 -0.5253105715227534 0.9565383077264689
P 2.5404737783055897 8.57534042319536 5.3690615315652215 -0.5302841134779448 0.30713087102109043 3.0146593371479757
P 7.022177250763798 4.072233758183444 1.5895621919781306 0.6124339448048227 0.6412418701754504 -0.93318292082998
Ni 5.492401732854302 3.2674845919282025 0.3104360005835118 -0.42080911197355264 -0.22536182007239897 -0.0016449918025907152
Ni 1.6743512745540445 1.1317232560554227 7.067547125783767 -0.5680685313155701 -0.4979265230828457 -1.190278324560234
Ni 6.9856142186070596 1.2470304640342307 9.33418055695521 0.9410540960479405 -0.12213948434593802 -1.8649301376546978
Ni 3.1713695777803665 1.7473051709341927 9.217577558741358 -0.5481152281220947 -0.5908058250120858 -0.7197605325076443
Ni 6.468693590995343 2.105477902547422 2.4177841905750856 -0.6072305462270123 0.8811751603041211 -0.29949777995586485
Ni 4.162495062598132 7.392057401843324 10.29969470246993 0.3311195206262039 -0.5670285200868299 -0.29827110663761536
Ni 8.295549408597196 7.443318138624158 -0.23216211506353207 -0.08218222722671008 0.6962071706677364 1.2618706920862395
Ni 7.876755441512199 4.1214103568239935 7.807482314317198 0.1156047685512138 -1.0752677379495932 2.453763155211129
Ni 3.418521176807635 8.427393799645655 12.672069147556275 0.23379760954457798 0.40210870735057197 -1.2979306710335905
Ni 9.236990852444604 4.556125327006731 10.225544692026661 -0.36143848332471945 -0.20752016390528777 -0.19230591805869462
Ni 8.82936967808557 2.5389786357266897 5.997220767047103 0.17665715577784413 1.4506130611633918 0.5805908321522968
Ni 3.70395748732492 3.0988506319686255 11.726183052587956 1.6558608840947353 -0.3498770037393652 -0.8259118689554422
Ni 1.4345847737195252 3.573445132392207 12.687320508008073 -1.8381037614904734 0.010481616257614207 -1.1063138086221205
Ni 3.1662136012507047 8.501598178909974 7.738902389590596 0.5851054321931988 -0.6120950734081652 0.6601867867090695
Ni 5.834010096987354 7.686573305476111 3.644116444435234 -1.706416999775732 0.5847069112031995 -0.8564318919211703
Ni 3.2399286611255653 8.50197876065733 3.347066047594457 1.4441143408129258 -0.4534667501075739 -1.538151410495693
Ni 3.457992940890596 4.6008346208509305 9.204580692069136 0.3793305331137919 -1.021453777452931 -1.4016456301257538
Ni 7.478540073194974 6.283594939727516 11.129720839778756 -0.850453048629916 -0.3660677545666147 -0.9157467276314034
Ni 7.94931063320464 0.2027259291995511 2.3999865570040693 1.234370686893758 -0.3945895161553914 0.18956332231655096
Ni 5.013874554374705 0.38493487762852324 1.4005997298276178 -1.0143181948494144 -0.5239216615950267 0.15137832660639738
Ni 6.555457167922423 5.870690928256368 0.18089322295954008 -1.5461609110637307 0.1879281007059731 0.9337063974336177
Ni 7.724649603152099 0.03471992912311206 11.334160292988429 1.0030534205688726 0.7697360930948228 -0.39874673285687456
Ni 0.17932921320730885 5.022038939002517 5.8056322908398315 0.005834861514222209 0.07991425712813978 0.009858123741002377
Ni 7.107835328329509 6.063292476829223 2.707792918942752 1.1969035431862354 -0.5850403832832182 -1.7262450902452529
P 8.759342636571995 1.5433586617020485 4.120687251504016 0.6688825147108545 0.6593295809150967 -2.2066924827067287
P 1.7694423425720887 3.3531336080237386 1.6243890464493094 -0.3587280263720919 0.007730792985354428 0.3229904637611663
P 4.946321294218947 1.037538335054894 8.06654974662479 -0.24424528724046327 0.4015754605549213 -0.26213476592637436
P 8.684223048819986 2.009127290175032 12.144359027407004 0.006700294838311041 -0.06571225459614488 0.9298931943351146
P 6.566312809192255 7.922370882373914 1.394977087583936 0.6853465738041488 -1.1996075723809598 -0.7873116400847409
P 1.955129989401302 3.33980418539609 6.080853606028667 -1.2949121959222407 -0.22140386386591543 -0.32515276151980776
P 6.863429354765312 3.9125162848762165 6.007313432528187 -0.10930145204100532 -0.8635744165032223 -0.9050715073057445
P 2.506946338657528 8.797174274553255 10.086674943151406 0.36090575074970105 0.13578150060940486 0.3189913699041022
