# total energy = -340860.500006517 ev
CRYSTAL
PRIMVEC
9.34745517191629 0.00000000000000 0.00000000000000
0.00000000000000 9.34745517191629 0.00000000000000
0.00000000000000 0.00000000000000 13.68094549934771
PRIMCOORD
 96 1
Ni 7.3939210331976986 2.985249966520208 3.3060415357310493 0.11061040066041596 1.1770448565890956 0.9025037465785682
Ni 8.936998904827826 0.4224946838625091 11.703227718464872 -0.3987148511776746 1.6920134227558925 0.8582972272646832
Ni 3.2474086894893053 5.944878558881594 11.260034030247274 0.8182890623028618 -0.8908337664398077 -1.6033725843880324
Ni 9.327227108771023 7.002178541544276 2.7028483950000917 -0.6411246278712959 0.9015879196325182 -0.17021114304218427
Ni 8.099709970532958 3.9963174367459944 0.12566625029324133 1.4394770991512307 -0.29890102691213033 0.22568552196040487
Ni 3.9813054240137555 8.066704106923034 12.67215312256237 -0.45698170523936776 0.3100238762981693 0.6697001255161434
Ni 0.46157078475033675 0.7076313207160332 3.4944142531556426 -0.6193517549705785 0.07317770973525461 0.7292964970225375
Ni 2.7387482306784454 0.041854164514241954 3.690024704987815 1.702797400745274 0.0014647574709845742 -0.061415169882687776
Ni 1.1332574020040094 7.864481265422876 4.311084571208437 -0.33605912401966637 1.2198190143318282 0.8040495216647121
Ni 4.318767244474083 0.39154432560739333 10.949421839532953 -0.3123129294426621 2.3170866535912804 1.1622810680163596
Ni 7.382778866836037 1.8237539029569871 0.030030568682978636 0.46521771999591494 -0.8440278618298627 -0.48634318912062047
Ni 0.8531842815247404 2.4477899988500535 13.125662662119506 0.07323993043175774 -0.008048067115457108 0.549771532778595
Ni 9.309822147558428 3.911031257313275 6.82512278788987 -1.9794941236462231 -0.34313505702984126 1.0989141737239398
Ni 4.825661034289679 4.30795223903747 6.420659344725051 -0.8448130767353191 1.8173217917481155 0.8559927475012226
Ni 6.32698382442858 1.2221330041572638 6.499652817450831 0.2148984586472299 -0.029231643171607723 0.8404825676807655
Ni 3.087950454620524 6.479057569846259 7.699567855815281 0.5219776504947785 0.3630760189281424 0.67386839796122
Ni 0.6619185267772159 8.912097284704112 1.3389584315101868 -0.10970717211985623 -0.601391570947732 -0.9445983617557732
Ni 5.719829232268032 0.9927371109680527 9.083217404432634 -0.851974627480765 0.08950035815467812 -0.9457342751324291
Ni 6.171002842820317 6.648078251181467 6.400657660513067 -0.6409137974120704 -0.6075388214960505 -1.0591417789220081
Ni 1.3800769513158189 4.854320331323954 2.8488378819573636 0.9174657672050393 0.0847121927374154 -0.36932020006564137
Ni 8.150335786820508 8.079837281199993 5.69688216498511 -0.14171560670565272 -2.1919248374792506 -1.8435688983701024
Ni 7.47533736625984 4.222609974874742 10.304583917279782 -0.6253236562832973 -1.929647375327425 1.3964825978675754
Ni 3.7105283475333724 2.079836780175178 13.287577408162653 -0.11793495934628721 -0.8457787830826982 0.4324053014515843
Ni 2.9019828373677896 8.611520521679287 6.414734927745167 -0.2432662111566456 -0.6560568237010959 -1.6882439284111312
P 9.280115935563998 2.803470009108098 2.381715643681699 1.0875725234588753 -0.04640789784057814 -0.4868854347773357
P 3.3071389269482125 7.082398400366239 3.3201057165261467 -0.8133391744967541 1.111769175309737 0.695066372195074
P 5.6453113209969175 2.892009102881302 5.291694294057681 1.3616117541323196 -1.3818440220187942 -2.239594889861704
P 5.8997210037698595 4.368579832176512 2.5803630836438245 -0.6656850908194794 1.5240864477621947 -0.41991616784563807
P 4.517138934513667 0.2807050084373632 7.36127878558733 -0.1546837368305465 -0.4446177843573762 0.28478284234319345
P 7.624382536257068 5.356568436003856 12.327270357576436 0.6594249688423804 0.9644457354990035 -1.3228544308584638
P 5.7262041965789825 2.611061995359403 12.732855495341424 -0.26953054416981326 0.2367204396183278 -0.3029014063207751
P 6.892654411292942 8.287556426240972 4.111110727381614 -0.22507025697390917 -2.0544790617935456 -1.382681173208109
Ni 0.11540648368371123 7.19384810634786 9.91337703479794 2.106278820073656 1.2296406284079404 -0.1719746627005103
Ni 5.574896942471417 3.413821430879123 8.911713104303555 0.7890743884121184 -0.41102940687896955 -0.9401246422551357
Ni 7.373758572759692 4.46311064460561 5.369976425457856 -1.0337073980093037 0.4799637679568379 0.8369442155102038
Ni 6.87366973018511 8.62428914521119 10.200827166764308 0.11580402904621345 0.8319976701382059 1.0128218128095459
Ni 2.141922576294437 4.093839434775538 7.028640251907722 1.2097521170141294 0.9156351417542037 -0.19316055274950605
Ni 7.993868737552172 0.9738832942302409 2.1984868307443732 -0.5434245075146448 -0.8442222372288557 -1.5571994282660795
Ni 7.3800120201556245 6.484179975187024 9.883497894885982 1.4077358021838917 -0.8354702020678386 0.7150425582066846
Ni 1.74330970521499 9.281658265639228 10.92594477155145 0.9057865310948982 -0.495907692880604 -0.21007095535159948
Ni 3.8197814015896663 2.77968073612955 3.6258880772412496 0.04408876278909826 -0.4420592796015806 -0.6239105779858545
Ni 5.381348539212552 5.725063807068812 9.293753872411031 -1.9178331563013165 -0.9414081369532497 -1.8638962970735449
Ni 8.407989036478932 6.522663447427763 7.354520575621323 -1.5980210902681318 -1.8938203383264869 1.3785039019019678
Ni 7.7995164531631875 2.208551235544374 8.417544004981357 0.43784652707181365 0.39494972770828757 -0.0911666901135075
Ni 6.5350768676696145 0.9467850221811996 4.051023417141653 -1.1964721120757715 1.2098161374828456 0.8558608499090486
Ni 6.938223254424737 6.940578813085089 1.8118630054497138 1.2473501298725616 1.2084817349421382 0.8449030653459643
Ni 5.678186320236821 2.284368443060681 1.895754544596225 0.7252326113658091 0.18889226439145532 -0.6977819713540241
Ni 2.309625266474448 6.224685276893324 5.15959045150498 1.0754888528214641 -0.7913595849018694 1.6056415829278672
Ni 5.814864807267204 9.284817705429699 0.4448472530073427 0.8580002648495546 -0.06175686949282267 -1.6836655650118293
Ni 2.116254464860609 3.942906078868029 10.22899665715651 1.453667788829316 -0.42875613473477125 -0.5393487947833744
Ni 5.569185647465566 5.662183477274435 11.537716071737186 0.7033512379116854 0.6846410630966918 1.2902893524382488
Ni 0.04533609150226124 0.4359952131210225 6.0015568522825475 2.3523038249223616 2.512819080833021 -1.9948806334046225
Ni 1.9548800017165426 7.120900567516981 12.678296269989287 -2.008559673553612 1.8021455982283094 0.510463993428224
Ni 0.7288799554252021 5.281742058717698 12.109921464393024 -2.0240965928469463 -0.8487448076895575 -1.0274151372426885
Ni 2.5920305769765646 0.15204757254367576 8.51109426938081 -0.8178861704374881 -0.8732361079627025 1.7586193928109002
Ni 8.50559516160349 7.439723562704529 12.19385413234154 -0.8387388455167814 -0.2761652758775115 -1.2352572032637694
P 3.8145842166088912 5.88913033725328 13.39978799698139 1.0247977542244995 -0.09322588663538137 0.8899097119636415
P 1.4459017294356356 4.4017539499764595 0.7350240375976184 -0.4256553843222605 -0.06295654622787866 -0.9672184131481342
P 4.218394272669114 0.9157869919055767 1.572022266041945 -1.477329908332946 0.9929186461277157 0.3501492835641453
P 7.511783093310276 4.361298164730425 8.059308400525932 -0.34482992823376096 0.8036970234212998 -0.21639535490773057
P 5.930137622344396 8.049392620260454 12.224321227173085 2.473128447111618 -0.03330761301319425 -1.5544154377630393
P 0.3647928441389037 3.1265554437762813 11.091921921538201 -0.8508446276413797 0.2489511773565648 0.11080940404509948
P 3.7917203416754814 4.472803955442055 8.368579231447555 -0.6131471688217635 -0.30604046617038905 0.9203675142328664
P 2.2192166817009644 0.08817173879164956 13.046805662236746 -0.4920389539538172 0.768081331100219 0.9647972053011512
Ni 2.14207213557446 6.564913944034064 1.3019892469796732 -0.1743166805701256 -1.8173007087021928 0.7525953196494781
Ni 8.457829666546367 5.029566417690089 2.1779102780498047 -1.2281195637777238 -1.2483055518072954 0.8840203430624001
Ni 7.868930654003539 9.22199346036533 7.555644156413318 -1.25049818858324 -0.44162347761574267 2.5516175417574574
Ni 3.4598763416709915 2.1768727105446497 7.9426231849980296 0.5684469977009113 1.4437299608903136 0.3889328320902463
Ni 0.7028388805368185 8.24986748767535 7.433472919545097 0.8423000805054783 -0.07990371560517852 1.6119027333462306
Ni 8.231864289342667 2.330245752207523 5.408857164536155 0.09605589988500876 -0.8652636312801872 0.161558866683825
Ni 4.54961199318851 3.4328154594419558 11.148315117561614 -0.210419854050586 -0.5430316429516002 -0.4128304646434503
Ni 2.6976755134023205 4.173246065012381 12.589465535620041 0.22032425764849153 -1.1153733477212275 1.3116691036656054
Ni 2.048831271935554 1.5172602009162777 1.70193693463332 0.23031145076819046 0.7187575451644267 -0.07397552304620163
Ni 0.830370882848338 3.769903381702228 4.722046365090226 1.223831477925331 -3.451999614007332 0.003989580775367323
Ni 5.340079525381397 8.68369222174505 2.594112255205375 -0.2670859392840626 -0.6620004428790406 0.6470235098542341
Ni 3.905740597782486 4.097559721866093 1.3526421708867273 -0.7356118977176042 -0.6545540139033243 -0.4797683641165802
Ni 3.188444943340511 8.477328457679274 1.3823231447526538 0.13570693861772756 0.4175420111865067 -0.3843704095305445
Ni 6.1870056857827045 5.488993831008606 0.249658371395733 -0.7630851634372083 -0.9766132240994728 0.14908258859368517
Ni 9.15587891114047 0.4237005055576889 9.53110444980643 0.4839440927608246 0.0560806450436518 -1.9453051364693401
Ni 4.790972628779506 8.081323526545214 4.823189567187311 -0.8238547293160973 -0.27053893082966957 0.7224149394113558
Ni 9.31627189150939 6.546424678041307 0.4092792519815382 -0.5850257279951989 -0.7452977575468003 0.39598588228228576
Ni 4.680037032822961 6.215664982816979 1.915428133137659 -0.5368350272225851 0.8698450800032826 -0.1818178740431772
Ni 4.169189269541775 1.28929446834228 5.543053902263668 -1.2862442358345976 0.07276093391281017 -1.183678302745213
Ni 0.046724188569968246 5.682430064807454 4.868993966185141 -1.8904581067224733 3.093387287277498 0.5693096028115227
Ni 0.125442846118708 4.799422728100766 9.247046509260066 0.19166494204058604 0.5158352850424665 -0.5221414297661524
Ni 3.999579698541481 5.098008483210296 4.140291612404966 0.39642631225381403 -0.3925750568285239 -0.4114024739476721
Ni 6.16223493002901 6.062619102079154 4.091861513297244 0.6634965678085929 0.5702028040497535 -0.9014742768727895
Ni 4.456763722659663 7.800011868278261 9.919724891489388 1.0438056627855703 -0.48203196333977627 -0.6747114626878058
P 2.4246924375416086 7.331620245613408 9.952641019531296 -1.8019111136200001 0.8762517548605749 -1.203146952992786
P 2.7418328908289054 1.807835187089613 10.087289239335375 1.03330450614393 -0.11874408551114388 -0.02493353001688609
P 7.280770090405824 1.5239623261522774 10.498689428856732 0.5182258967618302 0.11315193613534706 0.03420878467122496
P 1.9122369120001832 1.9247531542470497 4.407330641630291 1.4029376094643 0.3669452720755616 0.6639017736668115
P 1.0596274989580285 6.22131084563782 7.0760991504407995 1.2137190720816775 -1.9181193200831677 -1.136768525567552
P 8.311897199064601 9.126303563516059 13.580677141931865 -0.727870048988656 -0.3194742230777918 2.2733020523061627
P 0.5274460391271611 1.6606314657276597 7.708624604966133 0.35240851191196726 0.06588194740478977 -0.10066203119845245
P 6.39189255195826 7.40861523245989 8.26238840364972 -0.007262080879052009 1.5792273546003963 1.1854341090940554
