# total energy = -340888.55133165146 ev
CRYSTAL
PRIMVEC
9.07573067618486 0.00000000000000 0.00000000000000
0.00000000000000 9.07573067618486 0.00000000000000
0.00000000000000 0.00000000000000 13.28324923351008
PRIMCOORD
 96 1
Ni 6.399542579772853 1.8884689147579876 11.854303435621025 -0.9680928453332875 -0.0002316563948318591 -1.584235606448265
Ni 4.483120415251773 0.496171998440987 5.8776118431897855 -0.34177365790594044 -0.24319576293002634 0.5638465228144225
Ni 2.4213413519626092 1.5133962027582024 4.423693439886917 1.0500650134317207 -0.07950005240885663 2.5871404172544152
Ni 3.501797985419247 4.341266748434519 4.825990620495257 -0.7486885283959042 0.2345779393540283 -0.23605786633366443
Ni 5.134594497879803 4.3194849953723695 2.674396313600406 -0.4075998123721303 1.845113874259719 -0.05134878678562124
Ni 7.458907215680975 6.476695364265079 2.542054919860002 -1.6434355138471892 0.7578802221975012 -0.4123751222735866
Ni 5.13345095584404 4.1331330221952305 12.115452133667501 0.12663608666471096 0.8109627038447776 -1.6223378126366255
Ni 5.825411871976342 7.808041490075917 12.379895321864625 -0.9124608577912801 0.571323547917758 0.021382322330518014
Ni 1.8925802206484685 6.350333969313279 0.5674300960107674 -0.8949794131770651 1.0505483808260423 -0.19143045743227677
Ni 2.749038751052218 1.582644026034955 0.37118466907819164 -0.8486332218123579 -0.25713165628482815 0.009407923577461216
Ni 0.38994329632992425 0.15214009970085426 4.588790959940618 0.09211131341496394 -0.7510359455821582 0.19754556919107913
Ni 8.478075441458987 2.3675585733599833 1.615973738512222 0.5812580334226506 1.6614684600895 -1.6786652835837605
Ni 7.007906942798711 0.5333888462668036 4.679927629898744 -0.9771148463262398 0.3197441889097268 1.2634159250861725
Ni 0.6409761852251179 7.5742688253363895 2.796403173085864 0.611114968883083 -0.21297167393816227 -0.516880181367213
Ni 7.460785891882586 4.026647476912643 3.513365911441337 0.7146900599632724 -0.49907529197530826 0.4498448370842704
Ni 7.683486165482188 3.865752927626893 12.451756955508836 1.2539774053810921 -0.5488791028713127 0.33624115812348543
Ni 8.395413688588127 8.971332315281822 6.717365584140953 -1.325252498776995 -0.8676856104581185 0.7792376048273548
Ni 7.252960740478344 0.6431552681043772 0.33627487193087446 -0.9341720242161266 -0.006809052502033435 -0.14136619378603396
Ni 1.9073555098089605 6.5972936703858505 9.411420837452996 0.5128101250628975 -1.7600741229795556 -1.0490977644224448
Ni 8.879404241629107 5.000836382617314 1.3796780207096615 0.5949720405746335 -1.2632513744838503 -0.4077875029029041
Ni 6.360598620443818 1.8964827847387706 6.933510457641892 0.6813623923454202 0.3215460180051559 0.3914910797357258
Ni 3.4151519868841014 4.568695477594695 0.7871644209017395 0.3791523556647148 -0.8948590855491169 -0.33203791867541527
Ni 6.012099647179856 5.608583595973078 4.733950915358098 -0.05144288916132431 0.7470998437525457 -0.6063368307681493
Ni 5.088625923188223 2.666059347615868 9.547613971193224 0.9406954271569411 0.4547278762081846 -0.31570961382903695
P 0.2354907005123051 5.615880483248898 12.511385412089515 0.33197415531701535 -0.2454647614698611 -0.9291871694070256
P 4.00184350561312 6.205975400893879 12.671023880282016 1.5168097115951231 -1.5713554080514873 1.3332278036729877
P 2.4328039995115662 8.36581773161493 1.5788340343951672 -1.0252045027446148 0.4394313550604303 -0.5316848504802133
P 6.367060540518922 7.574958580850024 5.8924361412946675 -0.4891459486767383 1.4886625597369458 -1.3109473950082324
P 4.635992018826298 0.8678331433674132 12.935294629600731 0.8406664015567973 0.0014215629378749712 -1.8819426130522945
P 3.948587119376162 6.283373230108052 8.359441123405986 0.08770495681715218 0.4025162272016359 -0.5264207738677966
P 4.865798589362425 1.1157884520695338 3.8589297934801747 -0.2410730601600687 -0.0955668760637322 0.6931254464186192
P -0.008535724481230146 5.525776631415137 3.6076373386943237 1.990028961739276 -0.21280352379141412 0.0642364413815668
Ni 1.3417378371675728 1.0932715648415359 2.467031301729602 0.17185304952098143 -0.43074668280223877 -1.4590671054680162
Ni 1.7864577045835837 6.470342352955284 4.986292524583108 0.1365559168815842 0.1290341545832423 -1.0608780448868247
Ni 6.103301662397167 5.5921020694893855 8.96588778458933 0.36532187753952566 -0.7198106690192894 1.3284987736284348
Ni 8.301969967951502 2.411230988249595 10.112152539484988 1.216039492684738 -0.8598427173749321 1.2805279021761107
Ni 2.630409878437482 5.113947211122973 6.979881994765122 -1.6700369184848014 0.9445286848601024 0.22200910155008216
Ni 0.9139351312964985 8.8562883561919 9.154403411903974 -0.8877307020344518 1.7502720492874695 -0.3809449287887633
Ni 1.5452883195333673 1.155313258146894 11.332324597666613 -0.12393539990409624 0.6813035140830266 -0.4397997941434426
Ni 4.22397200819484 6.860762125133443 1.5849837493430479 0.07262852210000395 1.0560798521672328 0.15257234691449853
Ni 5.870554555197648 7.622497256908167 7.9834581156428115 -1.3140910828435368 1.8161403698455043 -0.08600365785532929
Ni 5.333434676145908 2.9919960549996194 4.994595002791964 0.6339301670053856 -0.4607817957117484 -0.4805052422826047
Ni 1.0641293943904673 7.282148289581626 7.094476705198139 -0.4210873053356038 0.13455045641578117 0.2671643579304819
Ni 5.111360627946842 5.199050335482883 6.87038875241387 -0.20737283969414608 -1.123906582003219 -0.02227269535527132
Ni 8.306653044859864 7.349245164743491 9.20907742723606 -0.27075644615711436 -0.8169824276762963 0.02711562526986943
Ni 4.50627260361075 0.19971235596163472 10.800131025099095 0.6118050529715722 0.49771106463792997 -0.9181525088594187
Ni 8.218101142931781 6.946582232198316 4.919716596348646 0.731506874410295 1.502247240399916 -0.7383562932319606
Ni 7.6312734882461255 6.237440958338243 7.0147110179115 -0.08206087115749737 -0.9264895679702043 0.49400559076188466
Ni 2.1287125753030627 5.260547484961688 2.814494734150068 -0.14808654322900303 -0.04625440298184937 -0.43705925528382794
Ni 2.483519181224606 5.366497562148163 11.541058229688156 -1.7615103412054502 -0.5907934837169115 -0.5453551488784543
Ni 0.9693606171092285 3.269486513280971 3.728607749763241 -0.12476560911487547 1.1271292027055748 -0.20453845556914452
Ni 3.5920742761314175 2.504665633155777 2.641200921933689 -0.8059140856772766 0.9022996009875621 -0.10157811525481862
Ni 0.9045862213676148 3.412919357195231 8.1605110954085 1.1339526533853117 -0.4696428456468041 -0.12695901722176844
Ni 3.7035060945052014 3.0670704972204974 7.135070632321633 0.36004751651446376 -1.237656042513249 -0.3345136339094174
Ni 4.0608992836028746 7.111134300852418 5.874835577247405 0.10204039960321781 0.18109256584137845 -0.2557412036952047
Ni 0.9712392933108389 7.589153023262192 11.362504124107266 -0.43651649540648046 -0.7446128156646337 0.9434665621441751
P 0.24372964860806345 5.567552218642253 8.245802994961615 0.9115560865888237 0.18694979595310385 -0.2673924147808879
P 8.555200998759885 1.465803072317404 8.239081508995852 0.3390066366837646 -0.18816927018250174 -1.6632348079613033
P 1.6617117896505607 3.3953759702497575 10.419606521822462 1.23459900085448 -0.625419044210581 0.006243924027182795
P 4.079259486288179 6.092719360701139 3.611622491931653 -0.319450826039024 0.247508017152135 0.9512402925523231
P 6.808304403175431 3.8901938697087144 10.239631156854268 -1.4327282104631711 0.7970273247106081 0.6808998508867047
P 6.447553193814009 7.792340476410284 10.171408891117524 -0.7944276823042318 -0.1692060988164376 0.5185513984220489
P 2.2232635350536802 8.636873497012505 5.655994304231982 0.8099571453983986 -1.2130189606908595 0.14922914147387847
P 6.793202387719007 3.842255861511098 1.1596850375010763 0.27667075475902025 0.5864809723844868 0.7465298301816886
Ni 4.979399507311982 2.7326207546816224 0.6451301470486788 -0.5868041600518604 -0.31560934080574676 -1.1500385032035807
Ni 1.4834644437586306 0.9419791383640169 7.087237902597152 0.44888915803922047 1.7785451852005496 -0.043978719573795226
Ni 6.715241863217394 0.8187760976062295 9.242670335896163 -0.8005538498066277 -1.1910650821275874 0.17998673437170937
Ni 2.6961181668416354 1.9297725640020902 9.230277425976842 0.20722165882826246 -1.4012172843390838 -1.0273202635360372
Ni 6.135239157824545 2.2584682934403806 2.4892541352912616 2.114687612962642 -1.9530896655107657 1.6453054771763922
Ni 4.484472699087714 6.3109725263838845 10.583189302465298 0.3589915644461237 1.24990246398077 -0.37279941686349344
Ni 8.214779425589803 7.167685177240026 0.11498496684204713 -0.16178306687948912 0.6216950583917745 0.19126950637438028
Ni 7.7382854258943805 4.064420667014589 8.08519523875785 -0.5497337375621242 -1.3392040758610808 0.46147702200656004
Ni 3.1718044265276704 8.085050934643814 12.625063473747835 -0.40465461370087724 2.1236047129466136 0.0733160350853318
Ni 9.000093305054305 4.683603300727982 10.399561863567017 0.5744762346141268 1.555300925691786 -0.08921805102756893
Ni 8.671506484381325 2.2648122290197317 5.994504528570859 -0.07673303118668076 0.5009218582657436 -0.11754466588640403
Ni 3.66709426396964 2.597546658504963 11.32014405983965 -1.1025468853805205 -0.3668246873372973 1.6182340748808968
Ni 1.3241309201090012 3.6012861425306184 12.67884806749655 -0.9226532249432496 -0.7058619201486811 -0.053068597690205374
Ni 3.1762969130967385 8.415089872187604 8.074887024121187 0.9801837150595506 0.31591864451604945 -0.6369111040105805
Ni 5.5855040134576415 7.939821096101926 3.667385594916846 0.1841627201262699 -0.5594206258325849 -0.09457185914031455
Ni 3.19425778364257 8.362178363707462 3.6764050558306653 -0.32556002426055547 -0.5155730325200153 -0.16492572627352886
Ni 3.423066023830016 4.43947522755349 9.338787766721167 -0.3470102237145314 -0.7153433772765552 0.3851890487770979
Ni 6.840886275464231 5.812696773626311 11.375362618998288 0.655277265222594 0.8312481935666909 -0.8121641803520463
Ni 0.7022482565889466 9.134178146612724 13.222584154040916 0.34809137259385214 -0.7997889466161452 1.98251542697105
Ni 4.642009228109717 0.43036296942892116 1.8208411093652321 -0.22592386322345603 -1.4370492064360283 -0.9317647003262146
Ni 5.960540422535657 5.652328616706231 0.3613665438854274 0.8407669316904036 1.0436611667879059 1.255271184491851
Ni 7.980770791858769 8.76343455803404 11.419143942653212 0.1286322911591333 0.6906571873837848 -0.6205218640192797
Ni 0.23305568203456556 4.634948309825402 5.702459321378769 -0.7044773810963286 0.7190398522915358 0.6672915160746508
Ni 7.898308705057645 0.24858697954092296 2.4594603273944164 0.040367348073453053 -2.438616272267361 0.27440509865329515
P 8.466866914362422 1.8518301909613624 3.6805889675646863 -0.7916879147755657 0.21201496645184775 1.255986979611953
P 1.674072934513331 3.2437749689371915 1.5329934275028276 0.43239038905324884 -0.0408946813318328 0.7302758302166714
P 4.639068691446327 1.1809521966471332 8.062188262085954 -0.14839790382183474 -0.6623130890234529 0.05617500452967099
P 8.643671219113985 1.694320889130688 12.415081928790439 0.47533783914905237 0.8789796953146991 -0.8284971131841151
P 6.425471941647254 7.990863004110899 1.1999168429799123 -0.5776086095955213 -1.697892764354805 1.9369652491450766
P 1.8165982053833343 3.0905766390667346 5.887454472854744 0.38000596191426167 0.08200739221174264 0.7417172392843936
P 6.9127751362997705 4.120572211262724 6.102444005870345 0.5030453323666497 -1.0603339994578964 -0.6351691816188093
P 2.651765072168832 8.402519985524654 10.223346573721178 0.2496425469966346 1.0824454866449553 1.5131183787864648
