# total energy = -381171.6838141274 ev
CRYSTAL
PRIMVEC
9.21464439149752 0.00000000000000 0.00000000000000

0.00000000000000 9.21464439149752 0.00000000000000

0.00000000000000 0.00000000000000 13.48656349748354

PRIMCOORD
 96 1
Ni 6.364103246810458 7.84135814996077 13.370997037961518 1.2113945377135587 1.1711326048697188 2.504310272031061
Ni 3.52428811714543 9.013304246091947 3.5355696060668538 -0.9604085893151524 0.577211888377735 0.21117781526253307
Ni -0.008955712719702259 0.549251769375101 7.549642786098447 -0.43059653037761975 -1.5618490112229488 1.7391556276593338
Ni 2.814880302399348 1.5359798307793495 8.585707895598004 -0.5120159112963764 -1.376256757739004 -0.5878056047331812
Ni 4.890211688801305 5.122724806463871 2.5267614141770096 -1.1379892853485305 -0.060474917456605534 0.7162823441510567
Ni 2.695854742979249 4.711613454483712 12.543367180771526 0.8382397943931756 -0.3294213069881746 -0.9336691164377791
Ni 4.398628848827361 2.4254325789859346 4.580967307234807 0.39036596499234705 -1.091864723076326 1.3123175358828818
Ni 1.7828493641403365 6.92754188243029 11.974827318110199 -0.573540867284051 0.7173472950804614 0.10447523429695556
Ni 7.503263638798514 1.454688239449775 10.495782931051908 0.9469550349134079 0.9365652070386516 -0.03363285756309691
Ni 8.606016971464063 7.792640325957203 1.4139180460879863 0.007733621198831843 -0.2767399174340589 -1.1621759098970628
Ni 9.225701795417123 7.565904790222051 6.565785086369461 -0.09199664221397058 -0.2269546184808156 3.0291138220104092
Ni 2.2933498687027654 4.201195881719284 1.2091216567818286 0.850155057773523 -0.039518626919912585 1.2381250117298677
Ni 8.69652320701599 0.06656106107572517 12.947788701046258 -0.9451038406372818 0.43202554951466243 1.6677648346211726
Ni 0.7809539983460994 0.5352399813705951 1.5010812087160421 0.5163099106860398 0.9234680075350612 0.41991102563931554
Ni 1.810751306845613 1.0619232441163158 12.76310327275538 -0.5687681284857559 -0.35266382245588296 0.140404601203713
Ni 6.940110657149575 5.5624660580428715 12.998929976480301 0.1486149049286473 0.7169500596420426 -0.08875113869347942
Ni 5.46718663678377 6.066838824197437 7.245642458558889 -0.6821067267106123 -0.41036889047683517 -0.29725500666827515
Ni 8.622852126458298 6.34105742161036 3.408000228523792 0.435355899439476 -2.0920925012709453 0.35795103899675124
Ni 7.110452570243943 2.5899969101528884 5.369836684967906 -2.308437462556715 1.575245744244829 -0.769400564132275
Ni 8.925304393768503 3.661033437405109 5.564016882665492 0.6241908282304347 0.6662075389818527 -0.8177990100403205
Ni 6.074293471373319 6.787322641298785 4.174159194106486 -0.1543921737320567 0.7123907224061344 -0.4249899828241197
Ni 0.4549675296920127 2.930385867726509 0.39369475293549444 -0.3274670114752812 -0.5318704841284582 -1.4245410466666886
Ni 0.7392743195995645 2.646206239909225 7.387736879789642 0.5235845899705821 0.9336511187156501 -1.6483314084869096
Ni 4.4832192827885375 1.6771297509773113 11.499507403724282 -0.7054873104180818 0.8652911420840129 -0.2286877991218384
P 6.744363969934188 8.444935775813159 2.1289348147722134 -0.6059779047668338 -0.39932240285468645 0.5785051532678617
Ni 9.212709147063608 4.256446888476496 9.477317792017041 0.29983665135252235 0.3964944464875881 0.15884969528277804
P -0.029112746956093543 2.162557208610725 11.795105818661902 1.5512522095437091 -0.6833837936508231 -0.5236049016855563
Ni 3.63555494613031 8.737233505190332 12.348013958864431 0.3928121125399945 -0.6160607429241326 0.9930158338272123
P 8.84880441743455 6.8101196711048795 12.523474606824314 -0.9996330820334139 0.8215219674178627 0.06084027121582425
P 6.074505408190433 2.846578678524233 0.5068008249071554 -1.8609158742889822 -0.9483943384630957 -1.752338444898195
P 1.384398933321687 0.8067706670638581 3.5859958251092436 0.31063657018150376 0.25881187220072843 1.0179809884129825
Ni 3.313364910895832 4.888037032764831 6.850256818408593 -0.20557563858440725 0.9952737766234536 -0.6666415411954777
Ni 4.507103640612869 5.037129976282459 9.076403365333336 -0.5055796687527293 0.6186662988677797 0.617279188712266
Ni 1.96097765160259 2.8992680141876317 4.7843317408288115 -1.3831393437914503 -2.4610771723740386 1.2693060653183623
Ni 1.3352295917512258 7.745092761769876 4.711611611554868 1.3833283198738047 0.7091421335618496 -0.47328249928192034
Ni 3.518897550275356 2.5118290832146912 0.014395117204155641 0.6411117723554894 -0.2149192845828363 0.13776279270549177
Ni 6.424947542610638 8.109743877580945 7.519285140707915 0.9544523717317175 1.4299455055117114 -2.4837869552667287
Ni 2.20966246987538 6.397506332116478 8.642027801085009 -1.0719417589001539 -1.946946785837821 0.6551286554598718
Ni 7.276463600553806 8.350983263322075 11.247915365199342 0.41557537437843917 -0.9728172473921504 -0.8323329419904375
Ni 3.295893945450256 4.242330053527856 3.8026717337468554 -0.3465592522200418 0.25226918598620424 -1.0252600385728987
Ni 0.011839896361297904 1.042461915518712 5.356687387662611 1.035941686656461 0.9295581795931992 -0.7595668658713048
Ni 4.567901863191937 2.7511518229575733 9.533084818850705 0.16896775755338642 -0.18053309379348265 -0.4688905408618118
Ni 5.567773693114945 4.194975996869197 11.336198107100412 -1.3115045530632832 0.47832211858835677 0.31663238275362243
Ni 7.571746874659022 5.808202190164509 6.208418146816161 -0.2101491168877026 -1.7686785768191151 -1.0279483840383394
Ni 6.735094037846504 5.996798313463352 1.8493993676429947 0.5060141851869866 3.7206634393014766 -0.26860983212775674
Ni 7.064812437410642 1.794680967321834 7.88015825238782 0.7575107546732245 -0.23630186402367045 -0.308829598879752
Ni 1.2383928956185466 5.24489255956379 4.848001246547563 0.6304481219940562 0.5653130800576199 -0.24538839970597096
Ni 0.7334110414808829 5.148323088113559 7.138168377135928 -0.2950029774093048 0.6267825002170109 0.6964087451555813
Ni 0.361234325733421 3.5502089113429016 2.56291875664109 0.332327424891376 0.5882406353880708 1.6691969390820092
Ni 7.486032254102719 3.3728822979279927 12.309901268896368 0.01569478502743749 -0.8103047585458045 -0.019762784449224028
Ni 3.3842808128310398 6.528455641160298 4.121116016104948 1.107354591181809 0.8846610619701927 0.38524407038474945
Ni 2.821431914441439 6.629558717567925 0.6892802673712028 0.1417184349191301 -1.535304170854885 -1.878338954861436
Ni 6.600947247257529 3.750369413140795 9.278755109527303 1.1073633329325574 0.43600613142896527 0.5356638897326194
Ni 1.735200438866563 8.723236460616583 9.24695445085155 0.19872210599768356 0.41954695743167747 -0.16356766958373767
Ni 2.327195256931458 3.7227899829833 8.7165816445592 0.2408905118356174 1.8605569482876667 1.0481855370208206
Ni 7.572834202677258 4.137992636998183 1.2360099886226465 1.6961618977066275 -2.246622743242763 0.4911038437340574
P 7.92008807019653 8.578133458047231 9.033771813838632 0.5702796800342759 0.6531810448151977 0.37064200420085847
Ni 5.126125010181917 4.800608488383171 5.117894489962515 1.0164244425591396 -0.0636268328220259 -0.32939379618434883
P 2.232708295075478 5.316858930940346 10.546788751215884 -0.24241440467931152 -1.1035822686235703 -0.7635767583616463
Ni 5.201150643440293 0.4977197930260292 1.247675728208142 -0.32388186522718415 3.44769224488123 -1.0628680787336597
P 3.699071488754971 0.20174910646182645 10.228964614413956 -0.6632736531645093 -0.4259032386670084 -0.8748888130747771
P 3.3265787107106823 2.751465120861133 6.736322349921343 0.17509083973198877 -1.310032339393131 -0.42968147476251806
P 7.959628108554635 3.9512394425438093 7.599328147745361 0.2536087307332342 -0.6567325096118819 -0.561430200063446
Ni 0.298986639618178 5.619412559336996 0.880528365277239 0.11194737430428463 -0.08361973100418503 0.024685418561822003
Ni 3.5240761803283163 8.00662279408862 7.916639950328527 2.41587537902642 0.7510261753901453 -0.8866976327842471
Ni 7.462774492085507 1.3196568430154538 1.2548520931285085 0.32764030382835185 -0.7240812713701853 -2.629163298653421
Ni 6.958042354806269 0.48619688042598014 5.576140590068839 -0.7283500739488682 -2.1500091710820715 1.1984971129256006
Ni 3.0628924516439064 2.0581921481483856 2.4463277062245363 -0.4545957215056945 -0.4787913449152915 0.23227474514214838
Ni 4.749771296208464 0.7333981409789716 7.253450948072909 0.43856566462602536 2.8243107999259682 1.1216496676482426
Ni 0.3391560381766696 -0.26355448965439665 11.00344440372943 1.0076955473265743 1.4121344454722196 -0.35012460097379705
Ni 3.660121187627096 7.167795301239629 10.413865665379635 -1.3672568682332389 0.3068105115671942 -1.2616966284022206
Ni 7.380635153487477 5.72979478247653 10.749721939460283 0.4219738217056152 -0.520027211636627 0.5472490234670575
Ni 4.551075922841925 7.679548997416298 1.6232563335313404 0.3438032867414595 -2.2872595429275187 1.340968109740039
Ni 5.5327211864931245 3.445152752563886 7.099798598594062 -1.0716293698660575 0.1543813750987793 -0.05031726019731334
Ni 5.338762140256873 7.055450358880734 11.705919120162617 0.4070771070994409 -2.019243378519703 -0.06211579549413818
Ni 2.3396810998527426 0.35277620380172564 6.2480549389386 -0.11563947844389115 0.2328840965913731 -0.010895306756265107
Ni 8.021955962074612 1.7158589006438496 3.226376826508001 1.5000851997515907 0.6497817893256616 2.6195597141253852
Ni 7.808065640385418 5.997756636462477 8.509926661513395 -0.3416453598581923 -0.1937861021486469 -1.2523511826315787
Ni 0.5002335479698864 1.9397378966700725 9.466866542540052 0.00881656985036546 -1.1636332111688799 1.685988556718051
Ni 4.626000195013855 8.619534854538253 5.623290081625761 0.313886187467053 -1.9022183325821949 -1.8367469903522624
Ni 2.3370641408935953 2.542126833417779 10.970145443903125 -0.47740269209788105 0.9571281187916678 0.017263672176454137
Ni 0.3744444396905824 4.7672791202309295 11.958131304243725 -0.3746511253602516 -0.17945477312763933 -0.41592530151869017
Ni 1.8460986820825487 7.6557844299668565 2.382266578126335 -1.0600876877750451 1.6637276884373218 0.4801010648656505
Ni 6.217120456819748 0.9085970930429402 12.41951959802987 1.2837340678182343 -0.07020757136333715 1.9314810861020542
Ni 5.910908614666825 2.8367005799178733 2.662342003406983 -0.7602824038810907 -0.20403323379795185 0.5873003829619885
Ni 0.07791350275766074 7.038937716434282 9.886878319374578 0.5473582953514122 -1.04433299604395 0.18356416731032257
Ni 5.809612030730529 0.40477812700613736 9.416426501531328 -1.5055130556353813 -0.1788546776497952 0.16951565963705645
Ni 8.730497600263794 8.581994393976398 3.684083869927318 -1.2069856100125858 1.8233867669952726 -1.224093473337466
P 3.0517703760675294 9.305224175056004 1.0702385390625646 -0.8133232336571541 0.03452348769816635 -0.5035652094258617
Ni 4.723785999501436 4.600199191191273 0.29138087227705 0.5643787411688087 0.2232028647478672 -0.12754008653621907
P 7.66477792272787 7.6855293015166035 5.340300985842005 -1.956177817517786 0.983905386885512 -1.773286507904772
Ni 5.762046037254756 0.5641232836855522 3.6190920627626593 0.4203650824575986 -0.3604033571919858 0.021367667042498685
P 2.056542726832585 7.123196423203454 6.596520532173111 1.7348765406680056 -0.6411182001133926 -0.3887952780711175
P 6.992136538428966 4.514180487375634 3.5441880628080185 0.08979346391506471 0.5237514545657497 0.5895657819573975
P 1.8851779882295363 5.610455925152872 2.801806565176677 -1.141841312104769 -0.8238413595796586 -0.5181652187272238
Ni 6.064000713776953 7.1900947402577176 9.450669040926005 -1.5350565736204531 -0.9055548747000662 1.4347421555694064
