# total energy = -381177.7448549121 ev
CRYSTAL
PRIMVEC
9.08428541646293 0.00000000000000 0.00000000000000

0.00000000000000 9.08428541646293 0.00000000000000

0.00000000000000 0.00000000000000 13.29576996064543

PRIMCOORD
 96 1
Ni 8.914127376705553 1.1914130779453034 7.122942542195811 0.6545730400667179 -0.012186771874179011 0.12463782528775956
Ni 0.8849792469476416 8.075457090020828 2.0751241586900098 -1.4341526016145236 -0.5708748904161136 -0.1308544956214327
Ni 2.3078444664992905 0.14807929804847247 7.9403001875574235 -0.18063285259614054 1.395157708408565 -0.1397119460120626
Ni 9.342551347311788 3.972185427860142 7.169185187177343 -0.5562676820259002 -0.4420430816516645 -0.04117673134862586
Ni 0.8998983684023737 5.770955640446181 2.99662677396789 0.5373903855054228 0.4908166515109418 1.1423277648228842
Ni 6.227949687758946 3.65608864277894 0.4822111143810174 -0.02547577567360128 -0.4716768453576973 1.162452046376585
Ni 8.72402962625696 7.913229926324424 4.435189638209168 0.5495887273438278 -1.4964172639817004 -0.6718986758293589
Ni 0.18802562501242157 8.565181816625683 8.973008987576367 -0.3634066627946838 0.42092866827055253 -1.7240002600751343
Ni 2.6833888134143646 8.860957055890509 0.4363845296580425 0.8724838031777103 -0.9096593837867432 0.19995109330877822
Ni 4.745385271675565 5.72715121759121 5.2811328035620155 1.7955923704908239 -1.6523988936880638 2.475668697034968
Ni 2.5862687211824085 1.5893956091100203 12.261372127644147 -0.01610616153324323 0.6748083932769862 -1.258602048637297
Ni 7.278474587757809 0.9605723087276223 9.914735038391314 -0.8315176451779938 0.6052189151136222 -0.25692159715655105
Ni 6.500986961365125 8.17199578800502 3.277273953220193 0.43021652133038163 0.3083927684526495 -1.0486159396900199
Ni 3.479253948607463 4.146576449333985 12.613058416545117 -0.07837313789326503 0.1484369845898863 1.4470389706588886
Ni 5.530403770433816 1.334018185779673 1.266686372889014 -0.35373468692255855 0.7541310395677141 -0.43103207525314147
Ni 6.556501027741469 7.317882216614064 5.362676072096456 -0.34934118584055324 0.19750777397460823 -0.3578150276395192
Ni 5.769920031942352 2.57673022180503 8.913204413337228 -0.025489145410039975 -0.7646067422880574 -1.6868956419133527
Ni 9.099183348911819 4.662345821381645 9.978049780401328 -0.7031746031245051 -2.5154693739716745 -0.09091626466559825
Ni 7.576212032608838 6.331337936724608 11.078966118396625 0.17888938754247258 1.4532412428148584 -0.5319126502203033
Ni 2.804682188354134 5.133493184913415 6.323946962349908 -0.9157048186498746 -0.12884877804531358 -0.5646893304306919
Ni 1.5551932756282771 7.129873851743372 7.391145159260428 0.9366035164757548 -0.2860120867646042 0.31961949040640436
Ni 1.0004523204101858 0.7689265960943577 4.022010006465007 -0.24687783976730385 -0.7078028459251359 1.680131583716642
Ni 5.914996065329718 5.677069553717413 3.108510646379003 0.5145695309561655 0.02393902731410071 -1.3670889751968067
Ni 3.8689788645969068 0.16433290098752545 2.7563328976529706 -0.8812723480036178 0.870029942320579 -0.512195117186718
P 1.7788665438852425 0.4964234784533113 10.631190803624968 -0.7384506527179798 0.2649020442588664 -1.1417001585412143
Ni 1.1219273810523815 3.3035275372207873 13.214598883422674 0.06613134441143449 0.01821009525012348 0.16425415412780098
P 3.591944505537349 3.027065488123873 8.403644150169987 -0.3594325086382842 0.946179333089648 -1.5573940607753887
Ni 5.232193942756479 8.768306431938239 9.352124366972628 1.4503418097798764 1.3003017423689283 -0.3828354609432568
P 1.250433678378473 8.748293751815988 5.803044969208707 0.0014963820398683906 -0.5305980451739378 1.8434511418453154
P 8.1007204869432 2.8088518752248164 8.895548196775444 -0.9506337693165758 0.29691690660256603 -0.4446622644420664
P 6.100588010358139 4.112782908682702 4.607954572646296 -1.2306510719503256 -1.7589333245068934 0.42507637189033887
Ni 3.181543756611798 8.037875402473958 9.981014891064925 -1.3818586773068138 0.41656422065426973 -0.05892248536782111
Ni 2.3379225345359576 4.846193583666774 8.590037329146108 0.0508196537550286 0.5062507266778249 0.3712107322201349
Ni 2.994225797410327 5.921545834902185 10.861992510416627 -1.3964923680595887 -1.4338242717408274 -0.31690594812998324
Ni 3.603427041930689 7.713584592213331 6.227857936479221 0.6024205264328786 -1.2626168262236448 0.7858018883084337
Ni 2.1732880352824044 7.398087369950135 4.117261461247509 -0.4472282253970298 0.4340752329548395 0.8896070931215582
Ni 4.038700563518395 2.9675543362941523 5.365481299341918 0.687614543902719 0.8090392615698196 -0.189503415612893
Ni 5.30727555928413 8.1163636259221 1.2303001772641073 -2.1654972394153416 -1.392114550706867 -0.6944215395222234
Ni 8.797948454289084 7.206499796741647 13.16664112541024 -0.4714986679086203 -0.6607868821869136 -0.23824793200644773
Ni 6.52169913144172 6.34532773581143 0.16361887617699028 0.7883876467577391 -0.5998494232715927 -0.05851316574454439
Ni 0.37844586758282117 0.710238480496628 13.078676175723544 0.29772346166426145 -1.1273847703598068 -0.15948732886677694
Ni 2.5183818584708377 2.206082304570344 3.457219106617207 2.6275180497405137 2.731878098615844 0.8922041644247731
Ni 4.262119471791964 6.66251463510719 12.500057177064082 0.5771746073818963 0.7463256845906824 0.18150162835433903
Ni 4.684974775618835 4.375028051564761 10.03657710415241 -1.1331612678322678 -0.6568093855964043 0.9661832870154006
Ni 7.448241708104903 -0.36421715179730885 1.0234282943390103 0.8750718756198608 0.37734409881138237 -0.04023262226780168
Ni 6.7384683430064864 0.3757260326175001 7.630056407379882 -0.08783145509268744 0.2534279821809958 -0.18556320001822235
Ni 7.962893713082641 4.41895965441143 12.298148039100758 0.8051615237819681 0.22735519635334392 1.290997691359183
Ni 4.884502014023351 2.2800283854578307 11.857020604180878 0.08553108909428496 0.016998591440525564 0.21469508438717216
Ni 4.553307147070527 1.0144330352118864 7.461266756111842 -1.5827078569498292 1.2142407489131024 -0.44631496955414096
Ni 4.555105835524546 3.331370871117611 2.506372433540462 -0.5596939340986297 0.3811331335401694 -1.399100495106397
Ni 4.4643084057370235 -0.13677935578607142 11.838446874821841 -0.5523362081819778 0.32982728417734164 -0.06489721489401726
Ni 3.7451418898231696 1.4917032069154215 9.771459510314992 -0.8453846329680732 -1.162415793822011 1.4798565314095415
Ni -0.09901507410826171 2.4313453227235393 11.39886195151556 0.7615203900532498 -0.6035762373038767 -1.574873448507075
Ni 1.9014317187419958 2.3961073807379667 6.569053692922099 1.4692864692031793 -0.9780183319771156 0.27478690747274614
Ni 2.5690812537328847 3.494170344776659 10.642718761443913 -1.4702609173013066 -0.5367026154097789 -0.46400338797283963
Ni 5.827005679644681 6.804829045817677 7.435326579947933 -0.19398433420238204 -0.2686733383758405 1.5782253956984431
P 3.749229818127761 6.817410780710695 8.261538678017288 -0.5940251032803319 -0.7492636841730838 -0.16954856975752092
Ni 0.3317008616340816 3.023849651190928 2.9776805889188798 0.020062575077829964 0.7022798592243775 -0.40083909660952904
P 7.978473262065693 6.634244339809665 2.303465841070818 -0.198135123145962 0.3210631648314664 -0.3764400989398743
Ni 7.489175496861539 0.6035135736059081 5.238320384642293 -2.2920533647717365 -0.9537730862765059 1.0152661605849804
P 8.461820820515385 2.0315913559601664 1.0639541986936991 -0.9791051372833912 1.097077634735833 1.0947055349592307
P 5.174853935070752 0.09804033031474482 5.668146060442747 2.2847329198509234 -0.18783656943343133 -1.1038506917936084
P 0.9234811725773019 5.237907958097785 11.86929256495126 0.5564664283002674 0.31865044162491574 0.10642927269953284
Ni 6.677685391259782 8.417026210582193 12.043613637429669 -0.017486329710221498 -0.590648473498615 0.02099485708411223
Ni 3.4320792559724853 5.053733161548288 3.6520288757582247 -1.3635390530620195 0.04623100594308167 0.205443226771601
Ni 1.6313377535151217 7.704563897087867 11.905284502601901 0.448302432297815 0.5093172814182906 -0.41506526751124
Ni 4.443632572800916 5.535036755845686 1.146862835281873 -0.8952419228098324 -0.05047923969647436 1.6566062469011922
Ni 8.206961201436954 7.870869904803741 6.911021613600288 0.6402951899914651 0.309843384856247 -1.0422064366192503
Ni 0.3325711361487034 6.0204827841584025 5.788632750863743 0.782902969494084 -0.8123765534731687 -1.5859063092824688
Ni 5.1076393094581585 4.4155167103504525 7.332338039527609 -0.6668994228425548 -0.2060572062065161 0.35605485041530294
Ni 0.9685301424938925 6.630474361484319 9.819949607435536 1.186747171478524 0.6511665854883302 0.9273958818345576
Ni 8.940807922106849 4.835937425764811 1.2604818061511573 -1.6616857183066287 -0.2679793976326094 -0.5958634420406512
Ni 6.805319597214228 3.226892507937392 10.744338300096457 0.2740880816335086 0.34551975521193395 1.2263059076077525
Ni 6.637432923887245 5.022119849326119 9.25632876351136 1.9037360547783022 0.4813897017700871 -1.9085231917543002
Ni 1.411134682174498 1.2110351338073395 1.816933332257592 0.1559857434714217 1.0243735222028876 -1.502549602131683
Ni 1.0924216229783572 2.472833252872575 8.861231401301174 1.0361620301973833 -0.7164582076072887 1.126809871692943
Ni 8.122568192659957 0.6650723233019726 3.0422580465607565 -0.5285283071291026 2.306644375212034 -1.9560754876119668
Ni 6.843173813314738 2.7314628502763525 6.587029676320153 -1.1889135830022233 -0.43623933048569385 1.2426455253080404
Ni 8.024185384796139 4.914961622035112 4.028830487734089 1.4343539189920524 0.43227006142530067 -1.4771213918665658
Ni 6.922379695287466 3.171260345854472 2.7220824174600846 1.1648105193064326 -0.46096974335283836 -0.2940794371537709
Ni 8.740962733723089 6.013969351726422 8.037810904049596 -1.6686438947920164 -0.39519861049430005 0.849185237661086
Ni 8.463128957572856 2.5545282289685414 5.093994713205947 2.0669815651359307 1.806661740931108 -1.1343200640270594
Ni 2.295980390130856 4.273765525317486 1.8787055626540075 0.1060610907268367 -1.5052813992405496 -1.3054997416301
Ni 5.139725004506635 6.704356852375957 10.099851875307891 0.6399696883312462 -0.9499511414272543 0.38052995273853174
Ni 7.094962944022168 1.5969173971904673 12.606596764538327 0.34546730470744375 0.019307442079360294 0.43339440483773106
Ni 1.7904399231297952 6.175460688328 0.43456040520568284 1.0256187074638983 -0.5391019688798909 0.36155418296697733
Ni 7.3462615233330455 5.000571925018365 6.116492776748535 -1.0555435200477885 0.8383446954021561 2.441222599541957
Ni 4.467360725537785 7.319199437956654 3.914247674213433 -0.41501410255833043 1.707079058839763 -1.2398129409552519
P 7.193082307617467 7.473641369304094 9.138939814316732 0.27114262585193943 0.11818795589735774 0.08617977842187738
Ni 5.452642289795378 1.6474714438905733 3.6856407307070826 0.4339070828080914 -1.6951529968261385 2.3076321930465995
P 1.5411398865456063 3.832487291264593 5.094300853614535 -0.5320463475846902 0.6455345840135334 -1.4831940804232069
Ni 8.800464801267687 9.005760560724237 11.040846641170573 0.3812717160005627 -1.1121471274744459 2.160885708785259
P 5.548408823544259 4.661192117171238 12.129464673968634 -0.09918647509419047 1.4325320352919653 -1.222341523643366
P 3.268680219495431 2.2827536709942247 0.8232088334082506 0.7298479986506334 0.6593187822818194 1.7581715066402044
P 2.9223236806751354 7.344798953428514 1.99715737320783 1.4949525065107157 -1.0515184580487953 0.44359628507139726
Ni 3.166100471905566 0.6139305233545176 5.197050477336168 -0.3152941235581731 1.2243618965075043 -0.6655449656971892
