# total energy = -340856.41910874797 ev
CRYSTAL
PRIMVEC
9.41948429375235 0.00000000000000 0.00000000000000
0.00000000000000 9.41948429375235 0.00000000000000
0.00000000000000 0.00000000000000 13.78636739996960
PRIMCOORD
 96 1
Ni 0.44553408061375255 3.024408078856802 11.522976883423894 0.4158365984596258 -0.769650732469868 -0.48929918642515086
Ni 2.7472209088788557 5.318401072193508 9.084168735595025 0.7918213550296364 -1.2154939045939133 -1.3463897949762424
Ni 8.683719133577982 3.271104377552641 3.0004929496945705 0.1243246649227149 1.9147915412615153 0.46394039594538805
Ni 4.988266979918145 1.0537859879343063 12.060645767643358 -0.998579443957919 -1.0136252825474479 -1.011859706006593
Ni 5.399775998670535 8.280508680658011 10.397099812922244 0.5335170185929456 -0.8042608663445697 1.1681732651310786
Ni 7.690104812542074 5.41087215139538 4.463819284123632 0.07744419832109244 -0.424376774720153 0.33249428948654347
Ni 9.170065956573916 4.051800671260535 13.508669207575998 -1.2549600810093355 -1.317420404327086 -0.2856145942158694
Ni 8.196703527183523 2.740749723036777 8.323340018565604 -0.2630621628366501 -0.13985309957561723 -0.8558654778947389
Ni 9.384679491109464 7.081285852255446 4.107358674657549 -0.3650218298006036 -0.3517878476088328 -0.607471972813857
Ni 0.280539564506616 1.2180052804682215 4.0461744131768755 0.5602228100189063 0.7125393321688568 0.8286858321561535
Ni 6.097938769309589 5.16519315702406 8.817167796140547 -2.450504281954199 -0.7297071021973949 -1.1986187261051293
Ni 8.67761530763087 8.120141957278989 5.862583529935239 -1.1046490193251879 2.1009011007015106 0.16651852468194547
Ni 6.96898675820994 4.732970691886328 12.617310926226317 0.10940583882935351 -0.1764095585434123 -0.2748259882407977
Ni 8.743419826252065 8.069606423010063 9.927508368930516 0.34313788524331873 -0.9166777240861052 0.4187347459430272
Ni 8.875857778129252 0.9623981494483567 10.055211145956445 0.30401880775467 0.7562015489434977 0.1613212967517222
Ni 2.0505464167886354 1.0051060921091788 2.40194405334334 0.2855821983160372 0.2731522000828005 -1.1215041432093138
Ni 4.406736266188289 1.3386594572530626 3.2660593016617856 -0.3412902905116187 -1.216939378791188 -0.2906151327542543
Ni 3.460304142944187 8.843953984174199 4.476309520552447 0.8837570620986844 -0.0821832556679746 0.7513059114140933
Ni 3.0503399196475485 4.488469133075795 13.069021362817729 -0.6582875128038276 -1.2811917610123549 -0.05468864979213162
Ni 8.293677119969841 5.857129648417679 8.665655388178633 0.8305917909296148 -2.4133914362623017 0.18792630093376023
Ni 2.5292446183817043 6.328047355825076 11.398569042071268 -0.14738926005166228 -2.1647889004944068 1.147235743647463
Ni 4.83726322411849 5.88375853106041 12.431236545787321 0.7440399738802993 1.0423041385393792 -0.4786615042056466
Ni 1.4058109621557975 2.299136031866217 0.10989053186236176 0.5266542300348414 0.5197243356842275 0.06976328473706696
Ni 3.279139197819443 5.838234162538189 1.185573995381938 -0.46325622539416994 -0.02078556928678356 0.5871628289428598
P 3.301190211001839 2.665497461475836 11.76707811414376 0.9357098010168917 -0.160207237751937 -0.21550498188297723
P 7.756304949511694 1.250201078442348 6.50140260636224 -1.5965758731811728 0.30115511305362974 -0.9640824386223137
P 5.208588722052381 4.782545438737652 0.5976926652114268 0.09743863916514832 -0.4205633145113338 -0.2398124482800902
P 3.8487825221276064 9.04537082094446 7.300860629269919 0.2998729039070964 0.40842410804563856 -0.9302276948563979
P 8.249066441442789 5.478946765777771 2.425766871557607 0.7678116223786002 0.8480850626183717 -0.7658784099116295
P 5.828598029908719 3.120486820616923 3.6656573822812657 -1.4804882514562696 1.5791173113850934 2.8073960264485005
P 7.945768460468856 1.4752890797266454 13.39517949069143 1.1710888961159767 -0.1268397180350848 0.17529292844046584
P 1.0347586292720081 5.571399006010671 13.467778283472581 1.7831392323291355 2.342643419014462 -0.3392082111716093
Ni 4.470760502241577 0.6185671847814859 0.7766063535439487 -0.09409646216579279 -0.4315838339915534 -0.11341547420937886
Ni 6.060402123631738 2.5846406066455545 13.2850261552119 -1.6061082381516405 1.0490869657891675 2.9700388702251233
Ni 3.351970651867408 6.405918234073205 3.9039128809289427 -0.9610943025282676 0.3124137166865846 -0.0979752283949087
Ni 5.313936236547007 7.070396928189298 1.0843239566388465 -1.9658618775747696 0.9872519347602418 -0.1210663058864173
Ni 7.554869273772461 2.1634860357792083 4.5768125941757765 -1.6053680175515062 -0.5322913737159607 0.5907361481164148
Ni 4.387577034743182 4.614633708285113 3.054865981943209 1.1843647872892766 -0.2952647157111237 -1.441369431077937
Ni 0.06305968084189222 7.5106353746248615 7.79313042411083 1.5266716919908674 -0.453912836506057 -0.39205672243120865
Ni 7.324770106741459 2.41552318217877 11.562806231625707 1.5426644678746981 0.313394335432299 -1.209115254761079
Ni 1.6240792566720235 9.03032790421986 8.564050234870408 1.661335019835429 1.0711812265850456 2.163458868829074
Ni 3.3074447487007332 2.437329288764523 6.871125849985015 -3.464707548492304 -0.2035112998562108 0.13919078340126997
Ni 2.626180533230077 8.528919325530355 10.866235353864836 0.03361665961318081 1.3594345439753426 0.3608445584944624
Ni 8.579812800209758 3.821795699074396 5.9435647219607395 -1.240976879356366 -0.31936829362754676 0.9497202563633707
Ni 7.358774445736953 6.57409371009136 0.5590237974983243 1.973005430598086 -1.0740968575699439 -0.5025863904523602
Ni 8.068928220127049 8.528033893988644 12.124490091542958 -1.4983967563055742 -0.8782219912130681 -0.051066479658512055
Ni 7.19782371431978 9.136005100671506 0.576802132517741 -0.6659733114838595 -0.24897765971912603 1.3747560048237615
Ni 3.5580124555204344 2.795467508417614 1.6375029640134302 -0.2690340641493689 1.26705017940465 -0.6994269631566148
Ni 7.335593094416203 3.938305302685271 1.168120632577298 -1.0810730317774606 0.5240072793302976 -0.1206911819351857
Ni 6.216379367240152 1.7899375395065527 9.60053733954565 0.9169386910569757 0.08214057535549725 2.3125316872307464
Ni 0.060001174229195056 7.784092428746238 0.42210311295411546 0.7086279129295925 0.012242050592146659 -0.28421977075087185
Ni 1.0834762030350809 4.47828667034612 4.797132452413115 0.17679933778266327 -0.5675383698437129 -0.4113893613215496
Ni 5.080869931902826 3.6520471691470306 10.678631249145266 0.32929815114674904 0.7461894161231343 1.1382597654010977
Ni 8.962187353446065 1.4703909477937764 1.64716735509636 -0.5103305531741533 -0.699103518378925 -1.3609715494451595
Ni 0.9122912017235567 4.744311751207817 7.458080302882076 0.057694012277358694 1.1298363172240928 -0.4799370284839605
Ni 9.1761226850986 5.732001216501852 11.149476426522119 0.7601875301744392 -0.2533976431636927 0.2623317124285288
P 4.937109759673125 3.9051769757470023 7.250140473105063 -0.41224939532899973 -0.150841737376637 0.4687321609070766
P 5.996462662938826 9.126726908452515 2.8381443667796318 -1.051617702630821 2.108626751480543 -1.381801084596001
P 5.97119018606212 8.046726495192873 12.871200885224331 -0.6864961140275596 -0.28301238070633195 -0.6241646029781895
P 7.425652785589586 6.4492290237411485 6.474712497070349 0.3738605111381561 -0.3348342504736298 0.802165931488754
P 1.465869595240359 6.991160224690659 9.69927520177625 -1.7257339549367892 1.6464074519913197 -0.76515978657805
P 0.44777497597304006 8.952174441437142 2.3512370844567636 -0.40611705717901675 -1.050217736959501 0.4195914375163677
P 5.20681785896896 7.141391582762439 4.599642598725189 -1.1475054523690817 0.13430928693925254 -0.38166200946044593
P 2.35031209108021 0.3984159353164513 13.667832120837677 0.9275917998954476 -1.1537321500050841 0.46261087850068716
Ni 6.349260034888193 1.9663833229036674 2.17628805714452 1.9314214365087123 -2.2522483169596565 -2.7270693643732904
Ni 9.349441199646266 0.6448503723435705 7.644733981616978 -0.2301695258736875 0.35699356017948847 -0.6156308544755655
Ni 5.61865655967837 5.328272691935135 5.643587109268224 -0.17346950207848189 -0.5321718174189609 0.4688537740866054
Ni 0.4477768598699373 0.40982010518399814 12.426411885833446 0.7158897366983284 0.9124035221907836 0.1894568786456737
Ni 3.146908474600956 5.118312382735814 6.442755954002173 -0.4324382115720488 1.1828725190144662 1.2932201529317984
Ni 4.062105587288531 0.3615631442123048 9.393011025137584 -0.4646217382831288 0.6277487207850221 -0.3762012434561908
Ni 3.4971720052235113 2.8773699260258736 9.089338148681097 -0.02782499263206821 0.34074135998668414 1.3332923383623358
Ni 6.834071481912861 7.594930341292637 8.415226147780878 -0.07841170444068432 -2.077239495418513 -0.9537530316718477
Ni 3.260714686164267 7.607448836174912 13.250919143835505 -0.24059972006807595 1.786429473044633 0.7062468142919257
Ni 2.7101646569098055 7.204115929956619 7.701836780469744 -2.804515876687228 -0.19785487290138182 -0.8983547574072013
Ni 1.3571687442686151 6.796638450564361 2.3755289929984476 0.6611645772413064 1.4921494898442818 -0.5185449706641457
Ni 3.839984723617415 3.6307120367855923 5.066849029244988 1.383792918215049 -1.08227116585062 -2.392829038729918
Ni 1.77432003422829 8.951241912473 6.121712606204525 -0.1510214574876109 -0.2226577908776746 -0.01884798594443851
Ni 4.7860306479975785 1.3183887266385745 5.499409653875778 1.0101499224043378 -0.7373877586711043 0.33036001675236004
Ni 4.851891683525692 6.9605657390792 7.49783994689869 0.9471527527465106 -0.42001206999355406 0.03425557874876036
Ni 3.177295731553716 8.320089354469387 2.2899021112243108 0.2749182908442878 -0.4780166715327961 -1.4732572809254691
Ni 6.0776680386951 8.422771154854395 5.9773825551634046 0.6367792064184066 1.2774958002180063 0.514400609478469
Ni 6.67375185595627 7.2029290749113475 3.086699129764614 1.1689147712827934 -0.952993527798004 -0.39347648559687076
Ni 6.879972629814535 6.224913420184727 10.709870969444035 -0.4930373133113444 0.8175089896037275 0.7855627757144342
Ni 1.1004218556259098 2.8703995075060216 8.738309755918255 0.4335571556678404 -3.6632663894392463 -0.7090158923966305
Ni 2.4121415872481933 1.6493423140642434 4.6991933624669535 0.4710376691118016 0.7614306585529208 0.98674465610652
Ni 1.0625084305686074 4.689264283869959 1.8063312103064852 -0.3715426616382569 -0.8158033197665305 -0.9055335345438275
Ni 8.013193130421694 9.326523593891132 3.718789868423061 -1.4042095341981882 -1.5978426557087384 -0.5355201650659035
Ni 5.1219388842630345 1.7154859341269457 7.851846780656095 1.0624034803924154 -0.48109633889938436 -2.614211048218962
P 7.40575883435455 3.871869678603494 9.925551000054266 -0.37504604680582504 0.7327106649104091 1.1476445490501073
P 1.3739071682007458 3.1170298698104557 3.1724917944657096 1.7592400571140347 -2.410382217122333 -0.5467628278592583
P 0.9263243497112261 2.7395722874759914 6.311812874312961 1.2560759397813335 -0.7981714656173803 0.723109137264903
P 4.313568145134431 6.323356452550905 10.035923809522325 2.469420916353044 0.38841475480324716 0.8602996024066927
P 1.1288404403210355 4.407254337835035 9.987644241787866 -1.3525200762436964 1.218255012278818 1.545619436737964
P 7.10057695648336 9.416281861560954 8.996514780759439 0.8138202278982306 2.5006364227238995 1.625644251302039
P 1.6926719427011603 6.37838508091979 5.279916826376336 0.31430810549582 2.779505984906452 1.286086884321127
P 2.1729808761413847 1.1991003751042448 10.211507710088945 -0.9518848681148574 0.6775677011896782 0.07549401657325708
