# total energy = -340886.5706899872 ev
CRYSTAL
PRIMVEC
9.12828183745190 0.00000000000000 0.00000000000000

0.00000000000000 9.12828183745190 0.00000000000000

0.00000000000000 0.00000000000000 13.36016316998258

PRIMCOORD
 96 1
Ni 6.551879155647358 2.4486525109135253 11.595954172001784 0.7686392604862182 0.4302615156357042 0.5990151002957554
Ni 4.805666199102414 0.3892418100854687 5.928158253699154 0.8687657308961747 1.4101235856897778 -0.5363148930530569
Ni 3.340293965731706 1.9511885282434895 4.7510608163413055 -1.0829455662098253 -1.2971032900362887 0.1858290520850993
Ni 3.3452414945609474 4.23896419766892 4.764501298718011 0.8606060779035178 -0.17858779714165374 -0.06786761037625086
Ni 3.9295975933297784 2.214457308620143 2.3538607795954944 -0.751533454043867 2.1405433976834813 -0.6635991548247281
Ni 5.165795179492129 4.380881597499572 2.5710965468116673 0.09777313968643161 0.48133133772832587 0.32972521138183863
Ni 5.189802561080513 4.9919379210387556 11.186505084113197 -0.35819735067960246 -1.3971060903841876 1.445751619306033
Ni 5.97422321584654 8.141569461205219 12.737686819340729 0.12111541395679788 -0.31249779175995857 -0.5282855949906772
Ni 2.174055532608664 6.982925758683521 0.09824496038832949 -0.6975783399836502 -1.7846685244894682 -0.7053626119147594
Ni 2.9274035155393827 1.4450709342632682 0.16892889901627514 -0.3428334666290225 0.3590417009577687 0.3008072427959077
Ni 8.097196882535584 8.916378035053919 6.947632169264003 0.1911206395013418 0.34131343044007023 -0.03382491896924497
Ni 8.783187272789235 2.528333284253833 1.1148909341980147 0.3057208780474412 -0.8135435771980764 0.026405486576722266
Ni 7.221073507071113 0.5959216320283306 4.629911170826902 -1.6799428647446035 -0.539020207799362 0.08195082794219435
Ni 1.076142290051804 7.464177912569918 2.2660576609558163 -1.5065576948498118 -1.0836994136567142 0.01346512436597036
Ni 7.7520839259910765 3.9398030125753354 3.700030429996591 0.14028941578208742 -0.00146552880193296 0.2434258766629614
Ni 7.955708511957653 4.631370783114347 12.655655513392432 -0.2963211820000961 -1.4398277976224299 0.7011560300325795
Ni 8.25913260473252 7.183090725782416 8.977268239953279 1.4281447048575469 0.9127477929040797 0.9672222698028763
Ni 7.038416584795988 0.9350099224708102 0.4576564578149838 -0.7118039966647289 0.02264987618903196 -1.8478762674962048
Ni 1.8842143234092774 6.498652143464137 9.368186915437146 0.6559601502222316 1.336311070584002 -2.2163819420803508
Ni 0.3702924095381959 4.8548676389356435 1.246273383803893 0.43461439328776114 0.5260790742576618 -0.6070312857320126
Ni 6.596370401982638 2.008240290573301 6.987352062612117 -0.05330642473262433 -0.005649484976293496 0.3951104216558679
Ni 3.6237362492681813 4.506012086782301 0.1735377685843266 -0.4856487341567572 0.334320801172321 0.138137145325775
Ni 6.2295503909068835 5.616166355464645 4.720025570462085 0.26351750520651396 0.14951016304940704 -0.2530443735893319
Ni 5.784774851783675 3.0279241566235235 9.375628290901348 -1.099404225986481 0.1279866871553344 -0.31889058266017983
P 0.4351424631573444 5.929111246337111 12.120487162033873 1.1972383008178349 1.0642744721628832 0.838112524786692
P 4.290949763503844 6.38278686038377 12.70745303661872 -2.0072206430272144 0.6912403135807644 -0.7405437878015827
P 2.3344394468702294 8.740247834389326 1.2328475066783433 0.6524827331965924 1.5188974473620873 -0.6678373612757917
P 6.473229878169973 8.028397021306818 5.781023127892867 0.2809922649525096 -1.6043413760592047 -0.2399150352962255
P 4.968204387909553 1.2912958961499883 12.69382542446157 0.15545918154399035 -0.15015268172941235 0.5549134819908508
P 3.833997096228961 6.185999357614799 8.081949913156466 -0.11398214534612627 1.581736237065179 -0.3741412756033685
P 5.020436417357742 0.8546326612159805 3.4119856666894455 1.1979268422444274 -0.1835348567342839 3.324080803975456
P 0.3657072735032736 5.4799450035850015 3.324796881426535 -0.5063222033457087 1.2065446658204253 1.3527118805395284
Ni 0.6294963659523752 -0.15283573789828198 4.114382318132755 0.3133567973261442 0.732992457816886 1.0851867968355182
Ni 1.9200337018704263 6.946905558018972 4.442147887616211 0.3878923066408739 -1.3828081857042767 0.6901301112357211
Ni 5.830489287903307 5.935008116491521 9.226903018375404 0.29150113490363344 0.07450182786331684 -1.1128539237334836
Ni 8.594569582385892 2.5662521675687184 10.152227833673106 0.8575708906216198 -0.19459162876907776 -0.4264064035556721
Ni 2.1640783204124268 5.441587962735422 6.441562955178238 1.0506887630586486 -0.19759519148209195 2.1008900449579175
Ni 0.9219838640956677 -0.04140953834127291 8.904655495344487 -0.2770710755212325 -0.32078651413131204 -0.15762944972243176
Ni 1.7792025675945338 1.236699641670852 11.389846693338615 -0.809236208071974 0.13866190748099344 -0.3146909427565354
Ni 4.379512355203656 6.829862726564117 1.9552999064440248 -1.440134016008939 -0.619034737950792 -1.3407038003350589
Ni 5.6302695511125735 7.903001811846879 7.780705654116696 0.1854755254004225 0.46173953163932735 0.9737927239315423
Ni 5.733446522250791 2.62653534171689 4.731541810998932 -0.7372476335488142 0.3167385693141836 -0.3905132892034887
Ni 0.818478274806431 7.467281528440659 6.854030765915222 0.5617839838584389 0.15912686020356465 -0.15756671480529638
Ni 5.170651425501642 5.086278715227331 6.7302220518621505 -0.36536558629326754 0.4477391035951773 0.6391806167710476
Ni 0.721932087693234 7.94327579191074 11.071220359766297 1.0472015758409965 -1.4890909055236161 0.5219961624375398
Ni 5.121632551307869 0.8825204754709893 10.566753159166751 -0.7602371524654521 -1.807373936506784 -0.48224407935058244
Ni 8.206535444005421 7.255852261387365 4.459088153301277 0.05450070215104163 -0.3299396413854898 0.6634775416451992
Ni 7.451370932962121 6.2776655651853535 7.089049339242548 -1.3374636961312063 0.4677327731082847 -2.5607231036031513
Ni 2.4126049254030573 5.22008107238419 2.678926203271405 0.8438059756270435 -0.4773363576363199 -1.0493769862257605
Ni 2.539195939801429 5.455736799793216 11.291890186660625 -1.2265239371558296 -1.1365160432371135 1.9617468269651313
Ni 1.0724362075708596 3.3733292181911603 3.8705732092656517 0.07375003729895685 0.8618646329009673 0.753001039728329
Ni 1.499365955437303 1.5742361241779608 2.5421315952838714 0.4008408963817419 -0.848323918102055 -1.5023999639276964
Ni 1.2714053697313228 3.3107913583957145 8.283728760508149 -0.805117043697278 0.3885186273709631 -0.8528089504566023
Ni 3.983737433710276 3.2389335227060703 7.271028030167095 -0.7808080346382682 -1.8774799492952503 -0.3647076409942945
Ni 4.163555460291868 7.2865141605338986 5.9178442078981215 -0.09887845693546843 -1.999364123097273 -1.169967380917024
Ni 0.3864065657047264 0.038776941820326094 0.05159213688189761 1.0736980794696283 0.5396115615264577 0.24076067112597246
P 9.345078669623078 5.508781246336981 7.761159263928405 1.426593044099711 0.6451928844033985 1.0779278012802596
P 8.873712445113192 1.6042225304585096 7.970459815625648 -0.5585544211775477 0.2529083622320999 0.06418193399454752
P 1.8711791367521624 3.5248769555030846 10.307111958046077 -0.18526083828645512 -1.3510059535920151 1.9769279055809437
P 4.153067064305156 6.021389048799842 3.9625707734718176 -0.061242134639933235 0.23907557011406572 -0.22817049316578766
P 7.214464630922826 4.340169459901018 10.534274731907637 -1.2324251331316127 0.0940532676326832 -0.23953579757993584
P 6.561153490131692 7.979624610726309 9.962246377943032 -1.4302157284539627 -0.20963438203481313 0.7181314815446534
P 2.5271100944694815 8.77661490976884 5.407485614113352 -0.5254733223528627 0.9016491118877569 1.742191329161864
P 7.350768137340226 4.085015722198158 1.5459713118774765 -1.8792812641700474 0.9700376277644842 -1.0235715951268824
Ni 5.49826546550435 3.170653973549752 0.4161437698874186 0.5450926392456871 -0.46283867824077707 -0.20757107174788125
Ni 1.7820779764159564 1.2619119564796422 6.854551990815867 -0.7180378933895828 -0.04414738394117559 -0.37967300405487514
Ni 7.036517902145652 0.7406834045216977 9.058498082744366 0.6345570019561071 0.04192723636140521 0.18689220324229103
Ni 2.9197996566560653 1.4945736074015987 9.125779910681059 0.45484588984328755 0.5079024033486349 0.5410673201363778
Ni 6.554754564468781 2.1219421708261215 2.409786111929866 0.7064620156265252 -0.23458745243572504 0.8107536731577649
Ni 4.094646059679429 7.094984548181243 10.689586972705133 1.1728662997313737 0.06961338942276399 -2.8505784753732453
Ni 8.200100005214617 7.211589222101404 0.01934465515669375 0.436047783300178 -0.11832730968869944 1.1330589379264486
Ni 7.558792555217676 4.240798982345447 8.276287385043947 0.5202989772407749 -0.8344206777574017 -0.4214158923196162
Ni 3.700596383478903 8.48036564662457 12.376200463421664 -1.0304505816349026 2.3617086631760293 1.293642842291514
Ni 0.05615080089909885 5.116657637632708 10.069582194348042 0.4028589552530353 -0.45749541165099267 0.23988238228607722
Ni 8.69336497817718 2.3876208176435862 5.6523782500506226 0.27807663396761145 0.28903184742753446 0.879605501824156
Ni 3.806274503877659 2.9030127461081414 11.486240438142868 -0.3682729897480496 0.07037932105451106 -0.04125694976725798
Ni 1.04521567072806 3.1708547957531534 12.537310988928262 0.7606616415973803 1.1639363442315953 -0.18946176374168017
Ni 3.290097543163445 8.712990784418635 7.601238153562858 -0.7694650988216233 -0.642324561716668 1.4130587570587019
Ni 5.747622744154503 7.647336890353543 3.610503891720454 0.1280224254892763 1.7184106818024985 1.1048019999632845
Ni 3.0588599042292404 8.881398458534264 3.309727000717689 0.7717662361509741 -0.04668686253357766 -0.39994152449592413
Ni 3.453311224836569 4.468850850871155 9.292020530656353 1.3855685220582332 -0.4074285769015887 -0.2664994706529733
Ni 7.2346016209547575 6.4781226373073775 11.407602114603849 0.11668951697496033 0.08226398830723897 -1.4882534972239854
Ni 8.25863967750599 9.004009541992508 2.175756131540191 -0.19520817930715412 -0.37872195299551553 0.6414138769769404
Ni 4.783886118315386 0.09163699706824144 1.4782750599392183 -1.219944227055783 0.569002098873433 -1.5915822766213235
Ni 5.856769611702911 5.684509802594771 0.3687342118054441 2.371125328504239 -0.6184361851348446 0.9519211206694317
Ni 7.978383164378012 8.987496479903768 11.431543772562032 -1.7701749588589837 0.29556142101593613 -0.4650724526673023
Ni 0.040853625969131224 5.188405933938679 5.597601255588425 -1.1772392319880887 -0.9141703842832192 -1.2521346957453985
Ni 7.5091438295677815 6.344484589226028 2.308636532217801 0.7663759183733381 -1.5649996410367886 0.18919411190259028
P 8.602337750344718 1.6530314541669098 3.529955931592733 1.214961943349843 1.3177873007482013 -1.2698202859506196
P 2.199605593850447 3.3390525193834093 1.2051039192785038 -1.491382786881586 -0.3545265866962346 0.8784999274648031
P 4.937140844356217 1.1738696768522774 8.310903655941084 -0.20069748455649952 0.2717805165462545 -1.3340446431473283
P 8.592260127046782 1.6932141514110421 12.226807000655313 0.2970829998667851 0.6624208182459107 1.1258148547695257
P 6.3648954277171415 7.8950693348125425 1.4815484618546537 1.9315520485493054 -0.3258153348044711 -0.6371689856576576
P 1.749581292592896 3.2656976454502313 6.051004846832296 0.8927273839180948 0.42672650589925215 -1.122804350077976
P 6.85307594762087 3.9511677236314333 5.998540046193802 1.4345081851817294 0.3340477500165924 0.38393229355186137
P 2.6733908130831177 8.721863474496168 10.408021463942259 -0.2661665127935868 -0.07255267455674601 -1.3888150540199888
