# total energy = -381172.4276943132 ev
CRYSTAL
PRIMVEC
9.19180624261917 0.00000000000000 0.00000000000000
0.00000000000000 9.19180624261917 0.00000000000000
0.00000000000000 0.00000000000000 13.45313755808233
PRIMCOORD
 96 1
Ni 6.890168580091186 7.707356900038819 11.295119160240121 0.4437019574113261 -1.1509471310607793 -0.851594618433527
Ni 1.8068241121185382 0.7731751953142628 5.3863404031640645 2.359469232322549 -0.2438256832045414 -2.3319658846959577
Ni 4.2839239090083066 5.6179031372662065 11.490203293080855 -0.34780829413579456 -0.11568858651427172 0.29513333233958206
Ni 5.462745452114627 5.549938923758459 9.3455849066449 -0.135863775910566 1.3918512697431513 -0.3371071056682065
Ni 8.89224503510012 5.398200590436049 2.9176897143425036 -0.7236773510635471 -0.3869163158808498 -0.5722272906789501
Ni 5.608325275422134 6.941743803514498 12.958102538744914 0.4743646766025057 -0.79327222854355 0.6625023222161235
Ni 6.826588858041808 2.817601058071944 6.673334795911253 -1.0026839530445957 0.15060391033421805 1.539111460416117
Ni 4.580672173666696 3.5321720559205123 8.588832711097245 -0.02249895243346448 -1.1138947062931719 0.2173996278025288
Ni 5.5268858743295395 6.506438255326789 5.466789846751279 -1.9803729267067507 -3.1582176534893227 0.7343219752615869
Ni 9.035655592193422 2.969890899753898 6.227336419812594 2.603098997466201 -0.46130912897012816 -2.0065539559774925
Ni 4.292720467343026 7.967236830861724 9.705214316097244 0.39195619229760237 -1.0900497813547745 -0.4581021919970562
Ni 2.9849470779694363 2.1617840841267473 3.6855814595723393 0.003934044947083547 0.36640919706643343 -0.1206302467902632
Ni 4.9190409358586376 2.8730552236240463 10.99449563017534 -0.013684696575944174 0.18009574914574789 0.11946502283756845
Ni 5.552880301676025 8.168096175407477 1.8486229306883426 1.028673692240138 -0.31631485151320365 1.4323605427111075
Ni 7.932280392672657 8.763118544518994 3.0436919100668147 0.582522244847055 -1.9411201518537151 0.8058027569103928
Ni 6.798930713810701 2.428852007235702 13.254474858538215 0.6200567514574031 0.27479256389970097 0.11606936689245817
Ni 0.5217756246999398 0.02019347858468638 1.3789602500622702 -0.060184125689064095 0.6247055630833241 -1.0516261872712533
Ni 5.963496658968168 4.042822837827861 4.8095775566564365 -0.5055225902625488 1.1279884653820766 -1.6204465091511835
Ni 5.258089891694015 0.3053904006524363 11.149206593555691 0.5807988343980449 0.7542865913089719 -0.7811607899919967
Ni 8.361583691547333 6.058677810019389 13.039170590875417 -1.1578400015258703 0.5219182580117527 -1.3192080923551281
Ni 1.187801937560887 4.810807420298219 4.557936241544514 -2.433914495916318 -1.5192149786025062 -0.46867893907163793
Ni 2.719837009536861 2.2063459595778645 7.386686960285229 -0.631855286754228 -0.6252460089678264 0.6252619498074264
Ni 1.707368771280855 6.081501064298499 11.739019047030718 1.4803077600143473 -0.6292075647187357 0.381630127781246
Ni 2.467439208791764 3.634421705779883 12.238601056162025 0.3282254869078605 0.08079331729898344 -0.19497729424327065
P 7.67031392188948 7.758371423296597 1.0330983276253312 -0.394120804049089 0.4102747881011321 -0.36859874851858454
Ni 0.47995014989275764 6.930980198697407 1.3179193048279922 0.6502700418159898 -0.055768256009555574 0.7273805109467473
P 5.148128316607027 2.7297825436206296 3.1430829082625515 1.1205816313950443 -0.9807794396620205 0.9243838344811113
Ni 3.7135447717623946 8.075571456288058 12.172573556176877 -0.21378568519902538 -0.7846896290808615 -0.18002684358102544
P 2.7383401149995463 8.643137900900298 3.2602196071072003 0.32860292485193726 0.410208453639571 -0.2274618971345373
P 9.110945675077105 7.305316497737579 10.85127350510488 0.10453642655219417 0.6552685234718457 -0.12374359560826431
P 5.509770731571705 0.751592834844126 6.722115710312878 -0.23080201725136382 0.8107714137695778 -0.314516107741568
Ni 7.637683010616486 0.15182105957634162 6.994810857050376 -2.4869954349016976 -0.4236159852947285 0.48261406109549143
Ni 1.152202072952352 7.249467084527803 3.915777372123412 -0.3348805303305329 0.5444879157821526 0.028721279194092467
Ni 5.813146288350609 9.21616427827202 13.365866678637618 0.14309834598579227 1.029207453256421 -0.14096304481034433
Ni 6.829098221077732 8.379195191828757 9.152195742829164 -1.2643152969719904 0.10840053749329073 0.12735445288797423
Ni 4.11529103627188 1.176220262010473 9.08088111603719 -1.3279449580074938 -0.38550760845878124 0.05589681116761986
Ni 7.378281053705187 6.727905628907486 6.846287817464105 1.8824051545110094 2.1655350346318123 0.03607514845600238
Ni 4.046076737149167 5.174361730909315 7.053035432928585 0.4280136001417919 0.6464231572660738 0.6619310230936858
Ni 4.421249490534646 2.865315722978452 5.966479400012699 -0.29129878908484025 -1.3385314752740882 -0.3532904002962883
Ni 5.143615139864762 5.943339028426852 1.536791831577037 -0.9182484110073347 -0.5300557995172226 0.5227338119345126
Ni 7.149395892688629 1.5974531552238294 11.135848141906946 0.29356315963898477 0.2893779179130435 -0.6655961306500988
Ni 0.9151941129803174 6.505859171549268 8.6903764302564 -0.5956621246631224 0.34984203673637165 0.4674499517605434
Ni 4.1840457450949735 3.783806936768241 1.6573589124180468 -1.3849362877908729 -0.16870061993492882 -0.1828748545527818
Ni 6.310294307255132 1.3663527689631052 8.901577475724194 0.3349769466990811 1.1628050588406298 -0.5696723854675801
Ni 8.450992388435331 4.5284719074359 7.6114486771336 -0.2241019795233689 1.5520549079506625 0.19605921445353977
Ni 9.165315207522104 2.590030325312299 10.444598594222276 0.34411464733429126 2.055692622485673 1.1292292797677133
Ni 0.5941767229602153 4.646081065108558 0.7097066941173941 1.6329911785854134 -0.8305681367805309 -0.3574833553317133
Ni 9.116911157166168 5.1277225073039165 10.664813124646209 -0.3291127746088203 -0.8615422165645421 -0.5267889558404928
Ni 7.198112464448308 1.275905397997966 1.9169915836597555 -2.362180717716442 0.005961102679441346 0.06532041847436491
Ni 6.755986596214244 4.688115193911768 11.289805377195918 -0.8074017259663966 1.2689119152037371 1.7087826717944312
Ni 8.701937883833631 2.713595773268027 1.4377905659553778 1.4061190925160751 0.7596121172869434 -1.0647784083824954
Ni 3.2844345008135583 5.151317873286387 4.8709098821406736 3.1849728100959793 -0.4581525856190174 -1.2524332008224237
Ni 3.079935201094817 7.548835013894024 1.2200109449388283 -0.04741911271391188 0.3918721172242284 -0.2118200768322223
Ni 6.744358961633869 4.129961158635738 1.7897650393772577 -0.43687053631178957 0.001801829095429155 0.5646672189435049
Ni 7.8030711758376 6.325028772260937 8.984866268182458 -0.336420364013827 -0.41202905178807747 2.10185549419498
Ni 1.339604613525244 3.992010534301916 8.445274165927465 0.5632970780688558 -0.5681562059333699 1.0125649596037336
P 0.656968707236044 0.9568945792260031 7.075677608629645 -0.8051597240097552 0.966326240351168 1.9500398229408482
Ni 3.246692945408796 7.348619095767738 5.668035247148714 -1.0876653402829977 0.6208386239287501 -1.0251829054780603
P 2.364160076661246 3.811648917119197 6.137751240249543 -0.31084740064072913 -1.5430465338044652 0.23672841003812778
Ni 2.856491589225756 5.718084630777289 9.550072257015852 1.2011090966271507 -0.37276085031607414 -0.33044974825268897
P 2.788407882240107 0.4503938977242206 13.384795364717752 -0.29414500028438373 0.13855546381011621 1.064608201353218
P 2.7988038148175023 3.1301040782012937 9.946697766406976 0.4706460901003378 -0.22538341733895376 0.4277983988071923
P 6.310671171300821 4.984495786330461 7.016187321066282 -1.2398630774668968 -1.4514103602537067 0.5490732211599899
Ni 4.165248501840531 6.795070155293897 3.5386191886435765 0.668787641004203 1.9042387054463337 -0.5182603495441913
Ni 0.7118345972046329 7.927601763422529 6.528874534573619 -1.6412871000456184 -1.3320273556069835 -1.3423886442366493
Ni 6.503506069215216 6.439788470075953 3.4692550630831875 1.5132088816177423 -0.9261974906510824 -1.5737511619771736
Ni 4.187069849266471 0.8988078804376799 1.8686004018322075 -0.5158301428361438 -0.5594219113841655 1.629932594264748
Ni 0.6069156468850716 1.7058061642621483 12.791619629430107 -0.3334193724039742 0.42057385603429503 -0.38941208571950997
Ni 0.15172270725222306 0.35291479517490154 10.912216098015042 -0.02984690815810344 -1.0363605193614345 -0.373966183478085
Ni 2.5036273489838123 5.586844024817913 2.684963297601725 -1.328084054688519 -1.1455035914477045 -2.030193963993936
Ni 6.424428962262667 8.313565697043076 4.837963691922142 1.396277680945621 2.326611048141948 0.33548139713932545
Ni 9.031739882840661 8.667431844138191 8.62920588055763 1.3397962009191249 -0.08237711684633554 1.3421024804547983
Ni 6.372945656899277 1.5692894616631397 4.723894298737155 -0.5434841571079866 -0.3622270406642858 -0.9370729999130055
Ni 8.003755876069498 9.134256095073813 12.647361587824307 0.3363460591324659 -0.26806938624325444 2.359498028677956
Ni 2.3893272414684152 8.9787766967125 7.456791026228006 2.5704130771974056 1.2805497565529818 2.3508498660846544
Ni 1.3515631531213461 8.04226035137163 12.75174465585451 -1.043893594513686 1.532009559264013 0.1548716844716365
Ni 8.520758195917589 2.0938198706189994 8.359053187357627 0.23177389424632985 -0.46893682071871495 -0.144349444784074
Ni 4.482990851385544 1.9795565303275722 13.418669927341513 -0.6397146348976466 1.2651629896842662 -1.9279170228998799
Ni 2.0691214879174415 8.303151380853697 10.172979807966486 -0.5872237640877823 -0.8370408889890681 -0.18655024652184002
Ni 3.0372484540661477 1.1533510487014011 11.347048268194142 -0.7949904967862372 0.6182137847113934 -0.18120800837332018
Ni 5.275958762543225 7.857670503432408 7.397153669768767 -0.742265912699012 0.5721164761326986 0.29364492071951365
Ni 5.439885430611547 4.454560595451076 13.270336238958686 -0.36422298804839204 -0.5141509553615081 -1.1327784305715523
Ni 7.139073494559173 3.8501901596452974 9.34937836497796 -0.33736987241128996 -1.4598458926155695 -0.9844818282142721
Ni 7.982265433659285 5.04258800020238 5.18890224880868 0.8108688585793906 0.9253562256967096 -0.004616158615772695
Ni 1.978140992204744 2.1561954660833726 1.1162731416892895 0.6862701140596825 0.6432727845625501 0.8978040271100538
Ni 7.900605429222873 3.1581574700900745 3.6416970202228613 0.6872756725060616 -0.4686293167806252 0.7017252722724883
Ni 1.5258857537670638 1.3168365100820885 9.331217194698194 0.8637243118175254 0.4781310856234733 -1.131778014331496
Ni 0.4401064284575353 1.3360749600241653 3.2508026018679947 0.9008160744635002 0.1900826851551307 0.21852422832527524
P 3.013221073202035 5.434287620762181 0.2252718620809483 0.22969155779600442 -0.11283569044650892 -0.09816677558042448
Ni 1.5127322793919504 5.634126674842779 6.653747057341465 -0.2178410862153216 0.8658544707866507 0.5171205795127932
P 8.428307011246108 3.6409662716464664 12.259440718707976 0.5178176055798178 -0.10104075469410986 0.9852112501811291
Ni 4.3052672825226415 9.138226955262526 4.682916308442471 -0.4977786846510717 1.6816793878197358 0.02706805986138564
P 3.086893398231058 7.071495336903106 7.656570333569654 0.10601583931119807 -1.7414781051449233 3.3755859138332833
P 8.40822291515273 7.486156088831902 5.0336664333061645 0.10522959596447684 -0.5071143602297008 -0.9373087700728956
P 1.1323845392327545 3.344015787256245 2.9349905315813842 -0.20041312054686128 0.6036515706265023 -0.772014090495722
Ni 8.745920675507227 0.801613723874125 5.259746255133844 -1.3929720136111559 -0.2659983626468386 -2.483573296594026
