# total energy = -340894.1885665612 ev
CRYSTAL
PRIMVEC
9.03243684361541 0.00000000000000 0.00000000000000

0.00000000000000 9.03243684361541 0.00000000000000

0.00000000000000 0.00000000000000 13.21988433334311

PRIMCOORD
 96 1
Ni 6.150701112060912 2.1096520845477684 11.285960316321804 1.2641489465974551 -0.5423950378088659 1.0289737399790602
Ni 4.6368285633010675 0.27657231364270274 6.066591963193362 -0.3580942494428349 0.05096132153921546 -1.0497055732097729
Ni 2.7061361504113672 1.6446532021660503 4.645096856009683 1.052910967520948 -1.46338167368297 1.838399438354021
Ni 3.2623987749034735 4.349380292426069 4.866662532372294 -0.1348255644540388 0.09700360851025874 -0.05088675954753817
Ni 5.2533014119527 4.47737895527705 2.737547352862187 -0.24887301582046173 0.988880214392284 -1.5099818900400124
Ni 7.5551547206064615 6.33591123003137 2.6645869408203353 -0.1534876596399163 -1.146547973551819 -0.03001531541516766
Ni 4.927745289933231 4.539982775206494 11.496659067888986 0.8053512711952711 0.2966852502077342 -0.7589246043016156
Ni 5.449838205755148 7.979516669520777 12.550891679060669 0.32113361305808563 -1.186205182932125 0.1757169033517619
Ni 1.9044531837892775 6.479228905809826 0.46058834345926175 0.6632397146027803 0.43736701633223385 -1.5029743483739277
Ni 3.0024000796691586 1.5337890720529364 0.6113153272002234 -0.773045874194346 0.04964260272779192 -0.903884943196811
Ni 0.46866785823734386 0.351784512195651 4.709266900491971 0.9989447977171378 -0.1104157681511066 0.2126981085618014
Ni 8.754617174441474 2.2309125494955078 1.3245526720146212 0.3482140142146455 1.1896000675462868 0.16427652272530419
Ni 7.083182796962943 0.5807134310927418 4.824729444214388 -1.7231767357325742 -0.2466500400272139 -0.9129393400895955
Ni 0.8711424061340536 7.217061576214741 2.3993954976308283 -0.5258890697340427 0.5501533415980461 1.192012019421889
Ni 7.562714870264656 3.8936125605230543 3.7784941526452935 1.5459045720785505 0.7969244805841565 0.998949425702828
Ni 7.614082338730785 3.70263071539419 12.724271111221924 -0.46979582628490063 0.4637169670806724 -0.7061118313759581
Ni 7.8547787163790055 9.029112930848312 6.945502265033565 0.9054993388717824 -0.7155434091025031 0.11313676662669549
Ni 6.930489451715902 0.7002179903134166 0.47837050192053654 -0.5270578932311633 0.055110310710582505 -0.7801511177805596
Ni 1.8916722856216015 6.411530791487047 9.198078211112364 -0.35046347237045444 0.3030523300763426 -0.25384552933438864
Ni 0.2822537164324329 4.948005045827292 1.2115903068171603 -0.9934225823473278 -0.844322510252146 0.2669275593293274
Ni 6.357851019182808 1.9664427980117236 6.940479326891485 -1.0272490439784696 0.02208474771418132 0.8369730118656102
Ni 3.4470850115356093 4.262723093118165 0.13395465172148632 -0.5661402039446056 -0.44963503506630953 0.9999871229387229
Ni 6.039123419435256 5.614364043298766 4.770593533848335 0.261232308716763 1.1819875453063513 0.3876377674279066
Ni 5.257971181813257 2.9826190429290804 9.211720803757208 0.8070805951815518 -1.014022003765234 -0.34738791876892433
P 0.016805752035885576 5.749940920681676 12.270947556735285 1.1761516553508646 -1.3515775098247689 0.19613686176901057
P 3.8225092175011843 6.253616697730525 12.630184732590404 0.7312003989134697 -0.28320855587753807 0.08888766427134369
P 2.425940926341064 8.449203386636787 1.3549061761082435 0.7925479487830157 0.13676906133365477 0.1201561353673221
P 6.534200316586135 7.6235483325680455 5.8221697053372505 -0.7648558821843859 0.10600864022234646 -0.6804141694995378
P 4.846363033756015 0.9723056990513483 12.84236390056019 -0.0034319084996844123 1.6580782034610284 -1.1847954470687918
P 3.8669217095792505 6.140467361089904 8.130572433963719 0.8545917533886379 -0.21677125018991056 1.0686355773450562
P 4.7800017200896425 1.1546525345347718 3.906555139310661 0.3616166607737966 -0.37988666272757804 -0.15521029875797784
P 0.277586656302936 5.483384676281472 3.7762206882857146 0.04619526760913979 -0.10874866486132884 -1.1394306457807475
Ni 1.5316212872047086 0.9803626327372613 2.557122619944192 -0.15176039253616444 0.5054045766274458 0.12769229584336717
Ni 1.8693350692479882 6.403844187712707 4.826923423129532 0.3314164830413325 0.4894048587650798 -0.47277393507661813
Ni 5.847247363056498 5.680454383859109 9.239575032569562 -0.13226500281571416 -0.14281758152057986 0.3348321935911008
Ni 8.620774524937147 2.5703605594173697 10.127581901579141 -0.03414604975408958 -1.5497828240870342 1.2389853028476339
Ni 2.2648654796808754 5.339714735465178 6.936222339395777 -1.140846038071035 -1.4807199078511015 0.6974724105334053
Ni 0.48049131809705264 8.973238276385242 8.967999463002025 0.7450115937649492 -0.19291269840475808 0.8616682006194449
Ni 1.3742130099127716 0.9250570217968511 11.262653919472296 -0.5492961358040733 1.1374071875928153 0.6129535647537185
Ni 4.371365243761845 6.8764483819369575 1.721480400430928 -0.7284439192142552 -0.13362588771898276 -1.2161348806120218
Ni 5.626187503158475 7.98950654469636 7.872440743429941 -0.5015751755790265 -1.3112785530954063 0.0440468538075693
Ni 5.26269514629502 3.2402964018884184 4.6036262286194 0.04121709766825805 -2.0878411821937592 1.2359259471960198
Ni 0.8018771640147434 7.425141824334002 7.0169696152612 -0.2799016029914922 0.5992516417865938 -0.2841220688307429
Ni 4.92960597192796 4.402590378013193 7.205114371969947 0.7450717575789233 0.9128421523900988 -0.9092287240072277
Ni 7.823074862973675 7.339830458119373 9.062429074234512 0.5646664476125566 -1.2997206730544777 0.021846920671762374
Ni 4.5473442112536 0.27551642177287844 10.451217727520556 0.1495052779534006 0.1773932626129203 -0.22991010156471373
Ni 8.538019338356053 7.301876158401652 4.892534141292206 -0.9795278266431064 -0.7229893238575871 -0.10474854256300024
Ni 6.944932318267219 5.902462649628233 7.113632948131048 0.855805571191081 0.2884217246473613 -0.6311734301958548
Ni 2.493214516131065 5.213495462677118 2.5067812363062236 -0.19104941994377417 -0.5260628763077456 0.5645114100919311
Ni 2.2051701044228036 5.184094880673029 11.381369043710741 -0.9789565275206689 0.3221288870918194 0.5989096850661427
Ni 1.192408120641405 3.1616871038295598 3.8376530011534284 -1.2657977950547878 1.403731051899873 -0.35253809551129606
Ni 3.5102488425508453 2.773265221211486 2.766538765476173 0.44662530170570824 0.06594725342508642 -0.748244241769634
Ni 1.2468646825162595 3.2033266377892677 8.248415024800753 -0.9487730619587532 0.5538706425486333 -0.03160502849979073
Ni 3.5662951133144003 2.67763881209404 7.414199930312572 -0.6689992427943768 -0.9884153589407234 -1.2121470996088675
Ni 4.01200974298376 6.6521729745140625 5.997372786502077 0.9909982891765513 1.1400798493289719 -0.5152727276707771
Ni 0.8035066156256613 7.494303193429334 11.221619558782718 -0.41127906099593037 -0.20369256262908145 0.03501122596786228
P 0.09216517930977601 5.663229526752566 7.963486803811819 -0.1833919033985164 -0.2699532335295286 0.007476253772387123
P 8.564258567456475 1.6443460993125512 8.12508613181033 -0.15859489895949463 0.7889864566840025 -0.6782259035989674
P 1.8041118426269358 3.182533968120017 10.492503189955054 -0.6213577296570137 -0.6327888543120909 0.3720239721500496
P 4.170212874720047 6.2010750124716045 3.7641903856217374 -0.501174340596182 -0.9858604537293537 0.31670823029688033
P 6.896942981189578 3.96302683785068 10.32794212590765 -0.4666315696243061 1.010788327319285 0.4766850972055662
P 6.060530294811505 7.730691098691702 10.37844248043449 0.3757818965305851 -0.4289520527956613 -1.1574767046491807
P 2.3949957976326126 8.374243193072445 5.703044508465015 -0.009827270503066947 0.9042814073042813 -0.2747115741501205
P 7.173624587318378 3.983449177608359 1.7088024720435429 -0.6505793455262925 0.9140456857798969 -1.9499115248930996
Ni 5.417131751857512 3.0011807006920304 0.6641189531283042 -0.32317661163004346 -0.8752716503354926 -0.6282883953385761
Ni 1.5160764633555421 1.023465421469523 6.9081829456276385 -0.3026748921322658 0.5825502698715128 -0.020297831017087622
Ni 6.867036582720902 0.4902878991236685 9.15076450031242 -0.48397983109476655 1.8609672963522077 0.5771936335452899
Ni 2.6612268743055827 1.5031510461979845 9.260105761569653 0.5739391311637341 -0.6007937894627331 -0.012897424787958434
Ni 6.561505373236937 2.0219832523106915 2.647916675337464 -1.9105991004467227 -0.7306877209431093 -0.4077036849398462
Ni 3.9895460724939995 6.710910911464166 10.462388142194735 0.19740878650289873 0.7371491602977369 -0.08847474510364119
Ni 8.267046232327584 7.3571004774102535 0.23076521331227698 -0.6861695839260763 -0.46327962243293763 0.28178287917460504
Ni 7.656616083940387 3.8031888350413547 8.149001314904716 0.1819636555924221 -0.3587033437817435 -0.08278977890372194
Ni 3.013347393152709 8.362347473717795 12.250959677190938 -0.06449483724927603 0.027336997252056145 1.028221435194068
Ni 0.03445423043151968 4.876242334914087 9.971560103346382 -0.05952489483851039 0.9317647003262146 1.1442599488485907
Ni 8.354362799526823 2.344639962095656 5.730238466142346 1.8092210170178518 0.25387046903505306 0.5694484423822321
Ni 3.763346756018302 2.488391194843758 11.447322994474382 -1.077252629590106 -0.4502731828709406 0.3508097999662797
Ni 0.9090696085411715 3.2286897205135325 12.547018570131835 1.04043854608555 0.23800162032359656 -0.5378580691704608
Ni 3.037590453705389 8.279348411341276 7.900401554997331 0.5746742095575458 -0.01349237805947999 0.10053810402607846
Ni 5.8033316550061524 7.9803747510232 3.534071894789182 -0.26028408587088075 -0.1650311415031416 0.593679547015455
Ni 3.148075221470063 8.175628938790446 3.48116529908081 -0.023439976190495114 0.5530535459639765 0.7109051389995434
Ni 3.3388944827353098 4.174557476853369 9.479053837728028 0.3499479661866166 1.4649744720913866 -1.015546925050193
Ni 7.063175949301175 6.1825223871455215 11.481984970953858 0.3377827915789925 -1.1384263728859492 -0.2776585725935863
Ni 0.5900285832343137 0.13885474872216777 0.3850744615149351 1.044679066529459 -0.20348841703807535 -0.4965707803858996
Ni 4.746030725030541 0.3242473219173514 1.7397367618277528 0.006052119731350868 0.004391701309792436 0.5233534477963825
Ni 5.883584856574916 5.442079342485866 0.3456831010915767 0.22352502397397636 0.8114866946690477 0.6152529023108566
Ni 7.731359499019906 8.839196913269825 11.331661737140879 0.47188124805901954 -0.11747241788757187 0.3511820957040339
Ni -0.06935105026955253 4.7278574620528975 5.849878511916034 0.45149934196855795 0.3706569165991939 0.503357721400746
Ni 8.14648126501865 8.986461763959431 2.3998588616421372 -0.138049213597659 -0.8163735904477037 0.8397888840478505
P 8.410011643068204 1.8522727960050622 3.5145853154909874 1.8206724533879033 -1.1047667758499748 0.9152795581869978
P 1.8655685430741924 3.268007918198263 1.3638690632119783 -0.27710809940675507 0.19567046365555332 0.8213383906521468
P 4.75315731771909 0.9556137557199946 8.278701688861556 -0.09241316092609891 0.7149628540086848 -0.4985811259477091
P 8.515682121982438 1.5315490277097676 12.36556233292356 -0.6489716347195404 0.6507094433462535 -0.4968787985446217
P 6.413066305754542 7.600678202419243 1.3409989330631757 0.17905728057890455 0.7377518268787424 0.39094343476237187
P 1.7687588847270885 3.177566127842828 6.116351657897057 0.1737170993129137 -0.04148732061050919 -0.9513778465714519
P 6.825649956993487 3.8766857738331426 5.975519708744568 -0.44960186783552886 1.0425288529556755 0.6270948892511071
P 2.463651350263359 8.485016998816883 10.074411558714235 -0.646799566768886 -0.6795641627944167 0.06912539404275192
