# total energy = -340891.3887159814 ev
CRYSTAL
PRIMVEC
9.08681391364768 0.00000000000000 0.00000000000000
0.00000000000000 9.08681391364768 0.00000000000000
0.00000000000000 0.00000000000000 13.29947067185067
PRIMCOORD
 96 1
Ni 6.428266696265784 2.261389980840714 11.33749341230073 -0.8437093021481793 -1.0927928913175502 0.847145838633554
Ni 4.5501857928839495 0.3666265955276088 5.900522709336056 0.5090123485833621 -0.7993976247149974 0.35889231986409803
Ni 2.7760580423392662 1.4976705196078386 4.7602792947023005 -0.8152060525021638 0.5600106940081001 -0.28904213184017963
Ni 3.5193594323811377 4.579254511059303 5.112436047522053 -0.36593482853317627 -1.2598274364039659 -0.5700814479805408
Ni 5.263827821836619 4.855148359524478 2.5211538256694177 -0.3501870787806162 -0.5470376787871998 -0.35380667781107455
Ni 7.448697741484881 6.059396566346962 2.4848601816356006 -0.3134848382635762 0.09921527144959687 0.9169415192704531
Ni 5.115194804270423 4.6122487329082285 11.611302745620726 0.4341824479566652 -0.7869653124889155 -0.3968114635073747
Ni 5.750244978425146 8.142112522341792 12.44310425251069 -1.1490640551054532 -1.0218129605645627 -0.32657226757515373
Ni 2.035128310766843 6.273500079209634 0.46408085894962675 -0.3177227876043238 0.36146933656265495 -0.477574698899371
Ni 2.8177846924990737 1.5034860806057213 0.09033747065085906 0.08472067737784764 -0.2878781934390655 1.2522102861783402
Ni 0.4527786796228042 9.044133293555563 5.0423612635417845 -0.40151426829968273 0.17565288288304587 0.3489251813490571
Ni 8.627330219474503 2.1967191251814473 1.3386985250050936 0.029947181181393584 0.33894364465631305 0.8013712035016004
Ni 6.8603810520365816 0.912543301894315 5.029408010100407 -0.456942110250684 -0.6061139161240658 -0.8696861858279151
Ni 0.5415441314414232 6.963952558683247 2.2182984912092154 0.942342732952377 0.7692720089742106 0.4829099950693554
Ni 7.926945852234194 3.85193682694755 3.907291880833333 -0.6353183056021638 -0.378121086186723 -0.45740285193718644
Ni 7.558121156385666 3.807802171062056 12.68163039552025 1.0587067482671186 0.9956468436921563 -0.05233737595113566
Ni 7.71657701994985 8.710410960417692 6.9521924039278415 0.9905946259802294 0.27272102608265286 0.5629386662881725
Ni 6.730067051613715 0.7224462430946211 0.4427513803084863 1.2030525935067669 0.9175092188484649 -0.12797768829426992
Ni 1.8191347405798595 6.6104754917806945 9.461389799658175 1.0310380787072566 0.1541281214373926 -0.37074999053363245
Ni 0.1438878832644869 4.609141042499984 1.5005528570274145 0.2900134946145134 0.09037659011204435 0.5495208502203698
Ni 6.110055554726955 1.9674042855836886 7.216426052592261 0.6626103085488975 -0.37259527127248737 -0.7880598311046751
Ni 3.6689556522376088 4.402579585306442 0.3328081996435155 -0.03618724855383445 -0.05752509079966221 0.7395675399312425
Ni 6.244267798381214 5.568681346708439 4.814647520581255 -0.022933468867721796 -0.1039098487117888 -0.25499198423400604
Ni 5.125508338227606 2.805035892374028 9.388229133623406 0.22580070738203048 -0.31824112200163907 -0.2978355617620935
P 0.05170488067820604 5.846992287713358 12.938044840686736 -0.09450218224464371 -0.7345171219915285 -0.019592063199314644
P 4.29525522445333 6.289056704878969 12.645044156073727 -0.7397829983761582 1.0729285482934554 0.8264589997081637
P 2.4237713480784677 8.756326631858787 1.3953402717616585 0.6702274587745232 -0.4925991973326613 0.5839754323538136
P 6.332582544222498 7.633069198745878 5.683674978627508 1.0716725643991674 0.7978896727109033 0.2742305207486438
P 4.921427581272222 1.1431393822744198 12.538155962295455 -0.717148548806094 -0.40347344890858255 0.33793448666550835
P 4.193919074065225 6.172400185987069 8.053614222856513 -1.243720246429458 -0.14862210401749887 1.2091422513442722
P 4.667541996458409 1.2628308970620912 3.6781015305881852 0.5609887416506532 -1.3545481624173188 1.352837350373799
P 0.41521106425788845 5.335504611135523 3.7949906719200017 0.9865739348566106 0.5520855256237525 -1.323393334081069
Ni 1.0069007790849605 0.6182186684728818 2.8660629355955587 1.825944757530436 0.1896499684930863 -0.5710196435240941
Ni 2.009458061049627 6.473882502842926 4.863802641234453 -0.5326410437458955 0.4012455880193283 -0.034429385322463285
Ni 6.0969523688536 5.896115604517348 9.158879764132221 0.3197339044970816 -0.1573985646585483 0.4326176745727066
Ni 8.498742713722883 2.5499871953606386 10.335870254821348 0.5753876906848026 0.5021649866442256 -0.9344594735495584
Ni 2.493194607490691 5.0333498700392845 7.304708085902932 -0.40140319664311513 0.614169953659323 -0.6083970557312878
Ni 0.595543432669575 9.019362638430207 8.681881090316049 0.3336222324433996 -0.4836206479831348 1.4457361926870649
Ni 1.2630126333432752 1.261204357345496 11.350420313981335 0.5906263620114279 -0.3122725631230299 0.37352832460971797
Ni 3.975717408061858 7.161372680933243 1.6187314172742306 0.7392620928756817 -0.42603667892107916 -0.026091554880729256
Ni 5.5267184393830915 7.860475807391207 7.8964414174374875 -0.1357856143744629 1.2487441820066105 0.10515837640690921
Ni 5.3002386857718005 2.9761133406664277 4.867167488480571 -0.03500582665122358 0.01872868675775484 -0.08445893907602874
Ni 0.819518860326153 7.116547427179252 7.027572978637271 -0.04308191879113871 0.8061220879230245 -0.6021068518472018
Ni 5.062327720074046 4.40765911436553 7.131428902563989 0.614703971785922 0.2344146743032866 0.24241646156184055
Ni 8.52001494543545 7.161827021636203 9.328088963454052 -1.4907970895814453 -0.49661603180153824 -0.04858253689439375
Ni 4.402043463276949 0.09278000626996977 10.620944511530524 1.218138798415928 1.2738096096156708 -0.8219891368622683
Ni 8.42223173934449 6.99113121953429 4.667316643469741 -0.6855653746831742 0.3357495631990476 0.5229050474050543
Ni 7.4545314761108825 6.0637582370953735 7.143478018006478 0.01622083273423658 -0.008052180880515165 -0.5382275366947376
Ni 2.583099545792333 5.177439480575885 2.599487614948085 -0.74159794009771 0.06586574945487365 0.431692848765592
Ni 2.6285245292742316 5.247989504931449 11.626584040824069 -1.3636012737585224 -0.3738713097714335 -1.024044678108559
Ni 1.3709639843664714 3.0526970095572947 3.4351473830875796 -1.313529553913112 0.6921646251672466 0.4758579733185804
Ni 3.7344443211622025 2.9270808920030302 2.733439975720252 1.2168982411406075 0.0439946604133952 0.27384459816413487
Ni 1.0907993332934762 3.375415210869484 8.293616973150693 -0.849225346870402 -0.6236645234133195 0.6341263421765917
Ni 3.5878921840155606 2.5853621624930714 6.868458321053797 1.1943527517399237 -0.5097875361864899 1.6442297276137101
Ni 4.36573255429642 6.741216572464343 5.876011937092793 -0.799354687292204 1.1573322086515165 0.7443739601809504
Ni 0.678891325946104 7.363454338795605 11.566802799810052 0.357372797895778 0.501934101580342 -0.25273018478302284
P 0.3298404461717835 5.422265511772684 8.222185527831387 -0.5394272134297936 0.15862780907995905 -0.0953807281948551
P 8.460160101227556 1.5990248436240615 8.172830497268889 -0.6742671760615355 0.08918616934836898 0.18090487531060456
P 1.6146632506199303 3.3420756900863102 10.642914610562837 0.9860689701957341 0.034574395540759806 -0.7699379246929836
P 4.167412837454563 6.17912442839087 3.7987408000822307 -0.6477704153225876 0.7341404553784001 -0.7233675331326123
P 6.773665585469716 4.223233136220177 10.298617951904285 1.2512281247707289 -0.7201428555477274 0.9289781387200129
P 6.453010090948963 7.788462805972114 10.361896707649684 -0.31158453591706986 0.9648807661538932 -1.1721425341914715
P 2.40789668391706 8.591718995176532 5.8421517418640265 -0.577655917893689 -0.4778909445882092 -1.4134577922693334
P 7.014575199807004 4.096244909742975 1.4726372555561718 0.32848208300335685 -0.31577671962154646 0.6716353948656433
Ni 5.434332800843291 2.884754512115316 0.43657507279245383 -0.5740710287559081 0.2991275411006397 -0.699003502465951
Ni 1.398842329900071 1.2358248856781742 6.979389238407001 0.7645404078264962 -0.08468596748517028 -0.3254432961770331
Ni 6.634110295148652 0.7374294907968221 9.357134964594259 -0.8651242774888456 -0.08554163061724622 -1.4648793412744192
Ni 2.5677791772885357 1.4773705769996048 9.223967704556806 0.7946415980872508 0.48808099774733354 0.4521423748691955
Ni 6.304177163473465 2.1397720614724935 2.452688316459033 1.4714181708342013 0.5467733693822197 1.8194231543618344
Ni 4.168857640889975 6.771730094075109 10.442398610762876 -0.010919732236297323 0.30322356554688423 -0.3706378904358004
Ni 7.991553100195046 7.706072662897424 0.19415522995852882 0.8724192684883619 -0.6027318870257105 -0.6419337540361525
Ni 7.380710198694009 3.717188461263798 8.264423765622729 1.0963564402990926 0.08322815199272117 -0.1386631930325741
Ni 2.9111335333291493 8.192126346923581 12.423088727182508 0.7961904306316094 -0.2066858409294505 0.9809216216668397
Ni 0.06808386301989887 4.978111127373459 10.464608601686352 0.43118891254598 -0.5242458777036648 0.11773235641717789
Ni 8.630237999973446 2.3401544851057867 6.067564703504768 -0.7353853835290948 0.4056822836344432 -0.4590133909574159
Ni 3.590799964514502 2.5913867202143157 11.51434916565337 0.15291070409052376 0.9947626413149901 -1.1917317691773088
Ni 0.9996676750938439 3.4306630403493688 12.894022861295577 0.44339496769386866 -0.022010442832820158 -1.277319165430826
Ni 2.8486798603003254 8.475562251057886 7.815327971738115 1.4145955054182024 -0.7285092252345517 1.8166209090263488
Ni 5.546618562172721 8.17574282117486 3.6057123350670417 0.7913860672644307 -0.4587578233031841 0.5236990040612594
Ni 3.12817208713294 8.434626153721227 3.7667161412934216 -0.0016743023786293745 -0.5126478884534204 -1.0287240858620992
Ni 3.5193957796373745 4.346695678842413 9.465472505214969 -1.0846954590213964 0.8761013453256395 -0.06198544056386099
Ni 7.402454944737655 6.274190677078132 11.51529328563412 -0.2878337133543753 -1.0377959662563805 -0.09218613251695736
Ni 0.6654637408108365 0.15340722967289602 0.2562099918501541 0.2032271929568887 -0.46970943721868136 0.23059015835087385
Ni 4.703871079067056 0.5079965226162937 1.6777284662349377 -1.1754389455545564 -0.730796992827464 -0.7848660067577257
Ni 6.245512691907324 5.976970076016035 0.357429831018301 -1.0591613193060339 -0.6286987434031173 0.08701975782466949
Ni 8.210109151946721 0.1248155692356497 10.787520352138001 0.6816400714868389 -0.7307399143372835 1.7425098888435473
Ni 0.15015687628392319 4.738928007707418 5.908795344855544 0.4072241742002664 -0.0006417473490569592 0.4907086651781678
Ni 8.079368071263074 8.848966701192246 2.3738620218583577 -1.136091296994869 0.21995427590358246 0.90152338494317
P 8.43055526102271 1.712155678660997 3.7731932223548132 0.16538055442276037 -0.8166618111120839 -0.7230888255499289
P 2.1980912341043854 3.1879814972705387 1.4048496226746026 -1.7112740707577172 0.31898931302157324 -0.5091092791725426
P 4.5661240647437715 0.9352058161579387 8.357360973775922 -0.21954135673587993 -0.24844955512979794 -0.693162984524774
P 8.460278229810326 1.6099744545653876 12.53210505281344 -0.6416015675077144 0.33450360660708844 -0.7917601627743978
P 6.3525826219667785 7.821393420122624 1.5643631913952754 -0.9650663998021379 0.22731842957813755 0.02073209034102881
P 1.8435600967709664 3.105954826758216 5.950170335311261 -1.5573776057151565 1.39855902078063 -0.7326150198728092
P 6.9063239839198545 3.8327636492826556 6.032307864955105 0.792980408334744 0.5503595440715813 0.23205440160122617
P 2.3730669256281787 8.618543270279265 10.411065458523971 -1.9281139694020342 -0.7115923948745552 -1.2858238604677277
