# total energy = -340867.8890750812 ev
CRYSTAL
PRIMVEC
9.28758263455638 0.00000000000000 0.00000000000000
0.00000000000000 9.28758263455638 0.00000000000000
0.00000000000000 0.00000000000000 13.59331598891369
PRIMCOORD
 96 1
Ni 0.2164192551905629 2.293029900974528 8.96352792351978 -0.8720107201960337 -0.31171489084734705 -0.1875385785770383
Ni 5.192771150559627 0.8991996222421597 3.967752906170628 -1.018378223851401 0.7858499679375498 0.0675477651429869
Ni 4.948191944217327 6.233119741675021 13.572151907963278 1.3531371410024051 -1.2504971601419754 -1.9129118077402993
Ni 8.435716448597944 8.270155997004649 1.4387032351933249 -0.16439247947787816 0.3029386873166138 0.7463120577439276
Ni 4.478825370551312 2.54877278188292 2.0872672183273373 -0.7230361179351226 -0.5038598578481451 -0.23638876731052194
Ni 5.1741216842295845 1.7410317028372047 11.540467157862423 -1.1600989727633761 -2.4640372834436275 -0.691553473945809
Ni 2.0558064602365076 0.2597328264937433 9.101989065920947 -0.17182322472431052 -0.04392164108361468 -1.7004412418082715
Ni 6.829252533438023 3.217720223062024 11.283281915339959 0.5797644795962597 2.419636902951381 0.7024798910503256
Ni 2.1966712290750308 7.111975842478273 7.989240980342116 1.196578812856965 -1.1157433294661365 0.5255347717184174
Ni 5.359037458448284 6.655658322693588 5.337307300892307 0.10063683438747184 -0.8956952082971671 -1.9377172968197531
Ni 0.764344848255315 4.1588588543479785 4.990582329786839 -0.3544988187820927 0.033035847409046325 -0.016021315128920792
Ni 2.1388746011009996 6.188799396392669 1.3529166188334127 1.1654062439089026 -0.8314693084385616 -0.09832438420421132
Ni 0.3567341991253319 6.195467880867256 13.402153849292047 0.37286060911873203 0.6201963623590608 -1.0448557013166393
Ni 4.403800276420792 1.1585330826740545 0.11738111564354688 -2.446144719433923 1.7126663231195536 0.9021450776875688
Ni 4.537857247042223 1.5444135742480611 9.082727547882163 1.485667995884996 -0.04165855608105084 0.16492906870763852
Ni 7.797492331432674 5.485942990287775 6.058962703410865 0.5687089931130463 0.8196237219538851 0.3293395459076457
Ni 0.11622945537216975 7.354753257750839 6.884157936875927 0.7802357070745659 0.863631752103719 -1.590355603303074
Ni 2.747879982671491 0.7201071624601829 4.73156186089644 0.7793376207403289 1.1089139652491287 -0.28388038513358205
Ni 4.383729809917196 6.831853056631455 2.084344416009576 -0.08692334145612127 0.6845567309130016 -0.18201970564133815
Ni 6.839115946407398 0.3400852781376655 7.69359957233849 -1.6444246172333357 0.6592984705668452 0.6283297900994728
Ni 1.538348782657664 3.6439459744655647 11.338185461261297 -0.7896958240462012 -0.9028379899895356 -0.7988332675710952
Ni 5.1464725501337 3.4565039777161037 13.185571132643611 0.20577798440320047 0.7643614590464707 0.9420002620112938
Ni 6.352270141848385 0.4758344463513941 1.5376893642764722 -0.6011074640484099 -0.026515015571393043 2.0107301988423694
Ni 1.479985612130778 2.447826044063581 6.508139929513012 0.8797363709750655 -0.30555581322448666 0.47848075565340814
P 0.11025382457697586 8.417503498661084 13.18149295502134 2.1806091553561155 1.2593286423906762 -1.3782449918136261
P 1.4116197148920115 2.916523911765571 0.5099653845069086 0.20310737954957275 0.07335588718433174 -0.675109983677805
P 9.15636786341218 0.1304533884819606 9.495190030284464 0.009644722178615648 1.1976453064482666 -0.735007945585018
P 3.6204298147306706 6.553234859203694 3.9542682646543983 -0.5973181722093068 0.5412899776701452 2.4332115563120222
P 8.003602369677845 6.572237253681416 8.059871190275734 -1.83511871072022 0.6001188748828954 1.5980989946939188
P 5.215228525851481 0.15063994977097825 6.0781016253562425 1.3005853350476182 0.021169177878447413 0.051661432930033606
P 3.000725137735772 1.4718961274826372 10.634866533531286 -0.5409847877249006 2.623054614652521 1.36060491013436
P 8.850453460036213 3.542349105847868 10.531530100648839 -0.7144638028850792 0.2845141620628391 0.4699524064674229
Ni 8.079602660005902 4.575258343113479 8.566100180208652 0.5788481384295773 -1.4790340355082465 0.8689485363309423
Ni 7.3721396128155 8.362966812261677 5.807050950421369 0.43759198785884634 -0.10395767123058869 -2.1365473891502105
Ni 6.940963579761603 1.7256328904989522 5.450566587274263 -1.2340937790832873 -0.3783871953639161 0.9089708423601507
Ni 6.800061660591746 1.2560527024277628 13.171623969502265 1.263305110539921 2.1611862707448135 -0.3144855116139487
Ni 7.214863685109853 5.142896830742731 0.06954263398379443 -0.9086165443445254 0.34885396179148953 -0.9030763312525867
Ni 3.3791477002943293 1.015606470446453 7.071841410779064 0.7523616063721172 0.37794779383365235 0.02066884120326118
Ni 3.5967000405906018 8.87855768569095 10.934449591689527 1.3587814837723762 -1.1349960070481613 0.9542063171591824
Ni 8.730847968304 3.3010948541600276 12.79151478190111 0.24098924219701076 -0.5423130196180209 -0.4997013555950814
Ni 2.5350921723688997 5.16022746031039 9.327515724838221 1.0997533817957834 0.20393604609845525 1.0937405999428003
Ni 5.221441918767217 8.57457509954439 13.28046608148852 1.1315319597589608 -1.649849387793333 -1.614843046921477
Ni 1.9464916102840173 8.774880398518507 0.9051316013980353 0.3199632468990683 -1.079266317586025 2.0214542701280926
Ni 1.257083624122302 8.360570615890586 10.908866944774138 -1.1104162608262682 -0.9527991523990108 1.6697391847387244
Ni 3.541856863957683 8.089438210226776 6.118147825018532 2.4438356116847717 -2.5333385409426112 -1.934963645334016
Ni 2.8079613560226093 4.576707206035534 3.607503356942746 0.6869188033872751 -0.6112502089093667 -0.24026573376742494
Ni 3.950584809302559 3.3453780491110447 7.4544796071858315 0.7159468151885089 -0.8972715516453516 -0.8999835512598758
Ni 3.8636251712307517 3.58939071290049 11.066699198691524 -0.25260085829401013 0.2808583104778066 -1.1390395809899159
Ni 0.6341589421589646 9.084881338341296 4.978497327003646 -1.3767699499299966 -0.8063534872075403 0.171400278254279
Ni 7.572454199372451 7.450424648520643 12.702763569100686 -0.8671274239618034 0.33804067322606945 -0.2545911492511615
Ni 7.764920778434935 0.8408438817815406 3.470740913441862 0.9075047993375854 -0.5138056562069473 -0.8747381464295257
Ni 9.034421900805876 0.6357982005291102 7.089050373011602 1.0845933862258934 -0.0993404841735515 0.5062697528412184
Ni 1.3782401421877424 6.329404112911848 5.045676271156267 0.9466475309753181 1.4622084793104755 -0.43265932644391936
Ni 7.967835888185319 5.925189932824145 2.482003420133264 -0.7596969636912657 1.0324365017166799 0.6210255431285756
Ni 9.047387366441702 4.357204473344187 1.1173491541146383 1.3660170822888666 -0.8698579355190891 2.3318581554735003
Ni 5.924335475203446 8.214894879144214 3.434106971712669 1.2419395003799514 -2.0180488439909694 -0.3872438744235976
P 6.702542040838037 2.7386852756661417 7.859764645574259 -0.9092662621133825 -0.1897078183142152 0.11560348299963316
P 6.450932134290636 7.501172001123907 1.1963939140955775 -1.189882374673396 -0.76382821225082 0.007439744107496865
P 6.709628466540141 5.025353182399594 4.307097035198165 -1.4752609416190594 0.22813295505963288 -0.3789392112126442
P 3.9297434734237657 4.675945028613474 1.0936973956703724 -0.5589999933553985 -0.7486916137196977 1.2017403024532465
P 8.211402747998747 7.956523612293888 3.6472904330439753 0.2752383931878679 0.15783333820312173 1.3507043631911964
P 6.62318893310702 9.282121734980295 11.535587461841603 -0.5480740904715141 -0.8408749180231775 -0.8960060546693664
P 1.8679186595110295 8.77193623476023 6.854619708431671 -3.7303040477150335 2.468869157614632 0.13108332380278714
P 9.14591004514145 1.9694783777973914 5.0127935841336 0.6917694466113571 -0.7120328248460834 -1.9435107635730786
Ni 1.062768816075913 2.795841060424648 3.079960293164802 -0.37397955321452364 1.5951571384567753 -0.8030902430752362
Ni 8.476414636575157 5.596270186769138 11.325747530330423 -0.42773052168373427 -0.7834405871651088 -0.32742998758975866
Ni 2.5421971732366697 2.732267555928064 8.854917072346085 -1.8109763091460616 -0.41445745872391204 2.389802593198768
Ni 6.977686682286 1.5346244619413556 9.823957459981 0.7928690795678603 -0.8724724903238006 -0.7357934176007909
Ni 3.076911179720503 7.45165060945469 12.906472767183347 -0.885603885499436 -0.17807331939908042 -0.902366963890388
Ni 8.85875655908953 1.2053332125730007 11.579452715565104 -0.11637764216149635 -0.6977164082234113 -0.7394263863676879
Ni 0.4476085533615375 6.565661645035166 9.468628472138404 -0.10208950767359837 -0.268484362293486 0.15607958873680863
Ni 3.2044296920270186 5.2234851869906285 6.407481106761518 -1.283847710577963 0.6437738925686848 -1.1512623483083528
Ni 2.716627266436136 4.761660130585567 12.916124423264115 -0.029459700022013778 0.30088026212568825 0.6967571296339354
Ni 0.9916166439870406 7.4698914221400505 2.85514041930117 -0.49993429754149377 0.44152603280592995 1.0561204755971811
Ni 8.383185880090613 3.1427229916800052 6.5303920492242415 0.267222721972243 1.3421796135496369 1.8457965021490406
Ni 5.450826639593607 4.2503136825112895 9.235121922050425 -0.9921041206462204 -2.0995052487952486 -0.9809761290538588
Ni 5.280501658006631 3.1859752649364834 4.267499425786743 -0.04605128583210779 1.1055453058872122 -0.0055358422165646595
Ni 6.037671848522922 7.237850452623227 7.350884979500608 1.6897531659668061 1.5223650941957136 1.0317574733717845
Ni 7.692152566933003 8.014013750034408 10.046263185171552 -0.03715218357026505 0.10945751800289535 0.30175906518621576
Ni 4.387537718879008 6.578933600904505 10.738692422029066 -2.2969238054901604 0.7801434044710758 0.1751008670343178
Ni 6.275461831813798 6.201746286862828 9.639985304178204 1.630117199471728 1.164717445371994 -0.27061632103482425
Ni 5.764626200795373 4.528625389705539 2.1664485057759313 1.5705658222706564 0.3053118155344806 0.3660818956340018
Ni 1.1286363535324175 0.6618944507752026 2.8829790200868617 0.03326776091419432 -1.4136097444661655 -1.0337989292818452
Ni -0.07562785825642583 1.2708013839676569 0.5727708059031469 -0.06672295524884637 -0.24421623377474067 0.31927676235500496
Ni 5.569029706317934 4.356452179134658 6.40904513571071 2.165002044946478 0.5906047647448731 -0.1550974273291974
Ni 7.758363744954353 3.3354589106446673 3.416421556480763 0.37513963496089586 0.16511110281145758 0.6257964821546578
Ni 1.9027563827201877 0.6961563438486721 12.70287223381984 0.2804243082641816 1.5762047657239888 -1.9116175144089076
Ni 4.237821883599981 8.327534683751162 8.61804005844776 0.4349388665067155 -0.4204830960927017 0.30771065478396037
P 1.9484048523477568 6.215575497702187 11.371706205224637 -0.23634788677025748 -0.2915772395572075 -0.6234511218509328
P 3.3655599666086458 0.41314883477371045 2.6306465395949994 -0.04561651228753434 0.6888425027725492 -0.7496100117689091
P 3.3664422869778456 3.0434665939363974 5.284632774851053 -0.07547601885112808 -0.06166482399964863 0.23796716754123534
P 1.2639750105848973 4.28460343833326 7.868273928966483 -1.2333116495016243 -0.3943511748923402 -1.034946155512411
P 4.466565761210846 6.099722189434782 7.84487943656671 -1.3503081561940422 -1.087364006992495 1.826320652812616
P 7.548631549404044 2.59795053298729 1.4224453214429567 -0.7322622645190808 -0.3191322663573407 -0.8843903248073092
P 0.8127888803158237 5.282247723579363 2.861447616803526 -0.14730955585366243 -0.8915253931901936 0.9757848146609066
P 5.480871970060583 5.015907710657736 11.513552671568682 1.4864822642561755 -0.7107264473298339 0.930883583272842
