# total energy = -381166.9554001184 ev
CRYSTAL
PRIMVEC
9.25465688404922 0.00000000000000 0.00000000000000
0.00000000000000 9.25465688404922 0.00000000000000
0.00000000000000 0.00000000000000 13.54512582485936
PRIMCOORD
 96 1
Ni 3.5340943391842936 5.146403645431756 3.925526530970644 0.22498746745211576 1.402587682324049 0.1506771867743147
Ni 6.495658583993254 6.400298599310023 13.33635483927446 -0.19272269388113905 1.4862125555345564 0.7596283152368595
Ni 5.852598749393649 6.847733496386905 3.3639992981820632 -0.6750115104267278 0.03868558949565596 -0.9154543932019653
Ni 7.667066780934251 8.78064262691586 11.297406775466971 -0.522006703960501 0.6755727822468365 0.9506790207322143
Ni 5.5193200451610664 6.48460852365632 7.475554612937266 -0.507962310052293 1.2954053335085753 -0.3987909558312487
Ni 6.60174471602197 0.042000409402941516 3.221125904981391 -0.2843786649262393 0.16965038544270783 -0.34457230369700015
Ni 8.406791506839792 4.165104610501915 2.016950669825192 -1.4074447533060341 1.0572371057001275 -0.7202444141225983
Ni 3.5397859531769362 4.484658658553866 13.434001649677338 -0.20330072650730147 0.5655560493063615 -1.0315466429125588
Ni 6.28968694005789 8.00427871434874 5.228554458323607 -1.2205165546194852 0.09193699262062877 1.117455941281869
Ni 6.325169294607144 9.107729965683276 -0.03216733644817312 -1.3823415304805031 -0.8833971076561045 0.09257822574905346
Ni 7.293817213556591 4.042480406595391 13.281212817075499 -0.7322746058142551 -0.4507213261519528 0.10636602356176521
Ni -0.13640531349423687 2.4680411563770233 5.073300185123981 0.6613478968967061 -0.9181733347950253 -1.666041681282479
Ni 0.8084747956082116 2.9379000871192265 10.580219915506605 -1.3364689363181048 -0.29821762769186055 0.0658508370565382
Ni 7.253115232516524 1.8336714446052083 12.363435896166306 -0.9748265645126953 -0.984947454996781 -0.361449539068313
Ni 1.4491589597819452 0.5298596478129324 3.3426932270700935 -0.7706570622471953 -0.7092470345708302 0.5793677583784732
Ni 2.2953122400214494 0.9140602506987122 5.397922083293608 0.8081257486166148 -1.0362124238193444 0.5887417433942054
Ni 7.4512019087742765 7.574362882780918 1.5722644058471962 -1.37313363872899 -0.8430181896184256 1.7861301966366592
Ni 0.7402013407358188 5.953530037529841 7.68080439363454 0.7469977709570426 1.7206300580513205 0.26189822443553606
Ni 3.5500771316481856 7.378534342806426 8.247464259139088 -0.7452759031699294 -0.44460775705504724 -1.3543041647273129
Ni 6.723082522619587 1.1483548466065694 10.041773797023147 0.7840054585296433 1.0507846652065644 -0.6421276152145134
Ni 2.0800581752167835 1.725910219677845 9.255994196527386 1.0875141594171143 -1.3104987375065882 -0.30980584675009226
Ni 1.923228759413014 7.497743578317363 3.603518147909183 -1.697664964614715 -1.5665518160152567 2.252029001859999
Ni 2.583983498002753 5.228418414867198 6.092557195323453 -0.042285133921456206 -0.5718724784426925 0.6516471246691744
Ni 2.4681799762305023 0.9637151868224905 1.370157506632689 -0.7191192993792196 1.6612051791257842 -0.7388193489113082
P 0.31128963944149585 9.264189195211102 10.393893131769909 0.8400524221218824 0.05748472448003003 -1.1905266931256142
Ni 0.18552533044927563 7.423798869697506 11.702771853214173 1.5680091172870738 -0.0873372890650883 0.706895246509202
P 8.383876976358843 1.297558425125888 3.1242240944588517 -1.8407201160673974 -1.743810867043158 1.4698762802683782
Ni 2.5487880378173564 0.40662371108541123 11.417795979732482 -2.5360184017676195 0.2611757444472147 0.4087205562401348
P 3.7787874675834243 1.674704203057861 3.747936143346233 0.3255358558908394 -0.365172496445855 -0.20774076455652607
P 6.667573090541751 -0.2979990266694084 7.266919478746483 -0.23262698627524453 0.0328098474411693 0.2674641485590878
P 3.133617571210936 6.044373749646552 11.756654316609234 0.3491684077081148 -0.2550269512369995 0.04146418068205762
Ni 8.460181622487847 8.742578223091895 13.677190896330444 3.2181503252892125 0.4219972187443829 -1.191365901197458
Ni 1.140997394372178 4.849264376388228 11.699778897173164 0.5546494296961867 1.0585385981203705 1.2565117417671716
Ni 3.800397091441668 8.793886040937764 3.9644145992585846 1.5972782985648362 0.20391213483905524 0.017262386624873494
Ni 4.297575769348555 0.6099161318486297 12.775559649846558 -0.06048237365577326 1.3066323125726467 -0.8285901871185536
Ni 1.2374771925401409 8.518782109969816 7.591893979343947 0.061222080035275205 -0.18715702686790348 0.6025992181025881
Ni 5.631477232115267 5.5540527725015325 5.562577236970839 -1.0380605327716768 -0.8366660221481527 -2.635169138527868
Ni 6.975688382667025 4.602812863178363 7.148548715150559 0.40902908861948917 -1.388421932346628 -0.520353227517478
Ni 7.506711340852112 6.208680928224395 8.522254457238175 -1.1421943245688135 -0.4241600307236566 1.534720273326957
Ni 1.1948965161496568 3.6318790439749598 8.001444012940697 2.459013347866475 0.03537477995486811 0.06706156953518774
Ni 5.4049417405512 3.4335054733533505 10.328619111198357 -0.18429590327002454 -0.6497969588343132 -0.20439113135800283
Ni 9.036783765898566 1.6418501710678113 8.892172348132336 -1.5353609922347493 -0.5125910670735558 2.5105197432758826
Ni 4.441078479218332 9.09980797937807 6.538516900090697 -1.17102359009568 -1.189574356514674 1.433959511767111
Ni 0.8560909308172269 1.485464978795175 7.0549110221161575 0.9739053382500066 0.42329871116462586 -1.6916190155309512
Ni 8.360185054698412 7.785443097324315 4.000702108958017 0.9776257245243873 0.2397209170075484 -0.4995841132909268
Ni 7.248201009703363 1.593503843429496 1.2240634928313021 0.6210929060314014 0.4795996997491998 0.35929006952314896
Ni 3.485960868654646 8.116667267725406 10.324365670887756 0.5829053392180865 -0.7716443658611292 0.29952760475253576
Ni 2.8655934527704217 2.53841356743402 12.37402785098676 -0.6615080766236542 -0.22074566145662627 -0.35878381931069175
Ni 3.4401873356341435 3.366853434369593 2.461352815836401 -1.0400983891373121 -0.5309289461507953 -1.3744173905374202
Ni 5.470057506489789 1.4947844182920704 7.922178802069832 0.9474564000298585 0.3204478998449707 1.050035959965998
Ni 6.88592746540745 3.3565437465845465 5.0078632825910105 0.5632227731874945 0.4143911242623508 0.495381645173805
Ni 1.4109094628200087 3.8071252270069547 0.5653438532935657 -1.1595911798890224 -0.1691940146315796 0.22887986052798645
Ni 5.75112143650044 1.1718246565014332 5.5443992398905975 1.8644169454637052 1.258956346652922 -2.119154133374428
Ni 9.065315873116967 5.982561896220766 9.956832705076366 1.1988820070688448 -1.6255262376669357 0.40660993765503517
Ni 7.75865086560285 5.523577187334425 4.443871534670332 -0.5669339034904946 0.342484567930036 -0.24518733943875837
Ni 5.022252423136963 4.012763703293969 7.766747764923441 -1.9391077494093765 -0.44323504507723666 0.5257430310744816
P 0.5584185935363393 6.642631790200009 5.311842668548298 0.5237437412562657 -0.6317365017881765 0.5339106544869386
Ni 0.46203134193736256 1.0470163535668389 12.256971248670437 0.026980642353901917 -0.24626128922922746 1.1343797136204012
P 3.4267773377880637 0.2926998101292669 8.506366062274648 0.23578481517793584 -0.3120517053614755 -0.8857003018679843
Ni 1.9294941621333699 6.367250219525102 0.12761061304349203 -0.4377529389167429 0.41917543302487165 -0.7660231630196097
P 5.030887018023362 7.947029406773966 1.4556409214737285 3.4739691762998883 0.5631528391815075 2.052720427231226
P 1.4987083928170792 8.739968409846488 0.2622649454525128 -1.1071355331924675 -0.7961701189166354 -1.0939408888790643
P 5.007019257881859 3.0273833646718438 12.595801821576494 0.651350162254046 -0.480473617713721 -0.72226324432484
Ni 8.145541797249056 9.507864311351385 5.846916390057905 1.243130435364259 -0.7860407437921173 -1.0038779733526968
Ni 2.8129066910466602 7.6720180223750045 6.072307080563614 -1.452574298654821 -1.021025945886893 -1.897843600553267
Ni 0.6029973503512323 4.757180540247103 3.821703162553638 1.6669783341641355 0.2426031236513499 0.30564014540817686
Ni 7.786831295859105 2.0761619646624707 7.075269416361711 -1.7995112459292557 1.667807000713018 0.024887507270299074
Ni 2.2936649110934977 3.09775577572884 4.547694903087337 -1.2031366685801408 0.27620769907967274 0.6875415245729384
Ni 5.424561613176244 5.259699155184485 11.870203403960986 -1.5959426104725483 -1.1189170992084279 -0.31961717641355925
Ni -0.30220619369551455 4.453248353039998 6.269889378020393 1.5471646697378967 -0.15749369547551584 -1.4389567078713863
Ni 7.9663346210644574 7.075407310749499 6.608477478915706 1.0775825021256988 0.49354150664127266 -1.8385228513057625
Ni 7.721030685310019 3.6560151891665233 10.773549698118476 -0.0467987055210936 0.7808265465810295 -1.193937775689692
Ni 4.478004560243768 5.643915490986992 1.5970789173894273 -0.28984123070270723 2.261251291789215 1.0279843794825974
Ni 2.8514708463431493 3.761055544965696 10.21809074385831 1.8241658112531423 1.1461887904401873 -0.6165127428598867
Ni 4.315279927995587 7.530782703445386 13.14288993867187 -2.067076438842582 -1.698791107799358 -0.5768095107329937
Ni 8.26391811363912 8.397222191606634 8.796502332443001 0.321412320640769 0.5735701778600897 0.17337797080594008
Ni 3.013917838884372 7.879470411414146 1.6898624055920868 -0.8468823005595221 -0.05904281299576928 0.01206335892243729
Ni 8.632956812127913 5.817060866903003 13.29448677146517 1.751468640698732 0.7300094639291621 0.5083736865580987
Ni 0.5626711083812485 2.486596743458727 2.575212859659945 2.439454966118573 2.1207834414477347 -0.8125020233074394
Ni 5.374077459794351 3.6377650057624726 1.1596446025571783 1.3858850248573875 -1.165291058487277 -0.7713746571395103
Ni 9.51332455892156 6.578136086273627 2.011681068187126 -0.5566489766247188 -0.13504102289895453 -0.2603229095286162
Ni 5.401804411862573 8.12579235942743 11.392887070689886 1.665245667743745 0.4751678892300913 0.6053819230540478
Ni 7.097618487306153 6.565225839900073 10.76886221439933 -0.3222823819505482 -0.1560461643957119 1.050311325114572
Ni 4.681718067895874 1.1830227913487459 1.3739500650297374 1.452954821922691 0.09200101308934479 1.4414748463075497
Ni 5.792554535435496 8.18791887118777 9.20593113003438 0.3569758195676755 0.7102399946117187 -1.4402854539851389
Ni 4.574512122382426 3.149665146273118 5.167763393553738 -0.38328129023142377 1.003920139444542 0.6530146944406624
Ni 5.929986190379789 2.4184176860867006 3.102118420990842 -0.25754123301842097 0.2377920754159518 0.785866422997782
Ni 4.472405492820112 1.179034034225447 10.219201302686143 -0.7120863037918381 0.1353994346796378 0.24039068938106342
P 6.378337298489632 4.845025743528667 2.7796223175108254 0.18477695667150112 -0.9785842317829145 0.19396813625246595
Ni 2.0409202311925805 6.381196987471301 9.871551967221405 0.31681056020269954 -0.9829363381040233 -0.11952621509280704
P 8.509721800866082 3.900773100163944 8.534187411843236 -1.5581288820588843 0.4652264617466634 1.3493110823880956
Ni 5.019568572636366 5.919176751122217 9.631478763546058 -0.7042524095697161 -0.7476999392303897 0.5616389736401424
P 2.161406609355526 5.699360140466538 2.2491278002346484 1.0353300212143912 -1.1780013069650939 0.07551998471518608
P 9.057662271861819 3.052121062561816 12.431608475278503 0.35309988155203703 1.7379531227108003 1.6434529973486858
P 3.173384831904244 5.116427811737173 8.338650393561048 -0.5104588512219016 -0.08937874497514929 -0.27571019061796387
Ni 3.4142835509749463 2.2778487024537806 7.2540647603143205 -1.2121134181574542 -0.045668448571392316 -0.5230166332822541
