# total energy = -381168.2270347539 ev
CRYSTAL
PRIMVEC
9.26283969758112 0.00000000000000 0.00000000000000

0.00000000000000 9.26283969758112 0.00000000000000

0.00000000000000 0.00000000000000 13.55710219959162

PRIMCOORD
 96 1
Ni 7.6383783397695035 7.632403808249577 5.548935535534019 0.11454495982813176 -0.5767593742213487 1.494203287049517
Ni 5.026924506668757 4.75192932563993 8.271906546735085 -1.8815134959346758 -0.4982941908349096 -0.241903526481164
Ni 3.9387075888019893 4.576611561178444 1.6256996676587496 -0.8670459199915906 0.39845157021395894 -0.16282230677728088
Ni 0.3339772382478764 7.554809001207052 4.393924281558425 0.6389857271514222 0.7387373307204632 -0.870379612350514
Ni 2.8771583860450978 2.1456071056586246 1.5736137944964217 -0.05725821029152074 -0.44030835834874493 -0.7414171915454715
Ni 3.992311641369149 1.1315577441950442 12.81241063300217 -0.4159147599957289 1.332652647895808 0.4288893178785259
Ni 1.9624807674431872 1.086012362050112 8.030318722884195 0.7479737617170666 -0.29999785952073493 -0.490800967781658
Ni 3.8797033007679818 0.9809254471763571 5.382928777404054 -0.7889872280149508 0.4663875719343 0.2900122090629328
Ni 3.0657868509626076 7.9466456405186054 7.0798439344963775 -3.640727842017098 0.6443133100119226 2.8554314325901724
Ni 7.843457607755836 5.722656386454366 4.140623597076607 0.8743784490972619 -1.1358845803007016 0.07104806498676151
Ni 3.84207764645179 1.0081211441414824 9.73923203606607 -0.01624988619995911 0.6364894430921296 -1.0610035147210952
Ni 0.19971978901357246 8.551870314906996 1.735281838573777 -0.74469740495864 0.337825986112102 0.20526633487410456
Ni 6.156286957886712 5.4084516055436 1.7110280194547431 1.6271630019394105 -0.5222923535217198 0.9739076522428517
Ni 2.9969361644701773 8.709820255182647 1.1698883006021912 -1.1057342819695666 0.8281759823992705 0.7550589506986222
Ni 2.8045933008867907 4.193759876245696 12.803787855650386 1.6763551473933451 2.430873137986833 0.6932246910006449
Ni 5.162421323836962 8.033095722186015 7.530997019535305 1.593370735980314 0.6076290672170115 0.1362332434348428
Ni 1.6619201492128126 0.4205375477061182 3.4496454065561566 1.1876023203899677 -1.2391310843968788 -0.4694512984612883
Ni 4.5966470831592225 1.9020407392764838 2.994641759109734 1.4670694069472023 -1.1470243989676052 1.6078794711194502
Ni 4.991725716318799 5.2601072298976606 10.969702086280323 -0.08204493031789742 -1.1945247585414136 -2.032011733928965
Ni 6.474020880672039 3.251321527465147 6.770701295408309 1.6584309588147566 3.628633372746409 -1.1761092321487034
Ni 5.764691152403867 6.617622682460301 3.9862352186139978 -0.3322019550571053 2.3823209401097425 -0.17282878317068945
Ni 8.645869610820514 3.2274048757063074 5.429592184284576 0.0655333058161194 0.60612625741924 0.5242559050059938
Ni 0.5107872461634093 7.201885550911333 13.327647747292978 0.4769283235646237 -0.7240041382753466 0.42628221927298193
Ni 1.7405616571262705 4.094369607704894 6.331044320554469 0.9742452380879286 0.21853682673076558 -0.6906769848781267
P 0.6521715241596232 0.421904742826027 13.31487707038364 -0.9887835409134198 -0.11570067069912979 1.9116668795896046
Ni 5.117802225648608 7.210064638247915 13.168596455392956 -0.7384619655718895 1.9542014105177057 0.22230143597952037
P 8.086449678084898 5.26045921780116 6.543755242059044 0.32234537397799967 -0.10095873650326484 -0.06000877645346439
Ni 0.6358494745607652 5.408210771714889 9.104692327019906 -0.3179657568530653 -0.28309979821381565 -0.5414622415819513
P 3.8235890186784967 9.005730927951001 3.4535904499272214 0.47811977276956363 0.1954840586763601 -0.634708439932307
P 7.713342500375347 1.6677557381392532 10.752598726253654 0.9312515081352221 0.685601113017116 -0.4802399044363601
P 1.0279899350100767 2.4582279410036425 3.5508215505652396 0.4731287473128755 1.143764497269411 0.7440062924288864
Ni 7.9536483472303345 3.600623207490647 0.7394006106345141 -1.7537366107973023 -0.0030372441644270273 1.5685390216486148
Ni 3.0424352324172808 3.392338997014556 3.7074339368075933 -0.5208180829690385 0.39783013457987615 1.2837127276619955
Ni 2.43034679391065 2.4437779112810283 11.344189427085173 0.612376866314642 -0.5939662250179384 -1.5292304538569792
Ni 1.1676642928224479 5.007648537532372 4.272439361801373 -0.3844812240767959 0.5337792711153969 -0.007383436948264703
Ni 2.3137276437775007 8.736552810169483 9.963344586792164 -0.34285326412336437 -0.6072588283617865 -0.559138832926108
Ni 6.413071396329217 2.3576612918379873 4.694933221223783 -0.08397171502696506 -0.7077763635625747 -0.9399256388704521
Ni 7.125078085231899 7.730191605545499 0.970681672900563 -0.04494931101718065 0.37938632605239175 1.1767730909849476
Ni 0.8126919024147784 7.77180954371454 8.469297657881821 -0.7755264745243547 0.5592203368963208 0.9429880798458598
Ni 0.9741357857746417 6.614065752067041 6.507612568357334 -1.0384621390854696 -1.5536587621026727 -1.1609528361232393
Ni 5.794795380992648 8.919456840235341 9.751989745000017 1.0477451070492922 0.11314396571554708 -1.092682333881615
Ni 1.4007729133348248 2.6862790511131043 13.36328930137418 -0.6146276100220318 -1.5893027365585273 -0.022592540588535284
Ni 7.449823977568521 5.873566568660026 12.940104434120162 0.812831124512084 0.13216421557179175 0.7021518182869456
Ni 6.234094810239249 1.4437339632409045 7.823979708716917 -0.7740776578929701 -4.075878310313986 1.8100262865279666
Ni 8.840324401824898 5.871028550619003 1.7352281141042953 -0.25993621561315877 0.5700770771051666 -0.0700767022124277
Ni 4.410612213320131 3.3094087943821426 6.028667259485244 -2.4336393878780602 -1.1576186295436837 0.5393894182133226
Ni 0.4372847616410453 1.867101308434368 1.6156272559149225 -1.5508935406527098 -1.202963633337386 0.43782852934968464
Ni 2.661834417499015 3.2565828203385094 8.781707300484738 0.1558340483849058 0.3468803830048865 -0.056296360598883696
Ni 3.939226307817673 7.7345080887831505 5.2607787857661785 0.9048195391959386 0.12860760856878498 -3.0020154231317204
Ni 5.981228552933068 6.140679073218375 6.396823449446885 0.5103174405480309 -0.5449743685002679 0.530504457018867
Ni 7.099318128399469 3.201515239119957 8.937180357460502 1.999662371063982 -0.9225220986820242 2.5122503528137443
Ni 0.24028454232398538 3.2537669171105126 7.7395869037170675 -0.9666368296130514 -0.6310880695709001 0.35251392714158
Ni 5.292527168377884 4.988057631850752 13.191982346444675 -0.07450079942205234 -0.3694952921909249 1.753208249097658
Ni 6.128980106846797 0.8533566943925017 11.911432754118044 0.04229798943726264 0.0419874001753793 0.03198735153987394
Ni 8.662561247718045 3.174328804994398 12.266303253290491 2.6274077494148944 -1.5382259724873704 -1.2117984580201968
Ni 8.684162189585441 3.7635102412548584 3.0370887214199134 -0.7459842420908637 -0.16354298699338932 0.1554715228391645
P 8.167305004654576 1.450903401064817 6.9533422608304996 1.6116186264469086 1.0344692158759925 -1.9308138848317002
Ni 4.636977486628622 7.147188483275412 1.9762323790625418 0.040963329786239136 1.055974694047936 0.1829494165444591
P 8.145407651921078 7.6636658917840785 9.787183903930192 -0.020751630725054582 -0.4425382761205282 0.10680105421665478
Ni 6.94246120319258 0.6920415645026028 3.061329572563555 -0.2634799671003591 0.22173836438719877 -1.555505071282792
P 4.188443006334938 8.750261812726835 11.227096945850212 1.3696857893897056 -1.2590645900960122 0.4145158227656732
P 2.926909097352893 5.066949236432485 9.941341637687614 -0.3344521845438627 0.26839643056537005 0.22043584352569134
P 7.557912052461588 7.959141211092841 3.4760546884421473 0.4178430873666933 -0.20198560724030376 -1.6762042236377777
Ni 5.245175532517625 2.7304813215209984 0.9175407623116927 1.0573548622249145 0.5571308013571438 -1.5693761728379294
Ni 2.615103391889664 5.647442129180246 7.75923153386817 0.7999015609346094 0.22175096279268908 1.5099777762749544
Ni 1.6526295211283368 6.79815542559732 2.6870580559205863 0.6870599569508297 0.18373823099434164 -1.5371342820850882
Ni 0.9913831930461209 5.1444051008815235 11.41299194681186 0.5732202507198386 -2.1206787975490706 1.108311812888756
Ni 1.444261945096154 1.8689353506683921 5.540638810134952 1.0310812732403662 -0.03668938500123359 1.1733596944280245
Ni 7.447665735949695 1.051248925159746 0.5143756702111919 0.6091344481179445 0.052553862837315946 -0.015138912523967476
Ni 3.5044008300813423 5.769896868239835 3.5815287900097514 -0.2370302575492627 -0.12522480813948111 -0.2729506255949557
Ni 5.479608739087909 4.521757025269905 4.548218179057464 1.1147033182373964 -0.8863711026827639 -1.8754405502677187
Ni 7.080449724203979 5.366546519348018 8.69536281518838 1.1659145510038889 2.537376715567727 -1.808622978422537
Ni 3.116278589435665 6.489841810650389 11.722405987099206 -0.3173774884497631 0.6741478768748519 0.7309743989455928
Ni 7.937614371941972 8.474368136260127 12.28521519283194 0.6000407133467924 0.2115344272710034 -0.05069572658265463
Ni 4.090053124467241 6.820302874999095 9.38975714094069 0.22474012732800006 1.2362205956183032 -0.21389727107622516
Ni 5.191534428592203 0.4550962758420804 1.139952655693509 0.3786286219507608 -1.7431125554245528 0.3442612002144845
Ni 0.7826173149126093 8.928645577084593 6.404890456424722 -0.44203074035649037 0.6340885469601208 -0.17611259612828378
Ni 3.78125784186289 5.518373722670691 5.762690379057659 -0.8759524784526012 -0.19908694553627002 0.9919886781142787
Ni 6.759473807570629 3.731822067100331 11.701053289332174 -2.5810762133382066 -1.06708725902133 -0.8297114452071904
Ni 6.267357667119959 7.1491522052633565 11.191021890877332 0.6949599285241966 0.19703109144850584 -0.9052008337947572
Ni 0.44492753056676904 3.063878706012057 10.134883112710812 -0.28989856630320393 -0.055391075175794925 -0.25079542965415513
Ni 0.47349134893575956 0.5799575006208589 11.21489593357417 -0.32556388091529737 0.5946144001248985 -0.8019615287874318
Ni 7.529299141042898 8.742786701197252 7.504736869366325 0.6016157711433961 -0.8623564849357213 1.4624288228513975
Ni 7.9593635192424195 5.274307162951999 10.700932459723655 1.1479646513936876 1.184166298125225 0.01217237369647581
Ni 9.052008074421629 1.0594558010150257 8.903220008760488 -0.938751416056693 -0.3046780386052237 0.2214293177872122
Ni 5.030462911382884 2.872638120336998 9.936691692225592 0.012018107506798657 1.0705924439611112 0.47713709714132013
Ni 0.8838258788601728 7.263798370568995 11.001723722659216 -2.0603871997478644 1.5167480051192523 -1.1286268702970241
Ni 8.834136824994957 0.8564903130176045 4.533141981380203 -1.136020591657934 -0.5159610119870534 0.40076376328690333
P 6.607609552889694 3.23564880291985 2.5648543398132295 -0.6408762593059156 -0.1497356487966518 0.7046311330653735
Ni 5.862914303159381 9.068319934896964 5.0440690964210555 0.6324558964527044 0.0895396960330458 -0.18420231511495375
P 4.284859903375125 2.0338231577788117 7.76739209552562 -2.2300393849627853 0.41601760412218025 -0.0012827233671655327
Ni 2.3667666631311475 8.803689871342245 12.358640795785908 -0.6918486365887246 -0.8866570093542987 0.31615955688226194
P 0.3610738228296477 4.724826257070463 13.527791774358665 0.5974444133745259 1.2119419255765966 0.08033900337038422
P 2.944573332404832 6.585378737931825 0.6546345132001636 0.19520046599767027 -0.7545480725004746 -0.5937417677119581
P 4.735756407758082 3.2952551755256336 12.1620490676937 -1.75102846783752 -2.470137997024727 -0.35017782280923565
Ni 1.536353096059122 4.219297524928546 1.892164699731451 -0.10502159371872881 0.4115413135183815 -0.39013893658320553
