# total energy = -340890.2797292295 ev
CRYSTAL
PRIMVEC
9.10515565776300 0.00000000000000 0.00000000000000
0.00000000000000 9.10515565776300 0.00000000000000
0.00000000000000 0.00000000000000 13.32631566837431
PRIMCOORD
 96 1
Ni 6.559636548875585 1.850231408958472 11.297904122386312 -1.2441275091702058 0.35357630696782333 0.932001241817053
Ni 5.05174989548867 0.4891854253248395 5.777038386142359 -1.68360308720501 -0.25554785673747604 -0.1552298391420036
Ni 2.972942653559418 2.086036735690359 4.713278473224386 -0.1554478686900807 -1.3242898777534096 0.0036514807096582275
Ni 3.6408786779009787 4.434119857331127 5.029125404181875 -0.4073187907966017 0.36915719212521586 -0.2822994137997074
Ni 3.806018889922611 3.1719176247954946 2.5959527799009483 0.2966471978809471 -0.9956758971578786 0.39841351788717194
Ni 4.919014933209828 5.136873997721137 2.4231505792143664 1.1452382536014598 0.13677728886377089 -2.09897585865434
Ni 5.080849973650502 4.4673718865698655 11.366241048740502 0.8947793813511171 0.30274456902793667 -0.5113600228799321
Ni 5.615695934634275 8.17030220172769 12.27953370832201 0.22401456201588515 0.7212826255791255 0.15876947686414594
Ni 1.5720506868056956 6.7125849571867375 0.4676908838615618 0.5037544426185324 -0.09042775506495394 -0.5972451528795262
Ni 2.724818050934866 1.5152254090184647 0.27632418087079974 0.1319623839736308 0.4236825768666059 -1.2822433422053208
Ni 8.088956739181445 9.123184079033743 6.834494799651248 0.7168287035728299 -0.06853249765375939 0.6489099282436694
Ni 8.79874005990341 2.473124227209113 1.3314378377742322 0.5730780687150194 -0.13482505023340652 -0.42299634943285863
Ni 7.111791411169008 0.7735458167668634 4.59677982489366 0.79926264179903 0.8146712630446162 -1.106504841587004
Ni 0.9487117159174043 7.737169936972271 2.6916761940821594 0.6840386536260026 0.29988884474669647 -0.9420815088711905
Ni 7.883899523823933 4.012077672425867 3.534325591327502 0.8228581697307829 -1.1577034759480063 1.3730943008506225
Ni 7.649195920952367 3.9032255339951116 12.606068271240186 0.26718158432166245 -0.24945614201744135 -0.48183116018287986
Ni 8.1463283263209 7.25208365282029 9.204366559289909 0.569698096499193 0.11176328331793654 -0.6318545154232795
Ni 7.272297098852601 0.5596511371215321 0.17517591482199843 -1.3702740577930077 0.19918284768418598 1.3775194265015114
Ni 1.74634158047709 6.848561354955446 9.15976313222753 0.6442554601907937 -0.7019052494937783 -0.5945915173067631
Ni 0.13674305189299643 4.902816860916369 1.4396817517928444 0.5541686334050263 -0.052956754702689436 -0.3180606305597168
Ni 6.680844383822487 1.9838040455773915 6.839132055536048 1.072439781582495 1.293818962858062 -0.04218511800848219
Ni 3.6015079839173247 4.071916756806204 0.19356650864905323 -0.4318602275813917 1.6097995709602986 0.044189292922704536
Ni 5.725467693807943 5.450209726689568 4.493246918522397 2.5643622430176354 -0.7069258426368212 1.2308647306230287
Ni 5.506279276539555 2.8857334706326276 9.143691621600668 0.25346654872841506 1.7166623316528242 1.1184183051951382
P 0.0828277819219487 5.5893274032335665 12.179013698028267 1.2337834469317204 -0.7544719678469006 1.9120808271985714
P 4.43419269857809 6.331716287127473 12.25177481961989 -1.5606601331211702 -1.4077098340419627 0.17493220266693743
P 2.6875324376455354 8.590222885315145 1.3313549808558116 -1.4839240166106962 0.3187183187483737 -1.0424044115626694
P 6.639880287561511 8.06999069950338 5.6186013898725236 -1.0403390443932083 -1.2906120258849902 0.7515303687200735
P 4.556065209903532 1.1942868748982414 12.426150391240878 1.3980430003761601 -1.1492355476863112 -0.6214112086027684
P 3.9999222893388695 6.240209470629849 8.17124367484469 0.3496579457500236 -0.6629082994052905 -0.9432192220200594
P 4.892236669794952 1.3134551549301718 3.328820402301167 0.4474714517560874 0.5650829663246849 1.3811562519231504
P 0.47479745801841705 5.822446708983683 3.554834954925601 -1.0477247953343183 -0.6150934939148568 -0.607171925074935
Ni 0.7200712363399435 0.2164705282410704 4.915131584231099 -0.006122310847653973 0.5911015018756336 -0.9816554145090707
Ni 1.9679155485835254 7.056240855203635 4.677416906313187 1.0498192159695017 -0.9360615279293557 0.33495714920473924
Ni 6.116069775492675 5.83060492864357 9.249303235057145 -0.6130047297066281 -1.2338376972084235 -0.2042970289822998
Ni 8.676048084549633 2.4746903140188237 10.39332691800396 0.6347236094409585 0.11161210245205294 -0.7314485103685338
Ni 2.2980229746652516 5.727270514670283 6.828577358851068 0.0786680434258645 -0.60291520668111 0.6406793128037611
Ni 0.5752901528445489 -0.014434403601361497 9.172623254378896 0.1401408060193651 1.0618172688716423 -0.32532836786572356
Ni 1.5679442615081405 1.252414189974941 11.367427450550416 0.11055486483213217 0.10549339114882476 -0.8086247997402203
Ni 4.089863019026782 6.974804341098685 0.9622401565096601 0.7306422124171545 0.2430499813807814 0.5294934992558494
Ni 5.789340362238871 7.750718408907442 7.957516530067375 0.6667155889665228 1.1733118719092246 -0.07170883849921199
Ni 5.533439956500988 2.8509153545841786 4.83192229627818 -0.21431199001614057 0.23778950431279045 -0.49514818900676016
Ni 1.0629723169351837 7.841332920129765 6.898594186463351 -0.22609535580431384 0.032965913403059356 0.493994020797659
Ni 5.21903892429572 4.453741468231861 7.026059995039986 1.0599138812013422 1.0676264193542517 0.1008018992104264
Ni 0.6578038068889683 7.386439332844065 11.247570820734683 0.46244221413330683 0.593172011251417 0.0644164186028568
Ni 4.666346857805943 0.24095975547012602 10.07228276407564 0.15043781706999898 0.6427307960161511 0.7507986327603714
Ni 8.47582570695931 7.274318443455833 4.839798256106086 -0.08668602863433457 0.5671853573796684 -0.6735678360016658
Ni 7.150005750357121 6.168005584577496 6.7784443706285895 0.2411622774397653 0.020477294017745378 -0.1144868528966867
Ni 2.5173297589599555 5.531300244871442 2.3911805559221815 -0.5803247229751038 -0.1921763344593658 0.06777659332434133
Ni 2.2517232570642154 5.438992174657222 11.520573440743958 0.893983367812383 -0.32986353673191576 -0.23696263753612093
Ni 1.355839655506932 3.829901713770697 3.7101525247942346 -0.1953994693823538 -0.947105444448343 0.10606289049904959
Ni 1.7723003798636299 1.4147044882091349 2.3563988604972135 -0.9155888618973007 -0.3416031937663471 1.4841068220454634
Ni 0.959109803921413 3.594688222170387 8.029358941431674 1.1123700421185294 0.14422808871486129 -0.42632849912988513
Ni 3.865776027900114 2.6586144626011126 7.000580126852229 -0.6494922831097008 -0.32384484134166164 -0.20888361991171767
Ni 4.56157382920513 6.774072074779618 6.016112463831723 -0.5471104410066642 1.0805912070450356 0.2421441817370604
Ni 0.8004005634910517 9.095941452669475 -0.025619177072573548 0.04537020060468316 -0.2769216944275618 1.0057893314427968
P 0.15069488223322616 5.932573569236295 7.806635902654393 -0.08444531222927391 -0.2160287155969312 0.6256578996942643
P 8.78563774060589 1.8657556997175218 8.095963156623725 -0.23471703603505384 -1.0243095017341715 -0.5586618932896894
P 2.0494613245589206 3.400921400092185 10.181172233645464 -4.153759596172497 -1.41867738879706 1.2987462249563502
P 3.9298216942925803 6.449755527831472 3.8224673540025074 -0.09161200518104222 0.43530859114130843 -0.23629672181734787
P 7.026430574883911 4.043963928284044 10.305360186108752 0.09464667824230796 0.1797162543191421 0.5306255559777636
P 6.347449996471543 8.030246694129039 10.126521267080086 0.9292151944314836 -1.042007947455199 0.7671215382901111
P 2.7156946847527146 8.74701366940361 5.708327237881895 0.7330670198085634 1.7609909783668705 0.48702324590678064
P 7.04949393470366 4.108319169976104 1.473983605503441 -0.4268064672075682 0.31232141408309433 -0.5792597720456992
Ni 5.550411967043433 2.820841024744213 0.1712962079056166 0.6867581094396946 0.270915597442798 0.20372238742575238
Ni 1.7623848651207532 1.3517969663004699 6.921915222194232 -0.7302537187294843 -0.16505068188716737 0.041474722205018896
Ni 7.146272636450252 0.8028516714513662 9.178513379711466 -0.4272368698767674 -0.2650048883853178 -0.5073012794295263
Ni 2.908596517023228 1.508269069933471 9.021529566318547 -0.5769444936489612 0.9347137556522095 1.0986884308663787
Ni 6.691142315111922 2.163430560588847 2.403401496131446 -0.6537430879662548 -0.6690750903376348 0.31541316563454064
Ni 4.092421567826368 6.928978091602909 10.207824845909329 -0.03720437696443915 0.3256926931836778 -0.13150061384586384
Ni 8.352532791318083 7.284051855081302 0.23683785140759128 -0.4921004033193718 -0.4368132007112929 -0.09959193806272526
Ni 7.622772758616436 4.0298873573083895 8.12905311408797 0.2781015736682759 -0.05142077767413725 -0.23173815591238803
Ni 3.0031535607374393 8.00875852627487 12.18702259313188 0.026632257875547682 0.7495231084820575 1.0661385219548154
Ni 0.2822580109515462 4.7527092612367845 9.989099881074745 -0.43319308746020235 1.371903880086947 0.6074542322020442
Ni 9.055924292619022 2.560988981358573 5.578675281380774 -0.5481545660004624 0.34909178883390846 0.3857909440271549
Ni 3.52063598947634 2.786314273683617 11.496346442003968 0.23560869461138778 -0.16696435397011244 -0.07737683541826675
Ni 0.9734595295731796 3.509518594158569 12.625444953448008 0.7905034075491612 -0.0805338929900097 -0.05653958695794134
Ni 3.682152349461549 8.696671262596112 7.731208791423914 -1.6049607548107585 -0.2919035125483747 -0.09061133183066974
Ni 5.928931506888132 7.766015070769732 3.4626170257544984 -1.0615321335310557 0.5694710680900514 0.6179556459540003
Ni 3.375627277084185 8.90835703142728 3.3407344987575986 0.330065882550709 -1.0250088417940413 1.3562990836701545
Ni 3.5145901659783876 4.158206318990082 9.175382116607631 2.082213808704653 2.2292503134025865 -1.9590682516917037
Ni 7.373719430093102 6.25221006606705 11.363935623274115 -0.5477092509329277 -0.05555845399159464 -0.6180037255831162
Ni 8.306606385107733 9.100311927487272 2.293871934103932 -0.7440579716024283 0.4024943728247649 0.22861555112300627
Ni 4.826907176424758 0.712248996931674 1.2242437482274784 0.40225294623792013 -1.6689277445810224 0.48935729335659595
Ni 6.122179335081721 5.694501058692677 -0.037723571286697045 0.4168557837527595 0.2234131809864604 2.2020022763199107
Ni 8.078704333671363 8.981180068078825 11.444294086924009 -0.1748329580849118 -0.6747803682525282 -1.581074178001148
Ni 0.04613127221743394 5.162077069170433 5.761832775838775 0.6180101533410195 -1.0898325231376456 -0.4325443981326099
Ni 7.412643971439106 6.034414737646835 2.5945269124916424 -0.04108108631102602 1.063620640628968 -0.569498064673245
P 8.94118111834011 1.763714217877833 3.5186938597291815 -0.45049532618407573 0.0012104753683333993 -0.2477121627431411
P 2.0097719501198017 3.418512561233818 1.457845627238726 -1.3125908441489265 0.40359274809526624 -0.5051502945247945
P 5.1482827580267605 1.235924752693628 8.097936243900843 -1.1687612764240647 -2.677611623962795 -1.1411175465648669
P 8.745192638229529 1.6653785344774017 12.461531205922121 0.05703683830933402 1.1811953884223594 0.18139364202156502
P 6.570034636879593 7.687109789996755 1.413535386195374 -0.3674183550572382 0.7838758749303145 -1.2640697566200876
P 1.8751795360433963 3.677927557137678 6.01911079165985 0.5779112284376047 -1.0040155273718256 -0.5402993316221018
P 7.173833943269984 4.141771512643992 5.6916957601690035 -0.7071400155301563 -0.4550649478326292 0.7832130445353349
P 2.458546872660586 8.617520142614634 10.238022095353545 -0.25264868081281006 0.8229332459430925 -1.2257220100798245
