# total energy = -340891.962398077 ev
CRYSTAL
PRIMVEC
9.07757555266092 0.00000000000000 0.00000000000000
0.00000000000000 9.07757555266092 0.00000000000000
0.00000000000000 0.00000000000000 13.28594939672055
PRIMCOORD
 96 1
Ni 6.185541768909978 2.1544899678704446 11.39561179366016 0.6153809432482886 -0.614971880735328 0.2050706739235307
Ni 4.6615711304389364 0.26676180885309797 5.886658958500857 -0.10631794393264916 0.40845907504863205 -0.2507823170280326
Ni 2.878862352261432 1.7062665133468502 4.845983895964134 0.37324164660723463 -0.5576797318820783 0.6020664855275695
Ni 3.3833123105685523 4.30549414667843 5.089741312520137 -0.41390210044107434 1.8353799348014068 -1.5208849101057613
Ni 5.2314613318483225 4.758955362371397 2.7078362875966735 -0.12250869475989869 -0.4289798207098032 -0.5259003825879524
Ni 7.390390234227993 6.361456108080294 2.61576425295419 0.1302456583928402 -0.7162975136597083 0.045063982218174
Ni 5.310799343322008 4.662524275885702 11.662472548088207 -0.8266698301673893 -0.09608546757136356 -0.3484312724317741
Ni 5.830508706353073 7.7773854407664595 12.22779037462582 -1.5138526858493284 0.3392876582592931 1.0307817397220762
Ni 1.9071260304953925 6.459793485459521 0.4243784787182077 0.24745839486112226 -1.1208855357887082 -1.3776024731336212
Ni 2.823253123624384 1.5014673283516742 0.3401957651022437 -1.2205039562139948 1.2585855935770647 -0.346431725503242
Ni 0.34366703004360954 -0.32527858498156764 4.791803477739667 -0.2613490368002854 0.5006400653592669 -0.31891320836799913
Ni 8.888898272906848 2.3129027411229965 1.3515929227870112 -0.37863556392929626 -0.8945245850278336 0.4295241232490474
Ni 6.8402437599301935 0.7028775929300559 4.640316894733617 0.728041541569514 -0.1445052536356479 1.6722910046263006
Ni 0.701657566758195 7.270593467933 2.21314653866444 -1.3034238329376777 -0.11315270746629544 1.4157154779552585
Ni 7.809029869599099 3.9414379738921377 3.836251565659719 -0.5592442481557207 -0.10739883570165375 -0.5697004104920382
Ni 7.593464679843306 3.932687190933255 12.733905160313293 0.4771363258103718 -0.9381292090916618 -1.6047715216180878
Ni 8.190542220424739 8.955019334185378 7.2408426213879356 -1.7336917763312851 0.1086638184570064 -1.089529132964614
Ni 6.515865670456428 0.8404482524133189 0.5109885360719366 0.7390414922244434 -0.5994308476769353 -0.9683509840906805
Ni 1.8212612421052783 6.660725623213532 9.205794624502285 0.7798613544542827 -0.21319973078856833 -0.045018473692219244
Ni -0.09964273276251273 4.7421981576596774 1.1740863768418106 0.9784096538782634 1.0660279645188804 1.6118803647487274
Ni 6.327714759264769 2.057187434119135 6.866192010021444 -0.24120315798002975 -1.1514479819565975 0.6767009823140087
Ni 3.389875397787714 4.44271985828572 0.8107082989590749 0.9877345308236151 0.25146674468956687 -1.1081488049483301
Ni 5.962596510123508 5.565625047908888 4.733770536395128 -0.3232486025185594 -0.12288330449049804 1.0674137891228133
Ni 5.4176968745707645 2.9935665985979885 9.117881935037975 0.005220110748358753 0.15804031200760524 0.17362916758479774
P 0.15997683954281675 5.7481478621767845 12.532450154199914 0.005575437205248463 -0.7290273025215509 -0.3897774394787287
P 3.9946961104271628 6.112530827687682 12.64336178941591 0.1792647686040203 0.48412586975432753 1.062461073103228
P 2.2457014483381337 8.384339383691527 1.3488160923854322 1.3792994012200697 1.036709418060421 0.8810252649898181
P 6.442745798325931 7.887514588958538 5.944771782511411 0.2162513731306985 0.39873490578233267 -0.7497295680659088
P 4.627947790107296 0.9237159464003872 12.569146253900415 0.933131241656438 0.5167763087994971 -0.12716496258498744
P 3.9765137263331356 6.119874586415624 8.302908083265228 0.03554498698414524 0.4849442518905648 -0.3766241899262223
P 4.8373402283983165 1.1582078814562533 3.712958117211446 -0.37234818825868776 -0.4947085303661803 -0.37474034263994815
P 0.2512927121308658 5.518821067684823 3.525546120680423 -0.456100331075679 0.4923554567529714 0.6230819114369721
Ni 1.767776166178166 1.06381017192366 2.8259881971778187 -1.2756422919490353 0.8020255492561477 -1.3260672813688066
Ni 1.7960528144322316 6.597572929183504 4.975628016360576 0.5302378336210417 0.11828951447222852 -1.1805058185545023
Ni 6.044830268240228 5.640015780635074 8.98758604470746 -0.3369266142262843 0.5972590368365972 0.8914785991126584
Ni 8.327295898096489 2.4375832431357063 10.376592195673968 0.6396359591409113 0.6808296597704017 -0.32887443334576905
Ni 2.471615074373103 5.318724066893694 7.003874323685614 -0.5104182277919532 -0.4957925074589784 0.729307552766131
Ni 0.5967525633719643 8.887427705646123 9.280355107893751 -0.7072310325820659 0.9000930802545466 -0.7267091959113355
Ni 1.1112314272942019 1.104704650377774 11.383269014003321 0.6906913830558299 0.5469353488813806 -0.21043168112512792
Ni 4.102574019849736 6.760061533917942 1.6324449446160196 0.4471690900243202 0.1666005428727905 -0.03534135561377139
Ni 5.642321484858679 8.000140070463575 7.955706245250469 0.18840992543839813 -0.09212776847519617 0.7360754676175839
Ni 5.111936892823834 3.0199278783828376 4.872356068839804 1.8547174587877542 -1.090992604884018 -0.36770271906687646
Ni 0.840581692775866 7.515987571384734 7.023923057340165 0.617057302509447 -0.7044221023783611 -0.16127450267418678
Ni 5.080147222780258 4.728363932318042 6.944592307927026 0.30611502816206637 -0.6401563504207556 -0.07596992776841109
Ni 8.175409901760364 7.079038465860033 9.034538897172734 0.6622567818642208 -0.21653110915464646 0.1608222456281166
Ni 4.810071191045119 0.11924031090559531 10.427211480957803 -1.0528394908530643 0.5065975684942823 -0.5427830172759038
Ni 8.004642548002586 6.735116355939717 4.908295098728302 0.8593891747772812 1.4035924694394795 -1.1055005686922057
Ni 7.269295374610261 6.173386895069786 7.003595642112131 0.05948735673235561 -0.80879217855602 0.22951543722945636
Ni 2.1765212440542707 5.250778412902785 2.7949519659159727 1.3047332957777207 -0.14562882571712985 -0.6577745777231511
Ni 2.4640171435260236 5.125807428468204 11.411156234260565 -1.2045890847559513 -0.14632688022541898 1.1344023393282203
Ni 1.2141257476665404 3.3396764042580247 4.046315744551318 -0.6618454053584151 -0.10016863650180169 -1.2121162463709318
Ni 3.703569180682014 2.930295896084076 2.7265297392016805 -0.15235406025610534 -0.9191413551352493 0.3199208236969071
Ni 0.9806414235115415 3.435226965902421 8.72593309544903 1.0606307047627088 -0.2320914254867487 -1.1315126764852512
Ni 3.6873566305113044 2.7948675444621167 7.325181469305655 -0.6400275381523751 -0.48003010241839916 -0.8293144668790878
Ni 4.244955794445247 6.946678334819092 6.125381043825228 0.04562885358270852 -0.5173175260149478 -0.8439990654744561
Ni 0.9456746019787452 7.470617848118661 11.400859540162784 -0.5322358378876769 -1.116989800278728 0.6998560802742334
P 0.5151787450074347 5.479605940732155 7.862106454620455 -1.825848598272204 0.5543450110818905 1.4429835696425923
P 8.657447325704952 1.7275625059003135 8.245818302034204 0.19452889385194239 -0.036840308756801075 -0.42131459085506145
P 1.7940648253575477 3.1422935985962583 10.684294778617165 0.4003948099832588 -0.2391179933162269 -0.5081101484840668
P 3.9426452914580414 6.336066128893578 3.9265698126801527 -0.1070800189096543 -1.3669267385873296 -0.15063939155784378
P 6.954721066874662 4.2167426892209665 10.311211864571211 0.4643209192132584 -1.0733882615386934 0.02097171715566066
P 6.4191894894272785 7.745205434968494 10.043114744335073 -0.08244422263884511 -0.057507350187849346 0.7915112799883851
P 2.3560303031952485 8.706593320455356 5.552330938320419 0.19206372014090148 -0.23551304957378794 1.4828678074320396
P 6.997031647135401 3.8188816245893644 1.5749566578124892 -0.28328131809700247 -0.3588095303423046 0.7516319272949442
Ni 5.366662744078194 3.0515813847911613 0.24229955790123406 -0.5943277221224151 -0.39340937980436114 0.9452439657595721
Ni 1.3591763295129973 0.9778182974739766 7.052049017837886 0.3943138938965015 1.2467322937829044 -0.1858038552741187
Ni 6.7935577881900135 0.9536447134288476 9.030526608720631 -0.3046322729689528 -1.007047115109298 1.0387734996783013
Ni 2.6370629687803584 1.47210137101559 9.2110024296719 0.565637039055942 -0.2797511934565569 0.6403628100046068
Ni 6.694103869001718 1.9452064604876254 2.6818889452629913 -0.621760364412071 1.0536853837931273 -0.7247836967538486
Ni 4.017090489638328 6.566336991256621 10.407642043299338 0.7647412109833926 1.4082739340755488 0.3262873893448832
Ni 7.984481252409558 7.3106709645756 13.557647042438719 0.5087650084592463 0.28308360026389956 0.024701616511738102
Ni 7.780580747407048 3.8412124607707447 8.168547254543647 -0.47931430729829705 0.19497318047821258 -0.46834289588845796
Ni 3.0341161291761303 8.343272431299427 12.505718509327178 1.3407994453726586 -0.2129413349208591 -0.36472461027515896
Ni 0.09230805161025431 5.191347524902988 10.350286289100788 0.3529759543796631 -1.000044972759852 -0.21238983329276326
Ni 8.592751443808732 2.282338543796692 5.696391156659808 0.4686905090358638 0.2566081796811903 1.1693351466496635
Ni 3.8472762813273147 2.7807156039715584 11.410637904689038 -0.5980067136358992 -0.7056004389571784 0.1497806431019743
Ni 1.0886282638423166 3.2711043975449554 12.714600787864788 -0.3674633493625607 0.33547342671952546 0.11640695273753501
Ni 3.2237103749014633 8.38811565517586 7.772293828565592 -1.1743310572023582 -0.20405405973355825 0.5541532067860585
Ni 5.6898153608346895 7.917316269927429 3.75844857223411 -0.722917075858755 -0.3938372113703991 -0.40781244260356864
Ni 3.160049336633161 8.372057423791768 3.5080490935505 0.2970320920241917 -0.3880108344966092 0.7713294057238717
Ni 3.333766902488074 4.150830412183159 9.368733476990624 0.08113810223291187 0.6386964780457774 -0.5071390428200492
Ni 7.2510766802135 6.086496340627439 11.446349995185448 0.37892249904209574 0.20395712914437775 -0.16641439500391342
Ni 0.6858153816753716 9.093642992447926 0.13613549476770345 -1.1196845735020715 -0.0030231030970399547 0.47873555197669165
Ni 4.2564116949578095 0.1815378973062378 1.5399208467044982 1.8298253235317647 0.08696833576144376 0.6488546495257019
Ni 6.17040037266992 5.516361044674598 0.5814396009514882 -0.9218687813687415 1.568995392459743 -0.650618426294344
Ni 8.018658324857892 -0.5032544415896046 11.363273838045302 -0.6274658994372806 1.5749505816019134 -0.07086397400041344
Ni 0.09275466833388192 4.938065008182302 5.813798705034907 0.27446526246726927 -1.4153059012216658 0.21108396999714613
Ni 8.103488269620087 8.991266093889546 2.4625774400226224 0.022741150351257608 -0.4762603509633217 -0.4097543968212878
P 8.774729603535619 1.5475451025210598 3.7073381901057982 -0.10571939111670181 0.21342933030087113 -0.6283321040923179
P 1.8727946392604404 3.1507629767089527 1.5745581522399839 -0.6751968869646565 -0.07457124764867157 0.34734446712549855
P 4.65122269415976 0.9294983621107692 8.122498528616449 0.3477440165567624 1.505592502723065 0.45174231121729935
P 8.32670585567706 1.6640648639943139 12.439900639076479 -0.7042295267515807 -0.6364223372996201 0.8018949372155545
P 6.319953432055386 7.912677628753167 1.5401741110660676 -0.9370843127669152 0.14111731100002148 -0.31022133702095606
P 1.8097327209872482 3.2842578047103292 6.107338454396727 -0.1909280638745615 -1.0349713523233917 0.99719001980956
P 6.9324356185716995 3.8028506259323245 5.939284388010743 0.21584925259627344 2.074808260269201 -0.36297420324295554
P 2.3606961770965618 8.631095123495786 10.399802648939078 2.1787456197848156 -0.06093900157721764 -1.1826516612529117
