# total energy = -340867.5448635926 ev
CRYSTAL
PRIMVEC
9.24104597563883 0.00000000000000 0.00000000000000

0.00000000000000 9.24104597563883 0.00000000000000

0.00000000000000 0.00000000000000 13.52520488458799

PRIMCOORD
 96 1
Ni 0.8688052502034836 5.002732625546932 1.3516046190060587 -0.35670791061826956 0.7744700082353824 1.1690482115368641
Ni 7.337307300300419 4.635946271474627 9.682180196640113 -1.5180438411125405 -0.705331758676824 0.30663850476570415
Ni 2.7959246518441563 3.245353679683024 8.388967898666834 0.6483802809924446 0.11514119865123397 -0.20075919103237036
Ni 1.159612648730525 4.898678448356785 7.931261665987006 -0.677195405451924 0.8202395011610132 -1.5951401691759108
Ni 1.4445880231701145 8.888333690511041 5.0047721243840435 0.531838088228626 0.15852085118844955 -0.8852614145583528
Ni 8.769410670416901 2.292980727015222 11.828237534388359 0.5994149068373354 -2.0283119164798746 0.8817562296185718
Ni 8.825550024451552 6.241180637120189 9.215033311436532 1.0246653424116934 -0.07598792549054009 0.48353991534387053
Ni 3.274074850438528 7.325451038370138 12.278668291606214 0.6935964725177668 -1.3269293722587856 -1.221619814985993
Ni 1.8002389168948065 2.394955668870753 10.497452067761666 -0.28802294654704585 0.6585662203865109 0.24484821093178477
Ni 0.04709052185839748 4.332146886472308 10.996167289972288 0.0494561977485987 1.9158120121062296 1.9364350876732197
Ni 3.232915231859051 4.948811122535875 1.1886055062364191 0.26043526673676437 2.5533422377580477 0.20307112699499866
Ni 4.200240196844229 6.438902055873332 5.699562010962792 -0.036960122164116996 -1.9960021486035753 0.39885934717533883
Ni 3.5714055032887067 3.34695897970129 4.8104153704546055 0.9475232487120521 -1.4002958009660786 1.858746634551805
Ni 0.8243502746447868 8.255516106158986 9.279182804084716 0.4621699343085266 -0.5837566314747882 0.4012905823246508
Ni 8.417982934682964 7.55446263864778 5.115327377387093 0.04954232970450177 0.6013838576382481 0.6137927728255622
Ni 3.7486118000736335 7.386839306493953 2.0022574220061586 -0.32676792852572756 -1.097640706328155 0.3165279959652742
Ni 1.2065294389254078 2.150742548035581 4.640362567325353 -0.376993400340183 1.1154257982257176 1.2553472891454251
Ni 8.598368151268373 8.150768850523967 2.4956839936301076 -1.8205189585291743 -0.36751579986705096 -0.13232568085032048
Ni 5.58128678818846 8.729396941532945 9.93032723072838 -0.4298776499337242 -0.3017888899828867 -3.7963921975933586
Ni 4.950548439171021 1.7134192903671475 7.392146439172487 -0.23303527745725672 -0.4752920735127814 -0.4502685548852503
Ni 6.062403362526885 7.329692678452756 2.3472857334324426 1.1032863346497064 -0.5608295903649696 -0.6104048301899359
Ni 0.0478408947880458 3.3138021068986037 9.098229263174515 -1.2429455730469625 -0.7002725989863617 -0.9263638410256174
Ni 2.0207949601450075 2.9720497462550823 2.01732494739768 -0.6926508207750459 -0.2009152569942604 0.016443747378320064
Ni 5.595213044407425 1.8012739140391492 1.1441902671752282 0.013142708029545107 -1.642947518467177 -0.1956288117843405
P 8.75828445111522 0.3925226669918936 4.784987708469133 2.197134406704648 0.8514706912611528 -1.0037077663234197
P 6.4731308900040885 6.825196257907308 4.510764290970995 -1.4502847312896958 0.003146516048781678 0.028961420229356574
P 4.196081726174996 4.546049376651736 7.132962823928076 0.7014799890309015 -1.5317696753390653 -1.7409350881572596
P 0.6297855971818872 3.254677895028038 0.2247357683250767 0.5047024083540985 -1.5654526694138071 -0.7608393048258252
P 5.002769589730659 6.423256965111084 0.28767838037459137 -0.08725604220519166 -0.02668522260067017 1.0417708917437285
P 2.94901181874753 7.564489173483598 4.09371403986737 -0.08800706143860326 -0.6044416706279655 -0.43779176257447827
P 7.122859588411026 3.897503532124048 7.420509057345845 0.11650002667197357 0.25379976369811774 0.6682309971697846
P 1.8825766361456253 6.650725310718143 0.24186404695935193 -0.4381504314654776 0.02093854992488007 0.7467234342497334
Ni 2.4052686761304516 0.683632247720899 8.850974914123244 0.11694431329824377 0.158049825089302 -1.5588547044813152
Ni 5.460303014851567 4.963162466867696 3.651832174240864 0.9507029319916144 0.7034682231055239 -0.431586919315347
Ni 3.151113493272266 5.09323018835538 3.586072891391389 -0.039466176415422355 2.7249219790129846 -1.8724033061032912
Ni 4.392509398497713 8.72777051744898 0.18721989415644053 2.412743775375974 1.0288163884655896 0.6743545935690193
Ni 5.985776609661814 3.590747012423607 5.476423095374701 -0.3898126635920383 0.004750627311107947 0.9050139145949316
Ni 8.08024118797377 7.937522474605685 7.843468957322746 0.31148580555567645 1.1634694318975058 -0.33863614071822323
Ni 2.0320875182734586 5.011308316171485 5.587694529437451 -0.3797177412498815 0.16358823840902795 2.735555804577747
Ni 3.978880182597977 3.355285162085688 13.45633424766877 -1.170382099856939 -2.9891794477093168 -0.5672640331364036
Ni 2.3196134213901782 7.834715838616307 6.835692237876453 -0.3942426743389339 0.9082733020724937 0.2160955642791246
Ni 2.279923129113829 4.519610744241344 12.386179544079384 -1.020075666158482 -0.04901859599054784 0.9174675669772522
Ni 7.0810715787081975 0.22866044053223972 12.90493859491571 -1.0578875947999329 1.3253232041139305 1.6406088430316712
Ni 5.592570105270979 4.273087361923264 1.0029584380975418 3.1511769445924567 2.5124768670022535 -0.05207846586279419
Ni 2.1369087022759317 4.8615294437116345 10.061914180167225 0.05993987088874194 1.3142463774744786 -0.4955770490140627
Ni 5.81845823202373 2.4578964327110815 12.391847077549254 0.3611860009942812 -0.8539417785094648 -1.4638321309568274
Ni 8.77409588070424 2.428824102210175 3.131165771524251 -1.9043652037218688 1.3907199843521854 -0.3044214425097273
Ni 7.628751406892149 8.758977529560092 10.941525909483156 1.8820313161113587 -1.0590800724461373 -1.740601101856609
Ni 1.003901024782568 0.8293404394478667 2.6450562600689667 1.1103424701655393 -1.3316941406372809 0.8020651442448316
Ni 2.6027775508271684 0.2606326112464914 11.169371289764225 0.05620302955412901 -1.3098734452177636 0.12526594579006167
Ni 0.2536177332797915 0.5962581584373424 7.255514802759566 -0.02925581154132381 0.01793987230787233 -0.5720182599919374
Ni 3.141327225630671 6.064260812759143 7.925526672881837 0.050247583301642494 0.8583836163309023 1.9500048559378544
Ni 7.682672909903207 6.09764871171012 12.025827730289272 1.0327105813136732 -2.1775297450998434 -0.22131361814495432
Ni 2.291308097701597 1.9121110189431128 12.770836232774275 -1.3174417444833246 0.6167400283793443 1.3513831344257758
Ni 8.723270128080276 7.6112950711273015 13.456957094164563 0.7777119122114476 1.1099087250622304 -0.013431700024873641
Ni 6.280556733834862 6.398546408289907 8.037028208988284 -1.400940890749245 -1.0488103150890131 1.1509484166123598
P 2.506070005152666 7.107547175302315 10.19688150420786 0.2055977500715943 -0.24252161968113717 -0.5598268601320681
P 0.3268262232547533 0.158361955921148 11.68688557171356 0.6738349736201233 -0.03505493472160414 0.9621240293443625
P 4.105584163366548 8.782218760078141 7.994316094692293 -0.24023436630885722 0.16083278715107788 -0.16085335597636813
P 7.00833530618034 0.15609882377249196 1.5320535988083943 0.26183831773187805 -0.5954420382325165 0.5826687977272481
P 5.013960496353863 1.4798241313074176 5.098502205059376 -0.17229090838934843 0.06164528361562286 -0.23221021045280005
P 8.167846303405618 5.906839595313834 1.134355021990195 -1.026670031546548 0.8442919141245266 0.31923922424885015
P 6.834465026976733 6.8349085971814505 10.088084822245598 -0.10660924992082287 -0.2881548441392199 -0.1619350190763211
P 4.88407759578481 0.0596925361953606 11.716032754686513 -1.102857474642404 2.6243792470012157 1.0934426090864073
Ni 4.197717391304894 1.9036277387778773 9.916044270136453 0.9074173818301018 -1.8578991989498455 1.0670654046444592
Ni 2.6778333258838627 1.806984880424896 6.495723399097736 0.19240079176534605 -1.4248467508325655 -0.5432545575956838
Ni 4.772833884859855 0.10419186877452917 2.861770800525389 1.240503025043741 0.1858730179491573 -1.933672180216102
Ni 2.1063208402422378 8.930990358531442 0.21025966987317912 -0.7857705208498661 -0.04236406678850769 -0.13540560532722487
Ni 7.881031960825633 5.447753674476413 3.4164664307806345 -0.07598818260085623 -0.3549819290660984 -0.9740763166102322
Ni 7.460148523869569 5.730797670316292 6.228803180199364 -0.11139947222061458 -0.3328688992171428 -0.7520582161990854
Ni 7.476957986419204 1.6998349528476522 5.57934986496119 -1.5495038593940345 1.0272351600213985 1.7998629728417195
Ni 9.227840476993176 0.7378466918879897 0.7195161531780094 -0.7131170590491976 -0.18399585553110245 -1.5067705821915662
Ni 8.569314302859329 3.8646516138371045 5.295902035414098 1.203685084884443 -0.13394136207687254 0.0892591886781495
Ni 6.926644460144737 9.106459338681224 3.954499531116559 -1.1582122972636246 0.03821764872030192 -0.4585125400615974
Ni 9.066362440383884 1.1197190534436803 9.702859809225915 0.44747093753545514 -1.02707369474287 -0.4327477723926676
Ni 7.83388414448246 2.5699256325402255 0.7382791728375899 -0.359654137730787 0.7721763271051991 -1.3373924765736387
Ni 4.83195809673042 8.388559444436655 4.909716877722117 -0.8856864179109134 1.5291376370328567 -0.5899488763284292
Ni 5.9285375711613 8.36980936224138 6.8392629780244345 0.3755327566342565 0.7564578879286779 1.053936323461669
Ni 5.260345262982968 3.671901877795177 8.873264316910333 0.03983410127780236 1.213822173318445 -0.6836915546992289
Ni 3.1036052761377593 1.3476032461176632 3.5563444466293372 -0.2583447027563228 -0.10769219857235647 1.1858192603476156
Ni 4.678242538703695 6.025319045203255 9.906955701462696 -0.6302192938127017 0.2391354768177236 0.43472803604749
Ni 1.4502527843262032 7.727011448283165 2.205690731249643 1.2914108676372016 -0.7102119695872607 -0.2257354013617338
Ni 6.970382330539139 2.1492454985946567 9.77569311273605 -0.511215526882268 -0.35315516027000465 0.2387858067877888
Ni 1.022604901748186 6.459565034576456 11.726785635732556 -0.5368622809160948 0.7753053596524841 -0.5115528556170286
Ni 0.7657038248488868 6.328619413725266 4.005367792551806 0.7029164643671121 3.194812164783904 0.1054836209568119
Ni 5.065257542320338 4.974242480939719 12.13736992699782 0.7555741997721439 -0.04755281007829875 -0.3861871510243091
Ni 4.357569003830221 3.1486184108707267 2.5435091786400696 -0.20184779611085885 -0.4795022549393871 0.8441116797929205
Ni 5.888034066842968 7.4194601986326045 12.029195167426758 -1.416871960157205 0.09047609180438611 0.44072976215687965
P 1.1372308354841183 4.4591373396647604 3.719850892820623 -1.229782039081811 -5.192497357516857 -0.8913798687512648
P 6.767134766318881 3.1884011136063912 2.4975506849082967 -0.5021644724235932 0.9186142789871857 1.3022483245723377
P 3.7026930428393667 3.68739911182252 10.91052589680091 0.998845553135112 0.13869224649829662 0.3666727351404653
P 0.2922027964627172 6.516720903663584 6.694881800493248 0.6528126057321854 0.1175076420008815 0.6464833210800479
P 7.388900059736707 3.838979988239038 12.111699225504347 -0.8560264289526354 1.4683271906137034 -0.43900198083249553
P 6.923983038916428 0.9731930291517633 7.89640721304668 1.6926086331377301 -1.2116344216385069 0.2526733634031584
P 0.9095046646955661 2.692609758328538 7.283349757210228 0.0988154649080169 0.20211467661900032 -1.2372284680575272
P 3.391824257699351 1.2022693167509264 1.3129105114811397 -0.3194595677897724 0.4302972539696461 -0.08322995176493407
