# total energy = -340871.8726269817 ev
CRYSTAL
PRIMVEC
9.24283038256389 0.00000000000000 0.00000000000000

0.00000000000000 9.24283038256389 0.00000000000000

0.00000000000000 0.00000000000000 13.52781654449209

PRIMCOORD
 96 1
Ni 7.357422332096572 8.908424716300615 3.8019254884404963 -0.15626342261284057 -0.5214737142751664 -0.9235153158332288
Ni 3.2600201955105286 1.9843247551338907 13.244218856710296 -2.2428493922432597 1.171231849451744 -0.5078846627368221
Ni 4.921742444084024 7.7847830774718405 8.779079624559023 -2.3529193470191734 -1.4621210618029916 1.251156648102845
Ni 0.9720777072877218 7.982579646259408 1.9050545452016623 -1.6296937387810642 -1.027264213487121 -1.7115622914220976
Ni 7.55521890088414 0.2442325483010598 6.112381662749881 -0.7781240600482019 0.69513039266379 0.08286382667476697
Ni 6.356229709309746 7.534034333797172 7.027281373129488 1.024420573390739 -0.9140310304918775 -0.9746059638614568
Ni 5.5431101978168185 4.584841279022957 1.3080573621661662 0.001441617542533001 -0.20883554028260162 -0.43779767611174925
Ni 6.39627889307407 1.8968043948605509 4.535971662286952 2.9246427014785117 0.12106219212135924 0.9258195384863734
Ni 7.874974615706845 5.726173695078807 11.124680736866436 0.04009378269709224 -0.9752181435241591 0.5631145297444045
Ni 4.82778907390993 0.8613550700691749 3.3447935866136036 -2.115347358033828 -1.0215391380778858 0.09524188862414565
Ni 6.650225656038481 5.359787901305948 8.592503851776506 -0.1850150408242362 1.443397003030927 0.4042260108038909
Ni 5.556669429892115 6.960867940168451 0.9019884007095442 -0.2440192872725862 1.25721648114368 -0.697907698298611
Ni 8.54468237199847 8.665467678583326 8.36109665482356 0.02859786624235075 -0.27921640399900943 0.10330975323394466
Ni 1.9932348435596485 6.055412553806935 8.388098659312158 1.1699684093582883 -1.1896208934818933 0.3471480348439764
Ni 5.5677608262727265 6.644661472187541 10.98372110454828 -0.9864237824319915 -0.26325088180868855 -1.035933202016029
Ni 8.926272621643083 1.9623822759609149 10.221023081001611 -0.4193572100183745 -0.3518217861705618 -0.1927142092407068
Ni 4.582761642201592 5.422722332935599 6.790639037084894 0.04200565500782443 0.43105572940222536 0.46537378595780504
Ni 4.755491655168979 2.8980155033080113 5.7864692986529045 -1.5224987915601005 0.45573472020614414 0.6832819779656362
Ni 2.412794640147221 4.261508588867504 6.1462825157872185 1.7665273348040673 -1.9858249509602572 2.2356528744948205
Ni 0.7967578532654631 1.3861010485153056 12.119530005206585 0.16699340743583496 1.2973089782891916 2.3801635274471074
Ni 9.13241546620706 4.339037449567977 7.980045262186439 0.22754340110475005 0.5295078974335526 -1.1606479032883108
Ni 4.394466702980082 5.689156159658516 12.813358775776944 0.1847928975111011 -2.257109244596384 -0.42620122952340145
Ni 1.8102175604492456 6.609372346036563 6.142480939677764 -0.0599162167396581 1.242854041774421 -0.10944749070056634
Ni 1.7723589274700926 8.455904986801993 12.916711180100574 -0.9223467494464245 -1.360490753153999 -0.9808228913054463
P 4.345988057966493 5.626415827465525 9.123795602653262 0.09236071042160868 0.05652775988339942 0.27106652119836544
P 7.512859009540522 1.314561541860363 11.946522707329683 0.462570512181055 0.1496664861216132 0.29389431772615837
P 6.640733269302741 5.029051704066438 12.873841084523448 0.08945922050409755 -0.13774942296905307 -0.20782072586484207
P 5.549728064323916 2.069238637257787 7.75844655676608 0.6426778312910287 0.8699654076312308 -1.2771710698887357
P 2.8004851578011696 2.023486627187766 4.459917957305101 1.8869719479460856 -0.4874122538150832 0.8829399655140278
P 7.1031243415801075 7.401695489315845 9.629492107815693 0.725288661414725 0.558071310893542 -0.40273734207350637
P 1.8780876634682695 5.173683512869609 4.461879285898405 0.23221432421785815 1.8254621614670625 -2.7891031416765837
P 6.868550550960497 2.2242039303555607 2.38462896332169 0.7509112470788358 -0.05180875714117529 0.9424270651360672
Ni 5.024189975319603 3.450468714195941 3.3263412001683936 0.5787288392428935 -0.9628855901007352 0.8614918229425808
Ni 9.194092872913576 6.494077280660109 9.422692098016164 -0.44864541745953057 1.5618682944966584 -1.9809352269681237
Ni 5.08661605128181 2.194876429759161 1.3083753155290772 -2.2245156269310784 1.1370451762677063 -0.8075750183194672
Ni 6.759642281333211 4.036889326499493 6.701369009032512 0.8454815635572535 -1.1099004975321143 -1.1939902261941824
Ni 3.474093388486643 4.368808606019601 10.659215499225578 -0.5626015946637278 1.9629819849238128 1.3310662772452948
Ni 8.852071179856793 0.9264273683511893 2.360820356707676 -0.29932911558848446 0.9062688700479554 -0.5589375155485793
Ni -0.029746200809767667 5.547509785047793 3.3788700534269687 1.9292614527429162 1.5962706832359284 -0.5300843387623129
Ni 7.810173132353124 5.4085161027380995 1.412993987606161 -0.2979186083942031 -0.05609221500787759 0.08629573517445138
Ni 7.220628443402367 6.571966611742953 4.956862426440197 1.8090304982736007 -0.37631257222307446 1.3740180982164723
Ni 8.90618795136386 8.771677041757997 11.12453192729833 -0.8023628779909086 0.31234712511470725 -0.7624313319032934
Ni 0.6754041126161002 2.3136652849955075 4.037390287902683 0.3000140574706511 0.5741782437577337 1.032200474446474
Ni 6.424719081960021 1.979185741477541 10.002426446868272 0.2296033689575723 -1.7329173600591061 0.3150627242736574
Ni 7.114419080227697 7.48118383004356 12.495508932565642 -0.3658736362779376 0.7106495713453116 0.9901495680230108
Ni 5.099519042404587 0.4168636629840519 6.156807326669387 -0.5248747695369155 0.7460467198976829 0.5396804670911802
Ni 2.9889741964593406 6.524883634107257 1.0261011262085842 0.29290932810506976 1.7719055683968454 0.8542834781195997
Ni 1.9979209585304567 5.6754860136194125 12.398704149238698 0.2582428870711359 -0.24295922143918802 1.0683941507582115
Ni 0.469110609917953 8.997627271691682 6.28859529846381 1.2302070424343716 -0.4479877292708736 -0.7205925414906365
Ni 2.0710594748302706 2.3471705448952704 10.10737601227071 -1.0848947195163963 0.8531496216254727 -0.7792237208702838
Ni 7.5838901605280205 4.239917337246581 3.9600379652612685 -1.6112301327592378 -2.0170710534587326 0.03082264180781143
Ni 6.149227281526271 0.295562606467497 1.4427013685285965 1.2747305787680432 -2.371839323852128 0.40380177878227874
Ni 1.119676464622706 5.218372597453155 1.3103810097079043 0.3790525968620569 -1.1839683231818061 -0.16103821829366458
Ni 3.981635686863414 0.9663379096607555 8.83641012816737 -0.2723857542304212 -0.9261221573284566 0.24903808064341626
Ni 2.697593970710366 8.920699194961825 5.367553727338439 0.6053914361357445 0.07284603742744875 -0.19972072246552702
Ni 5.292158111875171 0.8552048907761259 12.84127951759907 1.232654989754232 -0.7148381555053624 -1.5279348749740074
P 0.7060866121369979 6.984529585780422 11.376041355908102 0.27911638808603545 -0.6340821192022176 0.33389399804754755
P 7.5186265356584405 7.742108929897439 1.6298317111301428 0.43615371275042303 -0.6000186018596053 -0.17269328603408968
P 4.871664789425564 -0.09615131522351897 10.78955604379233 -1.3420101778513083 -0.17089068560771212 -0.2452881266826808
P 8.00532625166998 3.818148504213204 9.587177506340629 -1.1438136053397916 -0.009462945185112735 1.4687007719030383
P 8.583659387446001 2.4846391602026303 5.730558493781275 -1.7731204146405528 -0.25368997759313083 1.0797345154716953
P 0.412062012634279 3.436123841543684 2.2602278615167544 -0.9050699646438478 0.4296817318728342 -0.34643403949608725
P 1.1374319416620013 0.3787693378318109 9.04000380012987 -1.1052059202699225 1.0842817685227453 0.5134135629748513
P 3.412794937823131 4.41299857776602 1.0309573092572284 0.14715528966398528 -0.727369969423786 0.07215518200801123
Ni 3.9177122723898243 3.336634016009601 8.62686407348061 1.251978115562876 0.7948876526597859 -1.2229943267360162
Ni 0.13400625107054517 4.7440490312363135 5.6371356620673865 -1.4681896365945746 -1.4652845471326377 -0.5572053633488211
Ni 5.279865147553327 7.896991037522358 4.5690203263690465 -0.897750291053983 0.5279513515797102 0.012131236045895236
Ni 3.512210820714677 -0.03543886000211639 0.7792075670592093 0.5042360102406412 0.09628087141162128 2.8200695081511107
Ni 4.083972304135187 7.87119429810712 12.650821756083339 1.0555077817138465 1.0680416525147993 -1.8321794255862378
Ni 6.078131430726553 4.065495886331153 10.5687420546659 -1.0680362531981606 2.061911606812191 0.9050941330135639
Ni 2.3707674906950214 8.479159947880008 7.833539007394945 1.1158050359420073 -0.20920269381403325 -0.7959330632051648
Ni 8.972625415683721 4.286057546189924 12.924299543790976 1.0422830554934566 0.36825962001161094 -0.5327767979928114
Ni 2.501109883827838 1.7133526987252408 6.655320304109309 0.10222603325146265 0.5718323692333764 0.35541490283845883
Ni 8.013561613482583 1.9226473484273752 8.079583150438172 -0.1770821591304047 0.7111838465822268 -1.9858282933943667
Ni 0.9207023592527305 4.619326278936341 10.332681092648256 -0.277501992411064 -1.2292480209552121 0.1893550629604868
Ni 5.975868756097317 6.334388901270259 3.0451114506737413 0.8219680538163456 -0.6283233623415695 -0.18511454251657797
Ni 9.197475748809662 6.72888214203765 13.598702657883727 -0.0570725766432759 1.3591026145572207 -1.1088993099611097
Ni 2.3802321489398093 0.1982448460579504 10.741275195347532 1.3762773265642942 -1.165407015239851 0.43075413900140647
Ni 2.6562600335319546 2.7912885416355797 2.354786637076624 -0.17707264604870793 0.30578052764078306 -0.2856385054752693
Ni 5.139124570313687 3.244122527364986 12.633411036614877 0.824310071685961 1.7437190786603 1.0142276920181372
Ni 2.1883509915552346 7.211736840637243 3.627646377111952 0.4587807061213195 -0.8735125015525408 0.6084590193174746
Ni 2.8685493602568544 7.077364573486138 10.668806784245712 0.3957837935738087 -0.669943351875201 -1.01569656325418
Ni 8.202605221959784 9.339325465687363 0.13381584876601135 0.9716306832832168 -0.03848530055939178 -0.5295410646643331
Ni 3.815551268894078 5.3061517569753756 3.3729583391561024 -1.1619349975308506 1.057687820084301 -0.35380693492139065
Ni 6.303869075562943 0.18932828765097068 8.392440940995169 1.1634000121121513 0.6039765580660889 0.10180257256079887
Ni 4.215377622754478 2.2839495855257868 10.86542027075268 0.5442552309460561 -2.4357029552753082 0.17719425922823678
Ni 7.415282449882095 2.849176387912053 0.24214921434756834 -0.452787207542046 -1.0475898124183505 0.32719473165050106
Ni 2.0344024097923508 0.4123374489777309 3.098397291735293 1.1218962364414096 0.7551751645615123 -0.09061441715446329
P 1.8890773887153918 3.6065801182530444 8.216714402438953 -0.5693306858574453 -0.18442394420745656 0.014142352938653062
P 4.19410062736434 7.629494285312966 6.424157117876737 -1.034030071456045 -0.13591982595948204 1.0652386358483654
P 4.1291512587255434 7.860250787011583 2.6232871606584607 0.1642613532166526 0.03998579636431824 0.11166840961128512
P 1.3541578269391452 0.6175107206414364 0.8856147268026667 -0.11893614691729192 1.7107631925595699 -0.2310033346288925
P 5.680366228026881 4.967919624348635 4.875479305497462 -0.47780172730851256 -0.3478298914023493 -0.16898292706203802
P 0.2994750965407576 8.605084268121216 3.937203552962685 -0.06628561060111166 -0.2892452489899212 1.401592408290315
P 1.7583283110486192 3.5426289752885034 12.155676866010998 -0.053111535112998855 -1.460931669480581 -0.2537856226307306
P 8.913110831271425 6.381065194371998 6.8634327958138766 -0.7662661322683513 1.6139940686576204 0.9065290656878774
