# total energy = -340891.10260188574 ev
CRYSTAL
PRIMVEC
9.09724609069414 0.00000000000000 0.00000000000000
0.00000000000000 9.09724609069414 0.00000000000000
0.00000000000000 0.00000000000000 13.31473921745719
PRIMCOORD
 96 1
Ni 6.196461927650263 1.6887582119832587 11.267038651355769 1.2523861496345723 0.6720801957125457 0.34159419490528264
Ni 4.638231004986503 0.2861666172114493 6.086567192845444 0.1386297686914774 0.4702000037018548 -0.4734881875348233
Ni 2.8453366150801678 1.9096120594051618 4.602053076064996 0.04976267324542398 -1.0170013981085324 0.770892318186453
Ni 3.3828928965053957 4.352522888986491 4.598471490212955 -0.14410724686628082 0.5088678525856979 0.5734521642249866
Ni 5.024418205913603 4.668952405602055 2.6457448516140447 0.30524753795544846 -0.5660319605015155 -0.06643293481225333
Ni 7.546638828378078 6.12957897315647 2.5210397999000995 -1.4043509448720588 0.37366150775347257 0.3848995425611371
Ni 5.016476309929779 4.510223652880658 11.908903048658361 0.4305463938659747 -0.7063841112007383 -0.6598250324942765
Ni 5.59044886812849 7.836686330843479 12.55129872514246 -0.6964843355885232 -0.10633002811750719 -0.16793211720002044
Ni 1.6902319658771643 6.281948750743051 0.5296325799339202 1.2408195278428953 1.695068407532132 -0.9044318168392166
Ni 3.058676137092404 2.013648167619393 0.2883062895314902 -0.13745888831182776 -1.8699342757375086 -1.5988065622839045
Ni 0.8239730729087908 9.261087663795843 4.840959498962618 -0.14669197687432156 -0.6922505000128336 0.25775309191891094
Ni 8.413324382195984 2.13435043097952 1.2596010780779232 0.6462647773113387 1.2631143346853535 0.04887178600003841
Ni 6.897250098694934 0.6165140108781638 4.931646308016866 0.13710613295809934 0.2532433769740155 -0.8196172941959821
Ni 0.949752509405886 7.4078876284407364 2.68377225069994 -0.08232389501089693 1.1987238842244259 -0.1198792275568516
Ni 7.7109805820410795 3.8271205285628556 3.8323814660742483 0.06785861151518637 -0.7007413110926642 -0.9191156441036364
Ni 7.7405557296280385 3.914717912787657 12.755200763885945 -0.3048808986446491 -0.7899814736074201 -0.49586964055381694
Ni 7.830118119044714 8.841222457219118 7.120123534786264 0.9621466550521816 0.6911274421519839 -0.37889370268668937
Ni 6.743361080983153 0.6555157250383641 0.17544312327246483 0.30947777398671217 -0.4351805502038763 1.035733684410713
Ni 2.2819623487728142 6.524508627738157 9.232879832321562 -1.6924687651257562 1.157705018609903 0.2160407997817892
Ni -0.027389079310999046 4.959891438200807 1.342844520243322 0.10199154864315338 -2.108953538692342 0.41640558358921836
Ni 6.384447424339566 1.9555986392427744 6.907314382230908 -0.8370100357511328 0.19651121438929384 1.0045534021531668
Ni 3.510408997313272 4.437873253385399 0.5597653887165362 -0.21459404003293367 -0.19032565440387222 0.46248000934977773
Ni 6.336541325541372 5.54850146562973 4.634501134020446 -1.0825064217898777 1.5343068399386222 0.9428870354916212
Ni 5.571572082141736 2.939474919364958 9.135549304324602 -0.8336645163176675 -0.17135656950053715 -0.19624099144704266
P -0.010542798689180854 5.736805365938086 12.609896817468478 -0.02839834863703496 -0.2007514777228865 -0.8659794264002892
P 3.9522258591121826 6.2428123973382235 12.808872697362888 -0.70444010010049 0.4122807627875674 -0.016096648451546472
P 2.1781536717150503 8.50736261677193 1.2959200143164398 1.231563556462266 -0.013991686293401709 0.6238329306703836
P 6.492158820042303 7.624220144472077 5.840776883703882 -0.6513146810304202 0.3065405457352592 0.4928259686314868
P 4.739446966860544 0.8048524807223033 12.630947845311056 -0.8817683138034298 1.2069218466541858 0.12948512607773183
P 4.1146026075833095 5.9703134829058095 8.232809544134307 0.9825079923173532 1.5520849898576494 -0.4122455386742578
P 4.852380181915762 1.3022708019296223 3.9805346700199338 0.28384336124805953 -1.8581141431741288 -0.4931476136369636
P 9.395363018573915 5.639865109805624 3.64187421272204 0.1538879804021285 -1.3833254916603273 0.49726780645292423
Ni 1.2376075755229456 1.1198801116894057 2.5946165081910277 0.8014804753859551 -0.4199112827496317 -0.4611360937273736
Ni 2.1054666741082206 6.698038600122423 4.8455799903374 -0.47263560972654084 -0.5264783665786094 -0.17925345575011065
Ni 5.976681555286884 5.651254862121488 9.180965486821794 0.8342900657168083 -0.913670304718349 0.016032370872514322
Ni 8.495072237076457 2.4834299644174767 10.399117691495935 0.07076395808743943 1.077778420186589 0.6202714385713703
Ni 2.4788358550568446 5.291813565194898 7.109565270778442 -1.6524819403201736 -0.8692858650657029 -1.354890376248086
Ni 0.554850146562973 -0.22710456532624018 9.164308428922157 -0.33453471695534 0.8254943218020494 -0.7920877213171456
Ni 1.3584553948232116 1.1714069144985526 11.41029207846653 -0.08959497475101344 0.36412837145205673 0.12710685565354238
Ni 4.0548791858950946 6.735091684134015 1.739677318742326 -0.15649739300051757 1.2660559338121808 -0.7087240721878245
Ni 5.808928334276879 7.997061685137697 8.063153179206987 -1.2026299041470514 -0.9625629166539937 -0.1692086699195989
Ni 5.4443652877066535 3.182007504621289 4.765571528941587 0.023348702028269466 -0.38905701637293644 -0.1665365224040745
Ni 0.7172869368594073 7.530527605253962 6.833097227803369 0.10155266133352188 -0.8543300150868189 0.5675589386690031
Ni 5.008998373505146 4.584320723657583 6.782727594718326 0.22396031173918204 0.2142142880960117 0.07904496714930902
Ni 8.064908947734912 6.956118379234833 9.123446327902057 0.2632002310764112 1.81778304765525 1.8113167232046161
Ni 4.440638816248037 0.11365007806040087 10.439262019786224 0.03434248203561182 -0.02635020785875462 -0.460111252007285
Ni 8.274427626318502 7.244300946217205 4.66926626059798 0.5338798012490031 0.5597656678768295 0.420625792318153
Ni 7.340959187715648 6.015736033475385 7.237971991995043 -0.4953803596222242 0.031239417630255877 -2.393263040943543
Ni 2.1905805101044034 5.16781809868913 2.573526362189537 0.2277274920910981 -0.723125078104503 0.6615021630863833
Ni 2.263576814084028 5.353565672798798 11.574755735229397 0.6437890620773365 0.0722377144194885 -0.15291353230400118
Ni 0.9187308996637971 3.263309594435085 3.8688505068760333 0.8485337201200159 0.926818926285165 -0.25224913138154625
Ni 3.8639370841717215 2.531026756842875 2.4384349844220594 0.03549665024471307 0.3164122963230163 0.5172355078241029
Ni 1.071191649712966 3.44083325792691 8.244326657897792 0.38482806589325336 0.6024449519129109 -0.28396266043474316
Ni 3.6232421426596435 2.7587217334513037 7.481631726062824 -1.2496319839282026 2.906934228455155 -2.3804995706302874
Ni 4.0972177699829775 7.026121689195353 6.230938671521398 1.4581703046853598 -1.1284345517805596 -0.5270324393098665
Ni 0.7816854333999563 7.286111890022085 11.184474773485892 -0.16287604283335175 0.5806247707140257 0.6278356240718735
P 0.3139587045317077 5.612009341761555 8.085868093390276 0.7017273291550172 0.19757333710522101 -0.8174812216895856
P 8.63635247147371 1.771943431772602 8.41458253135356 0.43649129859549984 -1.7091048310205403 -2.452661437506518
P 1.6202650449016793 3.3299560205261534 10.451857157231363 0.6270925752582619 -0.048688466344638734 1.2633475337420823
P 4.1508733284166555 6.277518391815076 3.8519678372691804 -0.6279515808244476 0.11739631323399782 0.8576559941362584
P 6.760090916852859 3.948832586257696 10.588812560757242 0.19180866670730193 0.5462092693486336 0.13513718215718662
P 6.248771093637656 7.832628959012109 10.384418360991164 0.31831748376552926 -0.9792344637724039 -0.4628073107822094
P 2.5492940273302986 8.512384296706719 6.146855553526323 -1.443272561637921 0.894769354048788 -1.8878808329136003
P 6.850490252925333 3.9764791176378154 1.6151442049826699 0.907722057554714 -0.16317711901353832 0.14449214100952534
Ni 5.339565010806694 2.8752938470099916 0.38725430791324306 0.5826793392502094 -0.35545989714378134 -0.4460702005331866
Ni 1.48045856439833 1.2835213773904888 6.996310013205668 0.3294081943620521 -0.40534881155442454 0.3621799894764343
Ni 7.005616496128295 0.5110059682192789 9.250628559772242 -0.7070981065486274 1.4482327338566736 -0.8797052606268139
Ni 2.599156034074108 1.7686593258732195 9.256752825953583 -0.29661634464301173 -1.497723898608266 1.1985817022196068
Ni 6.396364816938433 1.8960662597259916 2.440098870762772 -0.1935935265218666 -0.2528111745326033 1.3400592247725245
Ni 4.361565551767615 6.392562168002306 10.659540921244579 -0.2935104520241784 2.1373680852792933 0.07701328143126092
Ni 8.21091065294042 7.452837122204859 0.4242100513898669 -0.2488149088890166 -1.1505925759348379 -0.6672776321175797
Ni 7.774206443538885 3.783126245655893 8.250851202914516 -0.6654837734419505 0.4325073742470874 0.2711904483707394
Ni 2.9083987261453172 8.448658086664686 12.507080649977535 0.2691376796067687 -0.1060844877656044 0.08447976501163515
Ni 0.2159595289347349 5.18211896980777 10.250192131342887 -0.5542395958522778 -1.5486677366459844 0.0789745189226898
Ni 8.587436578340805 2.362127282804277 6.113116596326767 0.5580476567444582 0.4164310375105151 -0.7693162319485847
Ni 3.98655886649243 2.6039411856061716 11.229144981789876 -1.357481276903714 -0.6235028010244745 0.07518702685579953
Ni 1.3584281030844358 3.6622602318631094 12.879200779014843 -1.3059561124412282 -0.5887844237066828 -0.026841031452244098
Ni 3.3096418696305276 8.574491196914707 8.124294861586929 -0.6666032317583745 -0.668315586463791 1.1172469105948566
Ni 5.818325789662092 7.796694836290335 3.693841322250107 -0.5110003255476683 0.36669818906176205 -0.4903039735405814
Ni 3.3921902821817635 8.521308695286482 3.707382573306148 -0.37733561417095013 0.3444812866450906 0.478616252790008
Ni 3.3530175397919 4.4926386758626355 9.548438742470172 0.6058213245843114 -2.6418586347329014 0.27228728097934396
Ni 7.002659891094225 5.981685040729156 11.568617823178668 0.9192195166713524 0.46008399831377544 -0.816467949933723
Ni 0.4070662908153899 9.296566924204683 0.28325276923479503 0.9882222690933111 0.34126792191411554 -0.34633376647279707
Ni 4.450509328438701 0.1784806937982371 1.614784863755452 0.1282535676634759 -0.020874786566480175 -0.6178795413004262
Ni 5.976918083689609 5.66904907580346 0.4121289083583437 0.4816972057081769 0.4170254765614044 1.229036162054722
Ni 8.041992984409303 8.864747936044058 11.131135799222017 0.40636156908965504 -0.16664065208210654 1.8333590477166362
Ni 9.04257180866242 4.941160208154191 5.7405033965422385 1.2509964683758972 -0.13076116457667802 0.47150432433557504
Ni 7.999499747135023 8.76315898707341 2.5727803879963256 -0.18092621546684326 0.9259972017148181 0.13258973314498454
P 8.572999248528284 1.630235626801189 3.800146283681252 -1.287652429036034 -0.5154776445927316 -0.24145101232477773
P 1.8535457307129353 3.0481597204173725 1.6754334753881746 -0.987188685622474 1.1961376115544882 0.5852036483339599
P 4.550979316119531 1.177119985149002 8.177100737220046 2.785426978376577 -1.4625005566295972 1.111507179897602
P 8.366082382374675 1.6867841095451257 12.393678926739996 0.3008622644035593 -0.43952777142897853 0.39348831267141265
P 6.308167014460559 7.7108441233472 1.4219341597670085 -0.38983914595459956 0.5810919401584315 0.5631651804766816
P 1.8970851513069635 3.363415692265568 5.925645094051079 -0.41842055713671805 -0.05898316340242745 0.9258737887630765
P 7.002441557184016 4.072418676681824 6.0645573152472005 0.32588269770729683 -1.0114151622700065 0.539901839073367
P 2.356423309400086 8.532480113692136 10.233243051838345 0.27712918245267754 0.2917525887928072 0.6027642829255425
