# total energy = -340854.82460655295 ev
CRYSTAL
PRIMVEC
9.47759306851422 0.00000000000000 0.00000000000000
0.00000000000000 9.47759306851422 0.00000000000000
0.00000000000000 0.00000000000000 13.87141546555562
PRIMCOORD
 96 1
Ni 9.549338284659518 8.182432447739979 8.290569887282947 0.9717816070387845 0.6112720632862375 0.18349114798054206
Ni 3.629387337932505 0.9708277517699146 8.288656361275152 -0.8612169720146393 0.023166925034766552 -1.1916217259620059
Ni 9.329600293125598 3.114024268463455 10.34082059810312 0.23332298390100464 -0.8563858691745833 1.972331801569829
Ni 9.922944997028164 6.056665224401232 8.037902946955176 -3.1519055952283654 -1.959758850000825 -0.896876630199778
Ni 2.094131018217323 6.807214761841564 8.885557058036184 3.694802255263998 1.7120371741759868 1.9546243569877373
Ni 2.207103925661115 2.974390892174077 11.503162069731818 0.994361035001197 -1.9921498647370208 0.563365983633578
Ni 0.7610270163983123 5.659639379960972 10.898521022844164 -1.8062099981056698 0.7923180921603967 -0.8886573276137792
Ni 8.701169540283692 1.2283623838143911 6.2667720860237095 -0.23056419020894484 -1.0798021354848373 -0.5191011002779319
Ni 2.7983351263455636 9.493799590228257 4.1691921717477625 -1.0691387422337202 0.4171031238768752 -1.5807247650815293
Ni 6.581515364369546 3.5414826637260304 9.951020470494669 0.4537138331213735 0.571587343102106 0.06768891870654149
Ni 3.2216518135080605 5.590064370435395 1.9222870946763952 0.28263185743846164 -0.5244664783549031 0.5298423979548358
Ni 2.1367801862959355 6.962116540303086 0.45678111995555803 -1.2642685028944551 0.5959783703519608 1.3917867350538031
Ni 8.167448373355025 8.062588285439077 5.404844720025723 0.5008550095835502 -0.38479412733152435 -0.7634258346060788
Ni 6.506481261329907 6.167458285476561 5.743751121486322 0.5659645975986898 1.154969879066927 0.5221411726558363
Ni 8.951444336161899 1.2061089956702615 0.09474465300699286 -0.7064406754702867 1.7619106619676626 2.3792420440741027
Ni 6.178149010274933 6.174869763129332 10.407292643711155 0.22730737383454402 -0.45233675026818876 -0.20741269179314603
Ni 1.3275738263581507 7.674461900737889 6.3725145378392405 0.25836809979509046 -0.4808983639559653 -0.62664108954314
Ni 5.364327062591751 8.770289625349765 13.12869814843581 -0.6537970811326417 -0.1929314674578355 -0.8215736465914043
Ni 5.907582687984214 2.2638747071702015 12.85737361871258 -1.8690660141999424 1.3041781946051991 -2.496233665670514
Ni 7.958761255149921 9.067971340945574 12.750549773546435 -0.7675681389092265 -0.47041469081582205 -0.27488255251034593
Ni 1.0031937315451285 1.720221022875672 3.401243669249937 -0.5160227184629241 -2.025074126268867 0.49489673511758636
Ni 7.45081914092655 3.74133666534241 6.540885871339278 -1.4820275709189312 1.3514499831079694 -0.03673155109307868
Ni 5.606299487083986 0.5466021634476976 9.292225405499373 -0.5682544220741309 -0.46238976362881656 0.10122715967330308
Ni 6.319118727164107 0.5059148571007012 6.823807183742725 0.4530296625701553 -0.8869269751862339 0.6809867541735563
P 3.4569520125942206 0.9759646071251609 1.5434449599862754 0.9635579335774115 0.1106836771005126 0.5107216179649848
P 8.376467207311853 6.024612005191928 4.393285117222153 0.29125276633825326 0.7975117205461942 3.0433744456944813
P 9.043955120520863 5.976930235280038 13.426725796172702 0.6911197288425001 0.1761385642702128 -0.6044732951968492
P 4.647252383296676 6.798372167659932 0.2142817412977286 0.38368855297217147 -0.37606317521642973 1.375446603132883
P 6.490454651725255 8.189464821676497 11.06253645464444 -0.09835240922866932 1.3903898547062765 0.22647330796902285
P 3.2937099523751034 8.54629619460089 6.865434667306034 -0.1830286065218267 0.12538755896959047 0.8708367544925906
P 2.2510136135962733 6.328492066548496 3.6642449768828005 0.681440039660891 -0.8108241213843843 -1.3125787599640686
P 0.7414671601581699 3.2108947455593437 2.087772501136447 -1.763488033757111 0.908815290618893 -0.6074897134256699
Ni 0.5116582784019543 5.287397440970841 1.5633915020169975 1.0843571018453713 0.6352635411048284 -0.8543924928936383
Ni 2.4827312825638295 3.3179915454011937 0.9427153156910744 -0.47281918649225674 -0.4402083424357709 -0.7733366659618874
Ni 3.2993965081189187 7.202980086425278 12.519354319948018 -0.10656065607107455 -0.49601902164748773 -1.7502260265408824
Ni 7.831960539655753 3.605029924163164 12.434599997623618 1.0514382396301634 -0.020324313379648868 -0.7674886918215428
Ni 4.2545483212217166 4.593286969287871 13.869653518577035 0.7833544552092058 0.9626058540767874 -1.2347794922964024
Ni 7.092082771827978 7.433342459607225 3.0045902942108973 -0.869734008346715 -0.024298467536048474 0.24917383489033215
Ni 3.02984428826918 5.1372534141483115 10.629665406073043 1.276681017626195 0.4307659660759484 -0.4691011142107211
Ni 6.914283128904695 1.4405183010232232 10.806983587276683 2.1664349207382623 0.04527841222182525 1.5952131885056913
Ni 7.634494891451775 2.6525034042954267 2.9535297624278916 0.4639349966287494 -0.1529209885031689 -1.5367339613228759
Ni 4.544458410634313 3.2260020286520796 6.359752958990829 -0.13477234261860016 0.7118199375043289 -0.5204067064632327
Ni 4.5490266104151775 5.710202338116394 8.688874259006273 -0.8381891436608984 -0.7491150744103615 -1.0144318376091435
Ni 4.836083944362961 2.9605441289378875 1.5187539349466306 0.32050112168040934 -0.88552392419112 0.8978258814869247
Ni 6.615862161062189 4.384732537383456 4.256749018294573 -0.7937016027714847 -1.0373107990898458 0.2719692355182929
Ni 4.636902851842932 8.312228082592558 1.8619603203088428 0.12744187039545793 0.3495605009402109 -0.2830100667134868
Ni 4.244340953661569 7.515285727875599 4.31878175938527 -0.0375807864672514 -0.9367706381812383 0.44072102040613137
Ni 2.382287752942243 2.6841775197884767 5.005097858662049 1.4769231598128305 -0.6924639015752203 0.7269858466114899
Ni 1.0801233531660395 7.817459822509024 3.7634393597593285 -3.1459897439645625 2.2568361934406553 -0.7605274300123612
Ni 1.885131139446308 4.764992519972366 12.678126747352497 -0.034803737942746514 2.1421703917639427 3.119159768255912
Ni -0.14856885088149274 3.9050052172423126 8.257251409420643 0.9132177905619627 0.9517028340110384 -1.8632517215110103
Ni 5.595931000444431 5.292477430768649 2.2698768667577984 -0.25721624557883443 0.5071200166566556 -0.6370591995526707
Ni 0.3616440946022419 5.322350803609489 5.778914886687493 -0.49428018457950995 0.08798649261331298 0.3676816360209539
Ni 7.987516272027811 5.34324889596801 2.633654367523262 -0.09797574261554094 -1.9201556337869061 -1.1736299173702753
Ni 0.5898313602121795 7.687768441178416 12.538246953647553 0.5311832282534464 -0.2594592759767403 2.170243752961391
Ni 7.023948356424167 5.747942113069514 8.189697022702703 0.19818860209171674 0.5598278885733325 -0.7082425045657158
P 4.480683687967428 1.2702154340888696 11.492509255305073 0.003537837949929391 -0.6010907518778615 -1.5182778115002173
P 5.940687920006123 8.7679581374948 4.6849315016551945 0.7547169939781712 1.3827251390721669 0.037176609050297266
P 7.115748321315156 8.499912854917172 1.110148367493383 0.1793799540256459 0.4058103245718753 -0.5758342913039179
P 5.1542277830435985 4.9971840685852404 11.889301003200544 -0.2573098337339052 -0.7238871530815081 -0.5511036213264573
P 4.463263872205541 5.989270061244117 6.253733761462432 -0.43428554919343265 -0.778666048594601 1.419251259022659
P 0.6528886290960537 3.014812825919696 12.92994828639302 -1.4086876245741997 -0.8313654358708455 0.3153650860054246
P 1.8622711853561715 7.960779982438975 10.904693779104075 1.1119918328435041 -0.006449869390401795 -1.7380945333846711
P 9.30474056693222 0.8916576271859405 10.689548629092577 -1.9173099368079949 -0.4187010644916144 -2.729553307137409
Ni 1.5845208476424326 0.5763096784126781 6.378104422135411 2.197275046047571 1.1505216134875862 1.4905361226105749
Ni 6.310920609300108 1.7973212411688975 4.859087010105982 1.1385976083564906 1.8763466070217556 2.12057055410598
Ni 8.033065583535771 9.701548426735632 8.665958387117989 -0.6170349339119438 -1.437364680793918 2.3529466007126834
Ni 1.2980511244548443 4.35650826570832 3.834434112702278 -0.8498115583911751 0.18501735481708137 -0.776822824738275
Ni 2.3848940909914917 0.8577231057847243 10.353222028421092 0.46652923971848687 -0.7879433601314688 0.350006587338694
Ni 6.220002060549412 0.964544107672999 0.678099026226967 0.32648767828114744 -2.1645629005265303 2.1862133889167703
Ni 8.928006248904474 3.114810908674683 5.006221901180744 0.8774133792688438 0.37443618113596805 -1.0348613091080887
Ni 2.3366815758768467 4.678784334896131 7.034943311954834 0.9971658514398439 0.49402924491096856 0.3012237615080361
Ni 0.8832652186673602 1.676823124957457 8.437260279250399 0.1994273595948243 -0.6318845973302666 1.376594600694397
Ni 7.905459272644562 2.1954085760146684 8.093512723333234 -1.327885822634784 1.6541549571472218 1.5001150245482615
Ni 6.818180336834222 6.7926666567303045 12.799321466642553 0.1079156274370722 -0.6645257804040555 0.5895966351953329
Ni 4.182556525505018 0.6759637245451646 5.760798467846989 0.8280080893628384 0.4908701304566966 0.03258641857645356
Ni 5.061063044774096 7.921229987240742 8.131284722102235 0.13971220312237875 0.06811675027257946 -0.7920661240505907
Ni 4.287103852855058 7.976967711123035 10.484445936524656 -0.05056228632858389 0.5382429633137052 -0.359526096793355
Ni 9.252462164460747 8.368136403147165 1.6847113255334192 -0.029892416684058197 -0.11315887811388255 -0.6800693845656094
Ni 3.442764056013402 5.041235920413994 4.550780912862145 2.801198125167905 -2.113214627961541 1.556348907340326
Ni 7.797765384449611 0.09299698487506036 3.637181710338694 0.612666629640919 1.7456888007921614 -0.6536178752423001
Ni 1.7535063291628028 9.576823304087956 0.5300050027500829 -0.3191124688629988 -1.2671571372961596 1.476007847087413
Ni 7.537226355453819 4.908597007689509 0.5614023725302669 -1.213922446341735 0.018773938173393474 -0.6124830528752032
Ni 5.567128595602008 1.0523824387291285 3.018364079981708 -2.09336931110084 -1.186185642548099 -1.681023242292976
Ni 3.275446630844551 1.5230207472730732 13.235702067867177 0.557107404318376 0.09077588243299205 0.2706626008917274
Ni 4.330388019658396 3.169591395673434 9.801666874920532 0.8628182550634881 -1.0983894115687214 0.11059754514460954
Ni 0.8948999117192057 0.6465395896080843 12.383025780305086 2.0646477747964314 0.06912050894674547 -0.7179574178606345
Ni 8.682318607992945 7.746501084419118 10.789020705441262 -1.2490123480663327 0.03414245020966378 -1.5277687817097882
P 8.17683119033232 4.92144862367053 9.855875863067029 1.1739980993429717 1.8985491112607238 0.44828906256137635
P 1.1428271078345065 2.895821646980366 6.714472724215685 -1.0786957897945357 0.03717918015345855 -0.8289108036827659
P 7.18592989678674 2.804268099504944 0.5615416931459905 1.032554258241467 0.7751909455618069 1.3790173512032766
P 2.3179728074796953 3.24627459987878 9.50119779925096 -2.0577682740677785 0.1301996356462532 -2.600881678099908
P 5.839173422386119 2.6889731817990943 7.947516091166526 -0.48764699553370855 -0.5502914098378071 0.716081026773528
P 9.8562227429674 9.503466734992742 4.8541216991823415 -1.1300247790858151 0.015435874939095994 -1.4803666382767409
P 7.5485994669414485 7.968087206569777 7.371464203280902 -0.8708143858950875 -0.7212713127252158 1.7565748515770456
P 4.4018111598007135 2.8856521897918435 4.107201132065853 1.19411723869035 -0.21526689773024213 -0.458953484253758
