# total energy = -340861.00693677494 ev
CRYSTAL
PRIMVEC
9.38140760088864 0.00000000000000 0.00000000000000

0.00000000000000 9.38140760088864 0.00000000000000

0.00000000000000 0.00000000000000 13.73063831111492

PRIMCOORD
 96 1
Ni 2.9266238962592634 4.527110785442566 6.257655879919497 -0.806932756749778 0.4407559874091248 0.6071068761649544
Ni 8.444589564696466 2.00975079312711 3.121358463276194 0.4507588642581075 1.7411896273702272 -2.0595659893981493
Ni 0.8326693416138029 7.241030028541532 9.363814586698963 0.7329289515688023 0.04353109051341535 0.809374019201419
Ni 1.8030971478302802 5.463159485587009 2.630625478112021 -1.3084804215249788 0.7274087930815214 -0.12209834669535745
Ni 8.638268723365117 8.125265214841123 5.555581360110627 0.8647098156592462 -0.282676594633468 -0.015329174157902631
Ni 6.559414482296458 9.294638901919354 10.379785373960383 -1.7911448762424313 -0.37195686635754005 -0.8747399462017387
Ni 5.607398626518494 9.099909025606193 5.055223050810148 0.281886751742321 0.5440533993478953 -0.9957419745091237
Ni 4.167352569088705 3.8279238628745866 0.6391628008438923 0.1714092771153435 -0.9653757035124405 -0.6233647327847135
Ni 6.463780413831056 7.958679561148741 0.6967843440969184 0.250121286405266 1.6813667416753235 0.1690513184061282
Ni 1.169983478568347 7.069913155007203 7.072322300463543 0.7121022446314381 -1.0147498830701944 -0.8350436560533812
Ni 4.8871879696527945 6.739556269884516 3.6821452329657447 1.178529925775054 -1.6110766379005093 0.6720038339486556
Ni 0.7588629940723217 3.373723016812937 11.53358498638103 0.017479387731686023 -0.041681181788870154 0.5646633622887631
Ni 6.025509197772767 0.5550622348084846 12.973420900281916 -0.7690562934189787 -1.5167536615462074 1.115716589993259
Ni 1.2748769962759852 9.284825949632243 11.70687928460545 1.8528690927251057 -1.4857842097478864 -0.9212751136488004
Ni 1.3043909043976407 4.701886407917594 8.55152353854411 0.44112288383024034 -0.2455740333542158 1.3797251759035787
Ni 6.653810204966546 3.7363613252816568 6.481904355058083 0.46779190848099433 0.10596364591702397 -0.34186184674437253
Ni 3.2786893584301113 0.6287006551549952 6.427202305831586 1.2191659541288615 1.9775526836491362 -2.219433327312165
Ni 3.5031301524232727 6.912155405810205 5.603556001990003 -0.8396896394658248 -0.29214082537016134 1.0095670533176742
Ni 1.6314924411038587 8.46209527116659 4.7673189110886405 -0.48525612670402885 0.9280093470488404 0.2774163746757932
Ni 1.9359003529701895 0.012980115472702645 9.307820717654172 -1.0695845715218868 1.562197395701303 0.7590953255515249
Ni 3.3029402969216815 8.372455922119414 7.886920236732544 1.6501671761440677 -3.2599590337948823 1.6752158915825797
Ni 2.5799808876466854 3.776007153546792 3.96253861781052 -1.3138272876591888 -0.08285842735812826 1.996436922148149
Ni 0.8749316444419166 6.678999284212143 12.381410930016873 -0.6304380946917272 -0.17228268085923235 0.005610404208241951
Ni 6.708044121956785 2.2727773163333573 11.815873415548936 -1.143223022943644 1.0891259839889242 -1.580336271393859
P 8.302555054536942 5.8884280707944985 5.272098677762844 1.1782985264905383 -0.783210987652806 -0.14406379522285512
P 8.195503813095044 0.2037182028774828 1.3703234365905825 -2.079946352826715 1.068011313497496 1.2149133495000948
P 0.4427846112259083 1.3548534955566949 12.891545604115056 -0.8292998115910686 2.175080255118086 -0.80200215221738
P 6.725221479163 6.48816269202819 12.939204092560328 -1.52355345807686 -3.2838713216361057 1.4427552556818701
P 6.861101785976114 4.715423778998189 9.021990807139817 0.469952663577739 -0.1212164583110364 -0.14789268205064207
P 8.534669839898035 4.483881259497051 13.24245902943996 0.4555537145435896 0.2655594753372072 -2.593026186611231
P 1.2707679397733516 2.8744820331505028 6.591997048824532 1.6758344990031848 -1.0774472620994153 -0.2734553331455161
P 2.941005594018481 5.65646338795405 0.9921166823088025 -0.3215326482687172 0.4323538793883586 -1.3242541394194678
Ni 2.0094693509009023 0.5416383787591277 0.2782760011629389 -1.258390189736807 -0.2422177152874732 1.6822375743160514
Ni 2.5633007450401046 9.271232290106408 2.500472520602235 1.9824089833001728 -1.1381096129764785 0.042012339876043775
Ni 3.2390716743875965 3.5318278780889254 10.667607895436289 -1.0128750346449846 0.6906741566646493 -1.9632311248201417
Ni 2.778200647564822 7.27570371081033 11.11256242622626 0.19656983554137114 1.2374470118262368 -1.1645099573468782
Ni 0.9398669330133288 2.7109547183162443 0.7789757936978833 0.7769192411068233 0.7608735004978703 -1.029983155080181
Ni 8.506159742383188 6.214394457188345 7.844588511488632 -0.8226522243675639 -0.20281633067171523 1.3131251193858415
Ni 1.5650720757188235 7.551967400055883 0.8142986693684674 0.9218572114045156 -0.9106124917286318 0.16386617466076295
Ni 9.018337687043639 8.74044163288608 13.417483259214807 1.0516264443815695 0.28913212045082465 0.9100224235531167
Ni 8.703872906294151 2.630340283322797 7.49462167018454 0.8570129612356209 0.32874613529802094 -1.5215965914608054
Ni 8.666694388212102 3.4383890589879433 4.944883626025388 0.3461427335079136 -0.5519451433911462 0.22471235941385817
Ni 4.61812920139816 1.1510048911144026 8.63296072297884 -0.5393490518936905 -0.0639443640624447 0.24781140732516677
Ni 6.525735229226927 4.720067575730616 11.512947766073966 0.7364950716535058 0.2999047855862964 -0.22635478011328758
Ni 2.808652696440504 2.2602249930444906 12.608241168510538 -1.5798022532672598 0.10012981284406626 1.5232274421960088
Ni 6.456237762168688 9.271560639370316 7.739726890566631 0.2507013272784521 0.07775761579645317 -0.6622794075720401
Ni 7.940320146592453 2.2268271822011676 13.738327397091672 -0.02540558455729818 -1.277897149421483 0.1629277220068936
Ni 8.214557451809311 3.19251174876529 10.31418119103135 -1.006462189140105 0.07114730956878715 -0.43497409062002507
Ni 8.335483795003253 4.0056264845021765 1.4463991466160524 0.8658824958111088 1.0028647015968342 2.80297964254836
Ni 8.007809992437078 7.518128663058168 11.943691340721951 0.8757928129462851 0.979518570671726 -3.855673608962496
Ni 0.38181015291799353 8.744719554724439 2.4702793985746645 -0.7716507936190323 0.5596754221558684 0.4671959267682083
Ni 5.582068826159794 7.1575448828407655 8.829102501126808 0.27501033633746186 0.8085448384319043 0.7008454407706961
Ni 7.3280801091075976 4.8081589925336505 3.6171442745415505 -1.343523529172041 -0.27456836370403676 -0.272219403855886
Ni 4.37164209968539 2.7326351511417832 6.383236339394161 0.9404213475599481 -0.31895177491541843 -0.5019035054527228
Ni 2.209612299364792 4.704560109066568 12.910149873408146 0.3464893182140549 -0.019818577387823933 -0.18540044918811296
Ni 6.8807464533654175 6.926283805565836 6.449212026061787 -1.1088535443248386 0.41796804298033174 -0.02026234979346188
P 8.243076930731698 8.014536461643443 9.662881663252625 -1.090901330721792 -0.05047358326951953 0.08818498177736425
P 7.296689919477889 1.279783472419541 6.111836909958232 0.3425604154732939 0.25350074440046017 0.30483616144964276
P 1.5632427012484729 9.083303934259934 6.943555914988206 -2.9602280547822892 0.5142576561427015 -0.053054456622818304
P 2.9381630275337827 7.3675476906294675 3.514274326440346 -1.6301046010662377 -0.5417419776058993 -1.1502547329794448
P 0.10058369908364315 1.8435028701061764 9.298717937917859 1.3623131510747182 -1.4143641061336867 0.8365444089686238
P 4.668347875961167 3.236754466725152 12.198642348317543 1.9815862302885616 1.4704563211415642 0.6524652496950957
P 4.051942493528436 0.6432146307605302 0.8942892407604874 0.8959276360229473 2.120758244636754 -0.8300150924905382
P 0.8238620762150075 3.296345167420879 2.7718728881789176 -1.1099781448475852 2.0196053898448123 0.7704971396305633
Ni 8.44685048391367 6.886684884338401 1.1791847630838332 0.7075819881635813 -1.003586153143891 -1.4885514880803783
Ni 8.836844976769784 9.117968235121191 7.817388058466404 0.9293758883790639 0.40633688649930666 0.5090295749745426
Ni 4.241634553992477 8.086172889620864 1.4577403301914718 0.44630494225181194 -2.350094733086185 0.5480175262019658
Ni 0.4445164190578401 4.735293600168458 6.515860359650051 -1.2549994188877032 1.5567237741812414 -0.8427518233309164
Ni 4.1985738933826875 5.492016695180846 11.537346930804672 0.4343529120962584 -0.771708129219529 0.5719321280360344
Ni 7.766388850796047 0.1959776035160149 3.9292552601391884 -0.6841432975246668 -2.5546128769403555 0.7063519724112223
Ni 4.830383546996525 6.020518288961349 0.2869650608267269 1.2789389604224362 0.7412930072627815 -0.8323843640536633
Ni 5.139482162632985 5.496632347690653 7.207321693108626 -0.9287994470503036 -0.8188768164855317 0.3520503572416001
Ni 5.172936261921549 7.562840451395044 11.88734097819063 0.6657974480276275 0.9866796071965395 -0.8135353496679602
Ni 3.416258318600472 5.9970178630729984 9.145167750002665 -0.32846614216375686 -0.7138444241335256 -0.36069723428332073
Ni 6.216176924620995 2.2460590676586993 4.439252965687284 -0.44110411477716294 0.31104203315003853 -0.3100421311306144
Ni 8.485736418168043 0.5503283765636697 11.313029971391042 0.04908544467274127 1.325970607889942 -0.5290376426653535
Ni 4.511865998189644 4.39408242652169 3.0234175066966418 2.6323725496193378 2.8360162612883544 -0.3642756956631984
Ni 0.15324716845164227 1.057716174534065 5.575201635840324 0.3580320287463318 0.4120524488268451 0.2008376096787896
Ni 2.4428059465930154 2.393975720345966 8.680221439744402 -1.5755429637702736 -0.3807796068554926 -0.8909893181810654
Ni 1.3323568802751535 5.973245376365982 4.797553311309389 -0.028038394194454936 0.6848146125600786 0.3822003984624192
Ni 3.7967119199881445 2.4839621814721324 2.589516150270605 0.15803645535286331 -4.019252848510458 -1.4874055474013932
Ni 5.876691929961634 0.7259295629022418 2.468206107508267 -0.5525781489894548 1.6744838985125612 -1.3491208207541603
Ni 4.319340752648444 1.3124776776973441 11.273677781181917 0.969801343383962 -1.7491343361386003 -1.298513540120254
Ni 6.861767865911473 2.2668013597302124 8.570155952059821 -2.3874564615640947 -0.04536145885393478 0.7815963348675184
Ni 8.811064868849153 5.458919089378812 10.24620069757237 -0.37666121381174483 0.5130065573444197 0.4638113265666915
Ni 3.31846652640081 8.639572739013214 12.814612433440407 1.5817210675565276 -0.0035416946046713193 0.4887847086825775
Ni 1.6636331433367866 1.5438325690476764 3.371420819402557 -1.1517220615535906 0.3306284399223983 2.1322922134182822
Ni 8.840925889049798 6.838820943067998 3.3435617915710036 -0.12963553561266708 -0.4175240134643777 1.504212591656403
P 1.7026128916665637 5.478929631662184 10.606656890647225 0.11466554456639606 -0.9549383102292005 0.45469830852182985
P 4.973590733098582 4.640588291049541 5.108607950417992 -0.06665790633886585 0.04109265627525181 0.5437201843781926
P 6.387462663491048 3.328157520389898 1.9743556806184661 -1.2143163393460443 -0.2626865246647863 0.6451409481195406
P 4.332962556396901 3.339349539585427 8.449985750313623 0.7502322187339402 0.9022049843912269 0.6680237662549849
P 3.9289522406756383 1.1583130075882644 4.313795402651397 -0.07920180444214747 0.3951348471359001 0.5164898879073299
P 4.995186733256259 7.962788617651374 6.6812461313180345 0.21140150123756496 -0.814124903622843 1.331660716296184
P 4.114478956191804 8.802405829689492 9.990481352699229 0.547639831147573 -0.7467056936379204 0.5912115450909365
P 6.148743367221611 8.121390693526996 2.8817179127863044 1.4597255649876213 -0.6797531388767712 0.3282974777963766
