# total energy = -340887.4369609912 ev
CRYSTAL
PRIMVEC
9.12747160376780 0.00000000000000 0.00000000000000
0.00000000000000 9.12747160376780 0.00000000000000
0.00000000000000 0.00000000000000 13.35897731108450
PRIMCOORD
 96 1
Ni 5.299373618623276 2.739638043924919 9.49490639459661 -0.13939055811690185 1.9486714818384119 1.719918890916909
Ni 4.693373383242297 0.2911590485211535 6.309832210009392 0.45518861789468706 1.414560795525525 -0.6240481320049833
Ni 2.9308129408275234 1.7188763623681815 5.146599821087998 0.09155826912497135 1.140327960784036 -0.08571826540442656
Ni 3.9938713267168784 3.088827732671777 2.595542646579423 -1.5067811237145274 -1.502686899040496 0.43001263284969166
Ni 5.330489169997875 2.9391919599421854 0.44955993242265113 0.4322165824795459 1.432045839684166 1.430646131123162
Ni 5.362946459727437 4.757977628660136 2.917440281889734 0.9540430521084408 1.5916928340572587 0.731294758399489
Ni 5.133673495521348 4.638289090914427 12.02042125201317 0.1009224839486907 -0.6253930760686519 -0.62654081651985
Ni 5.6367979962167585 7.995044630875728 12.721140000529859 -0.8614463144166261 0.7099124360689708 -0.24148109423176475
Ni 2.2860483327014802 5.372393393042987 11.563597677530117 0.680024647370603 0.22090095608756796 -0.17294139748915377
Ni 0.857348902888507 7.335374861296261 11.84978681765483 -1.0188603056941419 0.6705514177728451 -1.3248195250046344
Ni 8.125275398553281 9.009800435986444 7.328762007975376 -0.5146741748548297 0.5730374452850711 -0.15205709784097685
Ni 8.851740006783178 2.3907860716347527 1.5459545835761443 -0.04404968202104672 0.8077197714274477 1.0011608315318499
Ni 1.5507574592386009 1.3228444883310797 2.8877029787573067 0.9230841418330812 -0.29679297943019206 -1.386372248906451
Ni 2.0200829318494873 6.913512242058186 0.4246109009977966 -0.13048554231778817 -1.0825925537457806 0.6198459209981777
Ni 7.7765147009811395 4.338141308162208 3.822978584906529 -0.8178730578113655 -0.5926369646835535 -0.31199642664350785
Ni 7.664903975780612 3.8050969548983216 12.975935201389996 0.10683524988869988 -0.01923185164641849 -0.9675644836336433
Ni 6.678187764047064 0.70917535114167 9.490324403751773 -0.018357419461265158 -0.7250644612190609 -0.14477547657789902
Ni 7.033474603957968 0.8844894402931331 0.6025966011458408 -0.9556091110439799 0.14168089681297533 -1.251912038211631
Ni 1.9129355403603647 6.776162046374711 9.360581955815652 -0.5512015803569023 0.018163558282904203 0.6587814217211106
Ni 0.07135583631012131 4.876105368727623 1.3106547497388894 0.3112065837523608 0.3501179161055777 1.3294626802036007
Ni 6.340206610673633 2.2167708217207798 7.4339634224762134 0.7331150994376794 -0.5012270482109883 -0.5432620137948514
Ni 3.6196358553440597 4.647243140752645 0.817876238331572 -0.2549395337295158 0.6658064468886921 -1.1569077195195883
Ni 5.989912497838676 6.372627390515984 4.989163710956021 -0.04255407131212671 -1.6661581522556852 -0.3413201153082896
Ni 6.567261599231721 2.0912315745496928 11.6023520100562 -1.3050603400998362 -0.3095649343838798 0.557351402008382
P 9.106387342600115 5.525342438036874 12.638647735873551 1.2262801965761398 1.0499274594125918 0.1875907719712124
P 4.001839609600429 6.363582065959742 12.690641466249104 -0.5571742530005694 0.40372464568744015 0.9282232628318594
P 2.3492925848207515 8.891928265129426 1.44973003759303 0.5550937163224569 0.2781085156468114 0.3552513806774011
P 6.574362772294038 8.109886481094328 6.110035503242181 -0.07495588468159993 0.8051550960240649 -0.18710277659120034
P 4.7742427834121255 1.4302565765024737 12.601884104947587 -1.1909226430124522 -2.4203575831674895 -0.8776602051723272
P 4.050899770538672 6.376050192441907 8.589822639675578 -0.40933813521947565 1.0118105979362124 0.5325520835765151
P 4.758023266019149 1.4752185026014104 3.8602907768878203 -1.440373642823571 -1.415768185570065 1.731024256801451
P 0.16375140787210196 5.810037411027522 3.4821642642856117 2.46726144680788 0.1667920900583063 1.159878372112138
Ni 0.7911893362755282 0.3825451217017816 4.8610651206915225 -0.8402925631571464 -1.3365679237898143 0.6067836884975808
Ni 1.8197896906162216 6.923570715984502 5.022187816684515 0.5718855910688151 -0.844286514807888 -0.18681172771334278
Ni 8.450395944157043 7.2380577569383915 9.74140654908267 -0.3411619924638705 1.0555134381408016 -1.0288233304441248
Ni 8.64017433787387 2.5455879934045385 10.82030474953802 0.14525884397222077 1.6423062853387524 -2.4877438830319476
Ni 3.591349820228224 4.702135756172662 5.007478895874844 0.6318655711668731 0.1437562912847653 0.3948651384142812
Ni 1.1448040233522205 1.4532030406138676 7.057614941381124 0.0029539404220013644 -0.984927400392123 -0.5712453863816549
Ni 1.3981004933423937 1.5533496612305007 11.645168067534376 0.8941340344576343 -2.162285160235947 -0.9763124050296024
Ni 3.9902385929394977 7.486589686647679 1.7075975454618773 0.7764284175133338 -0.5558167105314106 0.4483415130658665
Ni 5.485418876372897 8.034466181590568 8.005607853992718 1.9838158909500285 0.5453379224872736 2.654559370129022
Ni 7.032123738131204 0.9239739705634112 5.130715281910169 0.015270553005825313 0.0031336605329752485 0.5922929510805734
Ni 0.9744762720464434 7.631652596004235 7.308269008284484 -1.021863097076208 0.11881324818618248 -0.3553297993238203
Ni 5.3822328076460435 4.877666166405844 7.7005020285574 0.5193163016125315 -0.3136912978474275 -0.7235253988667153
Ni 0.4110200954839279 0.3696041921802484 9.237144765400672 -0.34247454062770694 -0.4404106882545641 -0.11617298234985798
Ni 4.13450741224924 0.5884818787505107 10.46210989711085 0.9931647007002509 0.38711429082426874 0.32238471185636736
Ni 8.317892436000674 7.222029916453265 4.995562981436729 0.669121370194538 1.3432119114688932 -0.14914686617271733
Ni 7.302935826510304 6.323275150480062 7.172100820199428 0.7336095225755946 -0.05467142340095101 0.5126805414635687
Ni 2.4663889205745604 5.244627042752099 2.9249083793185098 -0.6401802616801555 1.2097958257678714 -0.13494409230977406
Ni 3.961176722720453 4.653851430337629 9.704188370060944 -1.3023282858806537 -0.6809857257322918 1.0511783011005575
Ni 0.9344249257772322 3.402347261614606 3.9093847094717327 0.12489365005230749 0.6161005950231325 0.26188742580225866
Ni 0.6051294745710245 0.09922839695330503 0.24126737490170608 -0.2396011036002325 -0.6692141870186603 0.19699303912171878
Ni 2.456704672992146 5.494400308626521 7.236224047853277 -1.1581603609797666 -0.9615840976804924 0.07422157761873668
Ni 5.356210385537219 3.0081043720507874 5.469739705310625 -0.9620366118368788 -0.8945667511196788 -1.118983690780305
Ni 4.1656777284546544 6.915456393552112 6.588006517144362 -0.5865925582616865 -0.34458027411680014 -3.15654952175828
Ni 1.195096392983796 7.678038407704357 2.8522756097032236 -0.2957761081299035 0.38487383152952426 -0.23325022168154025
P 0.18880905621140584 5.725015011187572 8.250183937422818 0.17960903931731648 0.5577563507562846 -0.7304272681928711
P 8.255633950836069 1.9541004381894764 8.530094289694615 0.5582260913038516 0.3170936386607571 -1.3709294319888197
P 1.7499736587991759 3.5983323361571093 10.192271709973072 0.17091279709489918 -0.07130954617826428 0.5820537898510686
P 4.144091257641827 6.559594522917652 3.860651312024018 -0.7245021609576877 -0.05420785350097116 -0.36685862589902624
P 6.7773760001244385 4.116462400495769 10.537508290682283 0.37901248765274076 0.38253361343212183 0.6822265401179283
P 6.56699690254945 7.970163142742211 10.7025713162524 0.2948188864229568 2.1290495381112686 0.8541091573252646
P 2.4395906633625266 8.711843246466815 6.054208234709591 -0.4735992591913908 0.9556384216200188 0.5176054895690119
P 6.986340339570044 4.0663251978848365 1.5599141389508326 -0.5295498064150815 0.1716378481863818 1.9995986077055823
Ni 2.726640524078211 1.7622683633170946 0.6101778792249672 0.2806834754628392 0.261940133417065 -0.6369306443946062
Ni 0.7738873007267779 3.5743453402602343 7.905802600821499 0.5885910767489541 0.7403154738408605 0.8623580275976181
Ni 8.258472594566635 0.07061012186386001 11.318273141412217 0.25501743815530276 -0.012319183686985235 1.190292465627621
Ni 2.432808951813296 1.821350488294443 9.087110122153312 0.5040874004779189 0.27755007204018 0.3871592851295913
Ni 6.472071195803827 2.226628491267441 3.122968128201713 1.9626927358181683 0.9577536681908086 -1.7785320725744274
Ni 3.8122711477350584 7.279414331675356 10.689640426949849 0.9433626895764593 -0.23804378641544166 -0.22797560354616225
Ni 7.142730441433461 6.059190008819376 11.993035185617059 0.10787577533807229 0.2143436145850244 -1.0610639356453855
Ni 7.606378626583214 4.13224379924223 8.475883496418241 -0.16184708734820516 0.09914662299519053 0.0922799777823443
Ni 2.8746881167141733 8.747175689814153 12.355705237468975 0.6628892732418971 0.3211037882614147 1.7476374398780996
Ni 9.090304737284175 5.139432930228704 10.402115024953256 0.15469093591939811 -1.7263942142286075 0.46988992866060364
Ni 8.285197832004249 2.9850940156367756 5.9137117994958075 0.3080104454125663 -0.8707722198032423 0.06911253852694549
Ni 3.317215332113026 2.9453164935216387 11.714928421773427 1.048828055700826 0.3209731762208214 -0.30723242959596125
Ni 1.1448131508240231 3.570201468061916 12.544560843786574 -1.2607059823541773 1.2929275613920441 1.9864268462103143
Ni 3.1263233868362983 8.582917707257014 8.025513044499533 -0.5281200159470903 0.7959559460233002 2.164680914161633
Ni 6.003786254978421 8.33869394423849 3.7679663996058994 -0.7321221393967907 0.8931341324382103 -0.8153513198307766
Ni 3.553142223263111 8.692283074394135 4.28732319615481 0.13642221951719732 -0.8125562735841425 -2.360565807820838
Ni 3.7359928658818684 3.2932739735751637 7.325929753475071 -0.7675138886325233 -1.176866422029702 0.11604442719179368
Ni 6.054516743256515 6.26766146478765 9.846087697690765 -0.8948138341334784 -2.6774388458303564 -2.229193234912406
Ni 8.214752004632834 0.013631879136979696 2.3690809436884934 0.3332813041642131 -0.686418980932721 1.200749913515519
Ni 4.798923467165989 0.8091832341869054 1.767673652118514 -0.2748118471734106 -0.9983079354640871 -0.3418433348016113
Ni 5.880893974630048 5.923528395419357 0.7286150405865573 -0.12897553343116497 -0.21305806300438146 0.33553461897476405
Ni 7.985469912954943 7.36771349389239 0.48877155128603567 1.3193500172496309 0.20392396191359718 -0.6456320288233461
Ni 0.14448787863300208 5.256164167110413 5.914780626443876 0.609189469725596 -0.6769596352920342 0.03224471896631866
Ni 7.506752271859321 6.581719514566824 2.741342142910439 -1.1259328684046286 -0.06053893792532155 -0.696935821303645
P 8.584880113694544 1.6740513483462818 3.762676116949191 -0.14356422987861728 0.8364032554050693 0.3315270404772678
P 1.9447904169509636 3.4759877041168847 1.7910646241066879 -0.6069978613909159 -0.7840756496459463 -0.2721836655219441
P 4.584427879808089 1.2352116315556245 8.362359653127918 -0.787893737840456 -1.573624149481006 -1.3447437747323874
P 8.700552563847168 1.821350488294443 12.866832705440785 -0.415819114958129 -0.4804373651591468 -1.2479101161410895
P 6.239557979107864 8.078296301186 1.5656188088273724 0.10307346885342249 0.3155599756250501 0.12277120439266598
P 1.9578974664593014 3.580953629845218 5.916250149404072 -0.8250970863636307 -0.0524276216720968 1.0787531253950324
P 6.729365498443478 4.5030473412173215 5.838568062387663 1.0565632195615546 0.8551283426183983 1.0560852514838717
P 2.030953750766222 8.962054630987756 10.408259638970675 0.8906453045780854 -1.1837163550720002 -0.29869662421080817
