# total energy = -340868.40162979614 ev
CRYSTAL
PRIMVEC
9.28775268628942 0.00000000000000 0.00000000000000

0.00000000000000 9.28775268628942 0.00000000000000

0.00000000000000 0.00000000000000 13.59356487681195

PRIMCOORD
 96 1
Ni 7.144640915155317 7.462170604448229 1.4470625201769747 1.9859208531081736 -2.4734398077044495 0.7073058516840594
Ni 2.5647571814701644 7.616180119712505 6.313680541529074 -0.9450884140183143 -1.0154569364395478 0.501258415669556
Ni 1.0380828314782824 9.067725838117562 4.5038467598843095 -0.2533061118911508 -0.5745461686201138 0.5852684401336242
Ni 5.163182466476272 8.639996963044247 11.205407073529193 -1.0621440560834416 -1.8022880373434447 0.04715531752956395
Ni 9.089254848875168 8.654922381632458 8.187716842484889 0.20696403429150162 -0.0870153869492953 1.1729935693378573
Ni 0.8712831519714279 8.878051352486935 13.092193601390976 2.335435074191481 0.5802365341366716 1.8357614865105418
Ni 5.978219916874371 4.936412696563561 0.31370685028176915 0.4668092328527509 0.5434581889660576 -1.6329983776742651
Ni 7.071741344216389 4.668748951514641 9.423997530246194 -1.3252501847841498 -0.5737624963765537 0.7219986778095437
Ni 5.731286435850893 0.5572112930085655 5.3467028871681626 1.158048775102567 1.5153945764151513 -0.04362005068279584
Ni 8.395571175249653 3.533692694100145 7.458585531906195 0.30304230277401356 -0.054324067363861285 2.4564900672239887
Ni 0.35371384503516856 5.412317144889547 2.0888824539528166 0.1619458177095985 2.8601144398881386 -0.6932450027156191
Ni 2.944969913732477 0.7706503514715828 2.7823580819178586 -1.2595777822870047 -0.2714272469718938 -0.8612449970390975
Ni 6.949690985991335 1.4814615698503735 7.1388778646052335 -0.13939030100658573 -0.4949766964259024 0.9104960207554255
Ni 4.140786649307564 7.655448738126289 8.389676238611237 -0.692620995978375 -0.39633683786380125 0.7323859345811388
Ni 4.365234481045381 8.220413447088456 1.606854590272003 -0.22733565596931812 0.011783622898489384 0.8627457499543398
Ni 2.138941583452961 7.90921800513665 1.8664370616970258 -2.2045227287489193 -0.8559030160008937 -0.4394619511880496
Ni 3.5381601031486385 6.159470410806487 4.171470597901134 0.6602886023942565 1.3498386727567915 0.07796793203504636
Ni 4.842736422835694 1.6954978308119728 1.5411567427763222 1.1403325887697264 -1.4046797889663871 -0.3489177251498894
Ni 3.9067445690310896 0.5910985875082181 7.385464912453017 1.8406365552146557 0.9864410088231721 0.5704884536109723
Ni 1.5534416532720439 4.81645208269591 7.585290911784274 -0.5017618376685359 -0.7374582068977235 1.5312937641439113
Ni 8.704026730155086 1.3065638987647634 12.145754883349895 -0.6710545826615089 -0.9290974379066966 -0.5091033656352716
Ni 2.157507801099402 2.495256928019279 6.853956546265242 0.3723600153332297 -0.22869782642416742 0.1887727080944555
Ni 2.7799729870246095 0.43274147520527306 9.316200157313899 -0.4398399033527586 -0.030097076495696554 0.8719855233850531
Ni 6.97529732018405 7.29006854692519 9.773378638647012 3.594355682510461 2.0748802511577167 1.1781206061517773
P 4.297322433306123 1.80710875500271 10.349514656556222 0.34473762563027077 -0.5549337937058249 0.6407736722897803
P 1.4850559301451072 2.5886731446715583 2.2954225697105928 -1.3566610949952636 0.1987691571855351 0.313296376401854
P 3.3473710871940634 5.467672150978987 8.994644227225724 0.4787296384394207 0.389146233652633 0.8270220713004853
P 4.576094330583728 5.375964880823429 1.7502398452232408 -3.545319088797785 2.1852093731322886 0.7042025301683872
P 8.053261761754287 4.198983707723071 1.4027469369462444 -1.4152179694935496 -1.179563766356207 -1.5779235481873084
P 8.529528432435558 5.706971099283417 11.086939001520362 0.5117189488812477 -0.7672099842388593 -1.3215161716630144
P 6.480250813544249 4.468309960505214 7.074933544819231 -2.554691552697091 -1.8704425828324949 1.4675764284906079
P 3.0706703587684627 9.409050749826775 0.18715193199742308 1.3939230646705154 -0.6333915208930961 0.5923716268373088
Ni 3.308056030016782 3.229546656447314 8.951171971940113 -0.8306460412063179 0.07167824237159269 0.07742825748149246
Ni 4.959455611011195 1.1062084975296311 12.64289856454926 -1.3733665806754023 0.39260256763234963 0.6113579381318246
Ni 6.048648945595213 4.2038876411484445 2.438957357480293 1.6865410867874113 -1.105491312720825 2.4904309429458076
Ni 4.94572831252123 2.8511728992195158 6.318180457712016 0.04202288139900505 -0.026455108867735087 0.6182053000709611
Ni 6.609759237187058 2.138161412226197 3.3906566586504114 0.38368366787616504 -0.16393019512947896 -0.12891716938940379
Ni 3.9405055500940276 5.10051799901227 7.0021946520020055 0.5185076896683071 0.3517279409051749 -0.8999511553600436
Ni 7.793269700435214 5.808699854601813 6.270793414663538 2.0146734997608338 0.8671832169004032 -0.9983652710645838
Ni 2.0783297093355646 4.598840036944976 3.4719458566028614 -1.821250180268244 -0.2987007379758662 -0.7366796768604861
Ni 8.83062808720293 3.6812843722490185 3.4113460565639744 0.45952401204524723 -0.2583061362089035 -0.07715366366386713
Ni 4.052302229338757 3.269883366421548 13.501930241934684 0.029995260810509634 0.0527513235601027 -0.5067029837238951
Ni 5.730887062484811 7.17809540037917 3.3805292931068 0.09783921703767666 -1.2567254004398745 0.40597410384324917
Ni 4.869800934202242 4.430648123308456 11.431196056756828 -0.2139517784632444 -1.322575466165464 0.5375359099443516
Ni 8.71213493826181 2.0043156080726883 0.8858277726989551 -0.9438113470781035 0.7357944460420555 0.3977900253705601
Ni 8.068567978203179 8.261493177278656 12.996848318502998 -1.2768026308057234 1.0262105754116262 -1.381475325825466
Ni 9.235221170301616 0.4183315268918897 2.496553498296139 0.7767539191735525 -0.23832172266717663 -1.0648866518255855
Ni 2.458830361931564 1.0836949849858726 11.792716257935986 1.9550460179061881 -0.24093807724410124 -0.3946897891786815
Ni 3.4652698199624106 3.373302492731264 2.1139213064555884 0.6224867010551345 0.30102398679240416 0.5436417657317734
Ni 1.6963058652968355 2.393045209560507 4.457737711607293 -0.23440721810411888 -0.3206960113000348 -0.04646214811728127
Ni 8.188510016565433 3.725670542400265 12.12403268733614 -0.3699382932656145 0.23696829396307575 -0.42572840365204095
Ni 7.5579087592754 3.105490143639152 5.220336510263618 -0.9349783221675059 -0.4414959508989429 1.6641562913343082
Ni 1.633102708176259 6.6239973620754995 12.339450037124164 -1.4621197762514109 -0.9318266639124018 0.11869112078602138
Ni 1.4598211060603745 5.002532208031802 10.35063011565544 0.09215913593376387 -0.41146752285765265 0.3005429333909275
Ni 3.1091773814608814 0.48582655453493756 5.361492704566959 0.250971036000071 0.5793626161721506 -2.082046686999169
Ni 8.034481925795756 5.955892159384604 13.158000115593243 1.906969731224251 -1.7470687118588233 0.8354933419962901
P 1.4086084376749433 6.917434620865726 3.7273423378861876 -0.07087065886863278 0.8233993869462335 -0.5336923678285453
P 3.116412540813847 7.675408118677666 11.038885097828055 0.2251561318194961 0.37354966476595663 -0.9161627321228997
P 4.671061601936835 9.121195430408989 3.701948693230292 -0.6136331073192464 -0.964718529544416 -0.6428521520853637
P 0.35115692671697685 3.617876884569051 5.791225876672841 1.4492125812714396 -0.12644376814824676 -1.0186996117465617
P 0.7158061717806196 3.171990452968076 9.287925451770597 -0.022087833037974864 0.032968227395904506 -0.8162373219801556
P 8.1848785052599 0.7673996380267332 4.248981538055399 -0.8158498567337498 0.2369716363971854 1.6411672866383027
P 6.15399063671374 6.488294007382077 12.491793329554138 -1.7992862744026434 0.6410976312881023 -2.6569486962968045
P 2.5770541660443955 4.182423644659737 12.296887981603113 -0.42463388503628163 1.400088570051279 -0.3187016065778253
Ni 8.87603591015113 5.878757373214672 8.834661758200353 -0.5391539051637488 -0.28628796613381013 0.8508644251357218
Ni 4.757976391699414 7.776644623102983 5.668353552333874 0.3473357253747502 -1.208847088701357 -0.09740290083120645
Ni 8.290981792099792 7.83268692289219 4.017863242328749 0.2014639304088788 -1.0618334668215583 -1.826996338723402
Ni 1.7070332196648395 6.940774743399746 8.999103277296786 0.9767091262473888 1.4597052532726473 0.12507979792118457
Ni 5.19605182328005 6.333262839320848 10.215237900677453 -2.8518858813307593 -0.6216616340506776 0.632197500584995
Ni 1.7493946597275798 1.7191723124431777 0.3678999585084924 0.32016122184248735 0.5182804041488493 0.24748744832684477
Ni 5.656687206167944 2.7645831808014214 8.796816952275414 0.3782074752529422 0.5445953878942943 -0.36728620035474807
Ni 7.72395520203832 8.375221709084895 6.165687632463579 -0.24407816553497966 0.5280161433793745 0.7640107605752713
Ni 6.193379995912618 6.663934698683653 7.804582183223291 -0.07289437416688091 -1.4490940534157042 -0.9446711239752376
Ni 4.347680628443193 2.161102161394136 4.04507821528903 0.21880216457701027 0.9795530234540872 0.29219070477149034
Ni 1.18643610534852 8.693030030958795 10.883007815495894 -1.2004028145887455 -0.6240705006024865 -1.492195769701185
Ni 1.3331082959801357 5.707704831746684 5.472837070255218 -0.6586636651963237 -0.29690045154233385 0.1289639634669392
Ni 2.4802664951621725 5.212277527246201 0.7947799329850666 1.0949071094470757 1.0114275035651807 0.13930339771973427
Ni 1.0317392963844758 2.852445321339357 11.440207963201221 0.028889943561472824 0.4298388262759888 -0.2945239808903573
Ni 5.793960191067595 8.28821404179532 13.499361249537984 -1.1308958688368589 0.9104194018812192 -1.1357128306095279
Ni 8.197899934544697 1.7547351175298327 9.63960435018929 0.811251695840106 0.690005926953031 -1.108694650149471
Ni 6.421654381762659 2.7810503663377593 -0.11714456724914135 0.8649589555555748 -0.1480214943190225 0.2023026242600903
Ni 6.440164872892903 2.1690617654576676 11.144969809162548 -0.5033062993375202 0.7471864899290809 -0.03558792440693871
Ni 5.988352855069603 0.4554295974997836 9.465511927262733 0.45151322592562887 -0.21172674578746764 -1.6893497598808005
Ni 3.8877696902658667 6.58141301594797 12.842901031181807 1.5629975230050952 0.10481307725234852 0.3799118595385586
Ni 9.308743020671413 1.2955950628265709 6.800534321512584 -1.128368988649947 1.2048811620750735 -1.3147659974233743
Ni 5.554586940741567 4.9519232435718425 5.053692865002115 1.0807940670844614 0.46387020482908503 -0.47881242796121415
Ni 0.7579865006657185 3.824250749553505 13.795837461011509 -0.6834591269734488 0.6706360070668514 -0.3636761144059866
Ni 6.587078545094708 9.300941308403775 2.445536801492669 0.23591517010821306 1.1492987968240787 0.5215032819615212
P 8.345426598424673 9.006268778504506 10.321838082286773 -0.3744554644096777 0.11108142675956353 0.6881997269822276
P 5.850578331524176 8.726837450785231 7.356144405955743 0.42162080924157064 1.0156474551837993 0.17494145863831806
P 0.217593470245535 7.151328097099008 0.6644151785433567 0.8629889763133977 0.5260412790411908 0.5142232033603402
P 3.5379000460730508 4.082208793031373 4.925981621506673 0.3929005584887427 -0.649192749591411 0.8023312534220246
P 6.994671572315354 0.8046212357455313 0.34245615998801937 0.048251121696904 -0.9265510173357592 -0.1627228050849391
P 1.6589319484337643 0.10900756710904773 6.9913196223660785 1.113768979348585 0.5786342226465583 0.9174320857536264
P 7.497055403587815 5.8046875454355975 4.122860357822122 -0.5816005043637339 -0.7238475580928244 -1.0343792272653478
P 0.30674382208290124 6.80690107598814 7.172372287165694 0.8903527130383312 0.5356636326223032 -1.6999277925069627
