# total energy = -340889.83113800164 ev
CRYSTAL
PRIMVEC
9.09649705544157 0.00000000000000 0.00000000000000
0.00000000000000 9.09649705544157 0.00000000000000
0.00000000000000 0.00000000000000 13.31364292865119
PRIMCOORD
 96 1
Ni 6.482318362564322 1.8806279711447709 11.472139904879189 0.001893360367970933 0.6324746655057817 0.1552036138897585
Ni 4.430630766392332 0.5529769588602593 6.251274617390626 1.3900062461146125 0.45600854269282115 -2.0449410403961235
Ni 2.512270525924886 1.4281955026534752 4.704641814879831 -0.3635077071489224 0.6317984653743636 0.5161409892083434
Ni 3.5646442573473283 4.448441707408195 4.65511502761989 0.052492927692393464 -0.16918450154988282 0.7265677852374649
Ni 4.903803247915378 4.960483520371884 2.4505626196075685 0.9126868577591571 -0.6039727014113468 0.33404157936900536
Ni 7.342246604644788 6.136960759597908 2.5998616046459495 0.1738554246629909 0.2946941879196344 0.48902819215195137
Ni 5.308524589936704 4.363216627542201 12.004099407550914 -0.989681884357973 0.17030447408693897 -0.9358280717623109
Ni 5.639873587609744 7.641721477026927 12.309154980808044 0.09697249816200719 0.6226054860211859 1.418295579977609
Ni 2.1862611719578284 6.376844480501541 0.29320374738911753 -2.9150278040965665 -0.6533779913173522 -0.6997020711948724
Ni 2.7041702254502367 1.3188374163957122 0.3426468468771765 0.22552637067472125 0.41889415433902694 -0.03679685711337534
Ni 0.16170842616904446 9.109868794257354 4.960290674636677 1.1150565878117569 -0.026615288594683192 0.2711462253963653
Ni 8.46580952114902 2.2714225763452163 1.25345452531312 0.7215189099596477 0.10336708883444133 0.9341036328720363
Ni 6.863525259986055 0.8394656722055006 4.8802751585703685 -0.6758288641217005 0.3526908190390765 -0.039925118329711885
Ni 0.9286522764904979 7.432793135222876 2.4705330689978777 -0.8905884831982211 -0.9123011922849642 1.4097528326139206
Ni 7.797362539734491 3.973904751343586 3.901137324042058 0.15920090797460967 -0.956934771833939 -0.36631740868357554
Ni 7.502617845763101 3.697762393622166 12.885169727828044 0.8181890463898877 -0.12119203283100419 -0.5112934313080549
Ni 7.635954297964591 8.93402441183772 6.94905598214936 0.11340210447294019 -0.46098645552338674 0.6331097279866194
Ni 6.693338898665436 0.6585290707967574 0.6639778724660634 0.8179496766855721 0.30385579981424443 -2.140364706013772
Ni 1.8061003716846267 6.80119606292748 9.057178245360376 0.9844661444849884 -1.147020285202547 0.11073638471531896
Ni 0.04234874152162831 4.7742600349394335 1.3378481853584554 0.31610479238492656 -0.5971011711024943 0.3697732284426599
Ni 6.364300411216109 2.33758139861711 7.232050731018506 0.9465233466926278 -0.6883892172852144 -0.4258813842901375
Ni 3.3881722166385777 4.308000891093638 0.6205884916940703 0.1887158867145911 -0.7570469276629285 -0.9782150213689539
Ni 5.932407832823801 5.574769958983324 4.8154917266363695 -0.0339177357933674 0.5341351117929188 -0.11144678051878226
Ni 5.082221938970092 2.918047061591688 9.577168577353513 0.9160658015337191 -0.20236304518438053 -0.14174851682611717
P 0.2615506669739505 5.64736000459445 12.58316330034646 1.4797356895609612 -1.7108989468064857 0.1662174485017589
P 4.064551343388056 6.113018779641958 12.71191966633677 0.9141672989594257 -0.8829093693864085 -1.9476651520610844
P 2.1866887073141847 8.327852048500105 1.0896821039875386 1.7646442588487414 1.394205628907941 -0.051803100714220465
P 6.074204027182977 7.796671205966765 5.749842958462127 1.7487401860239753 0.2838844988986401 1.9245007981294788
P 4.7218096335617705 1.1262463831026361 12.567745647676498 -0.07137279531603193 -0.7170485328931199 0.6650772820321514
P 4.157754051073718 6.005625536724046 8.175721323963135 -0.08642557588409631 1.4852599618133002 0.03569565362939659
P 4.597005695493521 1.1453035441997925 3.91811229698879 0.375515787353392 0.10547153677195384 -0.1402863304582939
P 0.2687814723945374 5.552692760900843 3.467405433967724 0.12869219786279124 0.8727026040567356 0.755526377253344
Ni 1.2329300992589367 0.7598285704120521 2.411167510643576 -0.31758523358519497 2.0406935779736792 0.8835184637253172
Ni 1.9870205993988712 6.264520936240115 4.824251653193201 -0.6812443787103171 1.790450421278568 -0.8212131779281922
Ni 5.946343666141627 5.595673708960062 9.639383158550597 0.2927154669267088 -0.7861903819961041 -1.7048005472182317
Ni 8.450745722210169 2.3280937523047793 9.873476959149533 1.115176658329389 0.9392769495428597 0.5893179276126496
Ni 2.3317505440761663 5.454987287228024 6.98825096818059 0.503923621206545 -0.42094332355857184 0.9652641176352408
Ni 0.7985396228058748 -0.05611447034660525 9.128286471619363 -1.281515720010677 -0.1948803636540902 -0.602529026986285
Ni 1.2310926068762993 0.9066141933448746 11.388250190764538 0.6471924313319306 0.6127892712617125 -0.40125407265976054
Ni 4.116674270875743 7.059836760529125 1.3265448782561515 1.2087082491306473 0.7234310393806961 1.280668541519033
Ni 5.574487967578068 8.074150748738917 8.28378861730458 0.043474526243867065 -1.0197223965841211 -1.0776238968865957
Ni 5.420638914768424 3.0595339750547756 4.644690442122352 0.36478991629545565 -0.1301826663653887 0.8855025840348814
Ni 0.6420798753733742 7.357519623013346 6.871650251056213 -0.4642934084094327 0.4858101994352859 0.16113489177252893
Ni 5.278842720409249 4.517966233549276 7.0061046627320875 -0.548551544328565 0.7892973030562019 0.44170832402006505
Ni 8.190949769496667 7.062220042728388 9.094868670797108 0.6300670845055536 0.9474134626070652 0.6742486641187743
Ni 4.989655986070491 0.19126203508959397 10.449332517473017 -1.4266400952875624 1.7012516535247089 0.6535335430586099
Ni 8.033571275872848 7.154467618234956 4.8810610959063085 -0.05848488360977025 -0.5606377860691377 -0.6556271923628451
Ni 7.267509785754938 6.305027637130634 7.094494413884813 -0.7228224592624196 -0.326604920585302 -1.1345332084791298
Ni 2.456627254119967 5.319149298367005 2.5637148547405704 -0.814558648726152 0.20539437581153658 -0.18285968504413025
Ni 2.4104625321304356 5.028307001584484 11.404147228823437 0.1068625035822095 0.9898104395160373 1.2021437085392521
Ni 1.267933419498487 3.6169582112708345 3.893574496483024 -0.22993632681695886 -1.0655772501347067 -0.22572871649351445
Ni 3.5771064581602654 2.872055173044088 2.6826724742230725 -0.32479692084228584 -0.8509554421876312 -0.10377049492044711
Ni 1.1439208766643425 3.4653287037154654 8.19117900121965 -0.38468099879242784 0.1573556272357548 -0.5922235312952189
Ni 3.735158092557923 2.743066846381712 7.206208492851006 0.854749876233057 0.4490331398162524 0.6847739891301303
Ni 4.09461526578715 7.080367554131168 5.919218821905058 -0.3168319003589382 -0.5677427725450351 0.29775302935061626
Ni 0.6124371207827759 7.158006155546075 11.142108079963606 1.4561681866536664 0.6477609022408909 0.001152368436888338
P 0.2370683550995417 5.483941436999981 8.144846903686354 1.4646942218468064 1.47865325513006 -0.844082883437514
P 8.816961592668601 1.3928738050208938 7.882901448745044 -0.6659509428863563 0.45539790569201577 0.21547258598314506
P 1.6539887497912384 3.065856040430682 10.217036184670167 0.4698763018138489 0.271025640658101 2.1013947525084777
P 3.9412119413277487 6.47120244329906 3.749387742727031 0.10639070615211353 -0.12179367097074507 -0.5403240142124501
P 6.97235574942108 4.0046327180195735 10.58459924632597 0.3813028263488143 -1.2260601101455335 -0.2505887129599878
P 6.544984130009816 7.642258170346609 10.329549845717716 0.45654718880511047 0.24606074318264723 0.37418035637142005
P 2.1347204202745407 8.488614438987 5.721977659374336 0.5690908019324973 0.28165920911254716 -0.3455464946848113
P 6.88481106283443 4.017540647182755 1.8090840226821767 0.09974389025955725 -0.37784597814846543 -0.1253767603363131
Ni 5.352569828138342 2.8203597809127565 0.6494371221014792 -0.5568032428143959 -0.15389106572592207 -0.44567219376381956
Ni 1.782504058612539 1.343216028204962 7.175626979775814 -0.15922507634432578 -0.6745834217503737 -0.9714401645389656
Ni 7.080922440444737 0.5579054409043831 9.484053196038511 0.4004693719749361 -0.7001556137925232 -1.4875546713847478
Ni 2.8663061869756374 1.4908157876142503 9.373909172444808 0.7259095828281756 -0.24222131483189896 -0.1392856571079214
Ni 6.234638943779896 1.9379449983873398 2.675004127299491 1.061774588559165 0.3334504827522257 0.4449430289072788
Ni 4.408626340285401 7.092338544109143 10.27119581782356 -3.1211981388421797 -1.0474532868404864 0.35225424572229014
Ni 8.621341425893256 7.129033812780231 0.5749204384376676 -1.5225407005416294 -0.22484117168223858 0.02348111384107569
Ni 7.699566101092233 4.2654201888999435 8.352287058590406 -1.131659743586077 -1.3396190519113123 0.1727007422332574
Ni 3.0815656906525386 8.465336503307944 12.250295187683815 0.7870105639045543 -0.6170066517771696 0.3760572616791588
Ni 0.17489015989023263 4.819214922835447 10.375401648212383 0.0501352260934943 -0.8868287590454726 -0.7005207104414258
Ni 9.060383850883353 2.4484313103736484 5.9138000386756655 -0.5520158487280815 0.46824545107864524 -0.40049636855812965
Ni 3.5463330089995595 2.736662912533312 11.658930102071235 -0.5522755301473714 -0.060601929952773054 -0.359210108214833
Ni 1.1587117806948801 3.3801945888189087 12.691110519928246 -0.7068168278627827 -0.13167724863304417 -0.7111316531880527
Ni 3.1170784147209383 8.515221692547469 7.6588729220143685 -0.7949825263664373 -1.2604074772771519 2.397169317976484
Ni 5.748676787553938 7.920119765990397 3.700113838082126 -1.2010443048274866 0.16613183076648808 -1.4252398725059259
Ni 3.1104106824611697 8.710987403273913 3.3154029700376606 0.004152845826108978 -2.0140659480838217 0.7531954151273222
Ni 3.320885428745658 4.460312635919789 9.402586788709673 0.10662467653979057 -0.289220823509889 -0.9092256386834341
Ni 7.516044275252077 5.907465238204039 11.625286708124776 -1.3805846956903964 0.8111591361262998 -0.3359675927471246
Ni 0.3611218321699328 0.10919798791155298 0.3319157094326346 -0.4480280955905058 1.257922248961453 -0.6926269095156459
Ni 4.613734153373076 0.3260921320892458 1.69826140041647 0.0729967040727001 0.6741849007603744 -0.496809378759267
Ni 6.2938298493928775 5.661223065936725 0.4427929106800038 -0.6262826777624569 0.9039893299851592 0.4172920999592298
Ni 8.054811596236505 -0.5100105651961503 11.76993920252429 -1.1505414109819283 0.9580166920442084 -0.11376668690121053
Ni 0.1416042582736625 5.074235214653478 5.849002961996252 -0.7390016401254433 -0.860740546598853 0.17695848906834685
Ni 7.844691613332822 8.87282318040017 2.7819252620260233 0.49033894054357485 -0.23273857215244434 -0.6263299860606246
P 8.722276155981106 1.636860046046157 3.698915829434634 -0.8865999308641181 1.0796910638282695 -0.1416004212840271
P 1.6472846315436949 2.9177832631803193 1.4194737813838074 0.28010240614838855 0.36967166986778915 1.2514119586467611
P 4.943609518541228 1.090879202985336 8.306062299721047 -0.21111919411045577 -0.08349554672149492 0.7551034307833124
P 8.516768097027906 1.7167727716970014 12.164981871797465 -0.2977671704180033 -0.5615279019835748 1.5338936636606033
P 6.360925610849978 7.80282043790074 1.3430404658139476 0.25485648709740627 -0.9908357954567583 0.3128088952424742
P 2.1451722952629093 3.4541218194807652 6.069955963110246 -1.4386576885737286 -0.6038757708221665 -1.3198567816827205
P 7.147008490741082 4.069363390271299 6.048614671630514 0.2214419161927025 0.1380741532983235 -0.2702450537383346
P 2.59800500961973 8.509081557110438 10.142346667564425 0.15197816497392536 0.1968104907972675 0.433322413949215
