# total energy = -381165.8624352932 ev
CRYSTAL
PRIMVEC
9.32261247333885 0.00000000000000 0.00000000000000

0.00000000000000 9.32261247333885 0.00000000000000

0.00000000000000 0.00000000000000 13.64458569883872

PRIMCOORD
 96 1
Ni 0.4876798306201802 6.3970553307354905 3.398865941274809 1.9268507864188944 1.687835637229119 0.7543043319207848
Ni 3.275052328006854 7.8855595379519094 12.298028360431525 -0.9972026182150503 -1.472877271878231 -1.8750024342890352
Ni 5.665910819948209 1.7771975407055203 10.681186276223114 0.6581910964352794 -0.3247699242590923 -0.17804143771988046
Ni 0.7694567180823637 4.895704563841093 1.6601502794072878 0.7023191971027453 -0.7670788579776338 -0.505881002043232
Ni 7.949195689157922 4.179420296977395 9.73560303850341 0.6263677812770955 -0.9698525083368715 2.2638234233917656
Ni 1.7611626476386666 7.030042057161783 1.1381753551097622 -0.5146937152388554 -1.0462422972515206 -0.5731055795188452
Ni 4.6355384238313935 0.5156327511850952 6.139517235118551 0.8694157057753478 -1.6285205444085697 -1.233225003325089
Ni 9.023608105535097 4.696610856669159 7.92563465122312 3.6469769082506027 -0.7489266125486391 -0.9556931861173541
Ni 4.222369571604718 3.137487861672848 12.577182797068298 -1.2672926344327593 -0.692381369163743 -0.17805120791189336
Ni 6.556891517730376 4.6938979765049424 5.1626062912000945 1.3529155119099023 -0.5038128066602936 0.39663765693367176
Ni 2.101148993717203 2.6328828285161134 11.141840786197074 1.7168014283338497 0.14723705074451415 0.33990703701084685
Ni 7.4563651152706285 7.268020380020836 3.134720910357591 -0.39820731541363674 1.5103665270729407 0.2511605263030578
Ni 3.0698243419756253 4.2668477546407395 2.3709789535833554 0.8036214329883581 -0.08462657500214457 -0.3477113635466141
Ni 3.1927709523045 7.019451569647861 7.4800436181197565 -0.279019457496855 1.530677727826467 -0.8553713118671397
Ni 5.943006823800586 3.7678642566696525 2.6304030136581003 -0.19175493065123103 0.9787318131043725 0.9619561363079304
Ni 0.00022187817150646206 2.441862503551097 13.23730858001024 1.1142716300166164 -0.441060406023421 2.059268769872705
Ni 5.586668615838758 4.039748920275302 11.007019032386477 1.7803359585523855 2.526733376921268 0.3709497652492644
Ni 5.378028553724699 7.9054819603262505 7.487370259085594 0.11518362185339517 0.14350483739559156 0.518911352864629
Ni 1.1503450931385242 -0.030587490786247985 11.563731874443135 -0.01724413179242837 0.9205896575460017 -2.4821126528880995
Ni 7.98544200557881 8.0091866989749 7.575732774757431 -0.7466298460946625 0.862183963913599 0.906944298848425
Ni 7.042655551533558 5.5354408615350605 7.905222791705751 -2.150666859270728 1.768154071774213 -0.7926271387603833
Ni 5.85176641772774 9.240908874427706 12.061485719858691 -1.7580748331613398 -1.9424206158326935 0.23171373043235577
Ni 5.202269345009937 8.909862913495166 2.118267174327294 0.04143666987823186 -0.775928852169096 -0.8612791927111426
Ni 7.830062027238549 1.0467429032246034 12.197359064330879 1.0713825439625744 -0.5237267719754012 -1.2056437512727107
P 4.125414404223743 2.423030826809792 3.575167726022414 0.5506698762231483 0.3711163727341157 0.1571612518367616
Ni 4.720952197249133 5.588831461880334 4.083906405449987 0.3335132176693611 -0.4266267470965943 0.8439643555817787
P 8.853246689312025 8.635032304419095 9.639162479318534 0.3049040385731007 0.751499258371822 0.5713060644162613
Ni 3.5640999207613864 5.306561408230222 10.947460591777816 -0.9473473852558202 0.1434721843854432 0.9505990594238983
P 5.090742934685071 6.09694179724238 6.396854894572155 -0.1388637390791544 -1.3677985996693218 -0.5116323027047124
P 8.269268935474367 2.9454047589115393 4.933827522107537 -1.873686029470457 0.7637189403664654 1.3147230600005808
P 8.290375329604224 0.7353331604703846 0.6621310768365236 -1.1960836183881012 -0.4592244785269575 0.5129908736151358
Ni 6.362263341825318 1.5670472154072568 1.971670028986035 2.5445025279792306 -0.6579329576778862 -0.1469380314468566
Ni 3.5428163969988122 2.191531719463218 7.02083504530549 -1.9551768870570974 0.14081829170236396 1.5831302891992283
Ni 6.237554757781538 1.6763175535680654 4.478412320217051 -1.5332159208672884 1.1582403222880826 -1.0744311009809109
Ni 7.536511612768152 3.7633987254027788 12.136489864440122 -0.16643804915299723 -0.8871583744707496 1.0873485803735274
Ni 6.10402698255099 1.7982759669986341 13.319189083385922 -0.8220202472105198 1.4905057835932718 0.392313318526705
Ni 4.484791783778474 2.294499971744263 1.4259550725985426 -3.415226925263673 0.7244386547096039 -1.1035509011650027
Ni 4.451556671113745 6.949373493378362 0.4400245013299814 1.7962760268214095 -0.1325694214300104 0.9530449498612296
Ni 2.552577846610372 9.049608871095245 1.5838773272988793 0.839801996673973 -0.11741585361802358 1.3177276511548595
Ni 0.27201984148324804 1.3603555792530648 4.603915190824374 -0.12667311055023345 -0.8120304829876596 0.490421215844736
Ni 0.3912234229944824 0.5168307068589851 7.224617094177028 0.1361147155791075 0.1800147593961674 -0.003347833426310363
Ni 2.5648184364922195 1.3713189712569136 13.631418283756757 -0.8525742087379767 0.5538413319725946 -1.3223384104539935
Ni 1.9762539574284606 0.563818537112215 9.151873266151552 0.15388746618149626 -0.21138298929480367 0.45715602603370303
Ni 7.763079058235443 1.2521200510518034 9.435599511834829 -0.021869803489897817 -0.5461897289646077 0.6616181198389574
Ni 3.4869925948567664 6.737265419507983 2.5897554919948513 0.05001566979649451 1.087599777152385 -0.2730598974793104
Ni 7.905817574367184 4.053014997504449 0.9311406468248374 -0.41100163896482766 -0.14997681827318043 -1.4262950532433178
Ni 6.552696342218701 6.2087665311591875 12.51063892310208 -0.12992658449052463 -0.2612341084889759 -0.39611983675698875
Ni 8.097378610842595 5.11877602971532 2.906405475093767 -1.2410277871989595 -1.4957261514519467 0.9398775592413361
Ni 6.504563695181394 8.346245744807511 9.504995172887762 0.1809678673380561 -0.6957641695930469 1.5924438532906704
Ni 9.305934094858697 2.384332663367635 11.03310743050176 -1.4818229111072931 0.10656734093929388 -1.5977878912114032
Ni 4.625889520154537 5.808062011508316 8.915986005219764 1.210924797165992 -0.12419019622737966 0.019630115526101676
Ni 2.2110346242863907 5.27385768446364 8.50537993910011 -1.1045533742875882 -0.9233847037926356 0.8792710013028727
Ni 0.7838443055649655 4.602555021697366 12.963502526020243 -0.8949259342313103 -0.7165158003181015 0.26705919981118525
Ni 1.1550996253850911 3.3314914225572796 3.3735960685149173 -0.2825652658665843 -0.3766658417974352 0.47316062899207545
Ni 0.9112014437484498 2.7243003642216754 8.896733878666067 0.06093591625342409 0.3235828459295266 0.9066709905823804
Ni 6.8594755434692525 7.276233601411474 5.812893921436542 0.45856087680102964 -1.296044509754471 -1.692980414654852
P 8.84053064620552 6.122746787945316 6.406719150591945 -1.1263928387601827 2.519383621424416 0.4798215859520188
Ni 1.1982167070328804 4.799784206419665 10.576927774406922 -0.18776457854491535 -0.4989685911941149 -0.8702091482109207
P 4.0588136623228115 -0.1982406881512253 13.681425708117168 2.6756429302721987 1.2954935223470077 0.5850383264006892
Ni 4.0923843890284735 3.244278384975643 9.73770435530415 -2.4121963875129357 -0.9927083298891226 -1.9466670498138732
P 2.5436281388521276 5.939287101513566 4.351271466637724 -0.7109588750556143 -0.5351095598910461 0.40942606694759165
P 1.2419211132523047 9.130808823776812 3.333494851929412 0.18376831290132867 -0.8872319080211625 1.1396795285667598
P 5.236902849511891 6.710705297212945 10.77122686209962 0.2678729539617322 1.1278095166020512 0.7127334504575338
Ni 3.5379220255685224 0.7713697181156883 11.311606487497485 0.10012801307185336 0.5571364577840986 0.28134270631339287
Ni -0.00601774620619417 8.066651280872625 5.3736338743109116 -0.8983845822038723 -0.11437423857822236 -0.3675325120375993
Ni 1.2533786037053065 3.0540131916027278 6.732156627995986 0.4467443437820757 -0.9607214925698809 -0.4090763969176568
Ni 8.88558683120093 6.621180251793762 0.4670852479027464 -1.0745861385015363 -0.6563730693899341 -0.037460715949619354
Ni 5.171383530631748 0.6545629802134586 8.517550609390097 -0.17311546117317284 1.9389712238315124 0.03227711486615086
Ni 8.307174676875428 2.65604019734057 2.844582571970023 -0.24123041167353934 1.1245547571101793 -0.8618409787518834
Ni 3.925257919255518 4.444257065723427 7.207084057321893 0.00878777349495906 0.11522630216587251 -0.6922738970516013
Ni 2.130990675523597 7.2214818996779675 10.209260728041118 -1.4635521378225633 -0.8583337369295734 -1.0620185862491711
Ni 0.3408915717278337 4.577234806831334 5.342878576504196 0.36185294515431876 0.27069268279871445 -1.6200647003317326
Ni 0.7625234913533991 7.483083721973885 8.137453724113806 1.915938510381765 -0.4541671186087081 -0.5879457298554713
Ni 3.741928749395242 8.905723673656977 3.825204847824476 0.5957297446762643 0.6513627606595362 0.2625731390153736
Ni 3.8423053154712954 8.403896778950198 9.77554017711335 2.4869273006679236 -0.15397179836518643 -0.63327504991989
Ni 7.880991457950306 8.045852532946956 11.835504666701809 1.4838962486965541 -0.7289707382520026 -0.781947290449034
Ni 0.6557199163934566 8.69799722754324 -0.09101759564011512 -0.9816572142812836 0.803525530840442 2.0496808690739536
Ni 2.792234239674095 5.5100180979342985 13.341143835230366 1.3125209101429396 -0.05830336372658346 -0.2405704094920373
Ni 7.880460069052161 0.47477080944013833 3.2143099156426733 0.7432951252944747 -2.947535289805969 -0.004789708079159493
Ni 2.8304662725038434 3.6742372618612746 5.001149834196477 1.2002256655809331 2.7448984221349115 0.06008976620304489
Ni 5.565590189545644 4.512349425584066 0.22610317937733299 0.11768710500153926 0.14003770478259753 0.6467172914677249
Ni 7.625262881370736 0.663306658241018 5.970010702438638 -0.28174739795097925 -0.7787125855618202 0.1649105567648773
Ni 5.567482679832024 2.8495683050003446 6.5018219149192085 1.5120845382053119 -0.15710597311879396 -0.4482947189883311
Ni 6.98770807494284 8.098236291169428 0.618051901604723 0.057793771080016605 0.4093970134818692 -0.06359315137061305
Ni 0.7344773446660025 1.2587391057480044 1.7468347248744531 -0.13238815865713977 0.4528075192570202 0.33969800632383435
Ni 8.596790948977098 6.438680794423573 9.717318599101073 -0.04717022992789941 0.832663842967295 0.15606493344878927
Ni 2.3054167506868706 8.049078156784823 5.294958485026148 -0.2063251151559221 -0.33879580622453914 0.8167844527328773
Ni 0.9660836620534307 6.8777758313124115 12.108013945328086 -0.24887687247520363 -0.3342549809313921 0.3522362480001611
P 6.138996101093879 8.658674449080456 4.412686039344997 -0.890584112322847 1.8639533755637252 -0.8569520260906983
Ni 2.474277226337986 1.532311162170573 4.829336887246366 1.0271569984852955 -2.09159010771323 0.2150655803527135
P 6.209857276792223 6.025819588401086 1.8702222947626663 -0.6229286736885595 -0.5630700496597141 -0.6484108771200638
Ni 6.237797145699991 3.4679931110949944 8.613417827921712 -1.6612974817292745 -1.2584184718715812 -0.0441646103323562
P 2.509507378023823 0.2328797862205283 7.01481823136052 0.632233238918937 -0.6060894906440336 -0.05561758936430421
P 8.702882276361281 5.396459358139332 11.593258451955542 -1.30620370967566 1.388827652425479 -0.10394481571478227
P 2.494870876794195 3.4721509961576786 0.3048801851356 -0.11550192442476238 0.12699064179065225 0.8311196384086266
Ni 8.259909032777204 2.3515543587030674 7.531401888994929 -0.4787831173851755 1.3197009728311466 -1.0335775572996586
