# total energy = -340896.9935867596 ev
CRYSTAL
PRIMVEC
9.04431038896675 0.00000000000000 0.00000000000000

0.00000000000000 9.04431038896675 0.00000000000000

0.00000000000000 0.00000000000000 13.23726246716301

PRIMCOORD
 96 1
Ni 6.383130699436637 1.8674511528791262 11.357359503960215 1.0452812188898322 0.7773912956472353 0.7676154472073942
Ni 4.5616789099935335 0.28061691887399803 5.865245337703685 -0.006920381268917114 -0.31224068144383005 0.4857412938705634
Ni 2.725530115913479 1.6706379110916105 4.76639416590493 -0.054911307325898974 -0.23932830955482004 0.18731412127105804
Ni 3.1705463720098406 4.2981005677568 4.588829930252076 0.022091175472084536 -0.6676113613079148 0.6070228010915805
Ni 5.0175935602976045 4.497346729081141 2.7658198061019283 0.028743647791595658 0.3578746772328611 -0.8478449215831075
Ni 7.203205469557468 6.054496631443843 2.511373504223305 0.1957239426013081 -0.3147721896164321 0.9059713934121945
Ni 5.093782832335564 4.5667708568308285 11.534619850778729 -0.2870461844560734 -0.14483461195060862 0.03696166482601376
Ni 5.7641019084387635 7.947733113689092 12.437546836516622 -1.0315127043508299 0.2074653994079524 -0.29506956898118214
Ni 1.70745729932363 6.456380570547205 0.32781013130206915 0.8202323020721616 0.5479982429282563 0.2890061363959216
Ni 2.5868808352461103 1.5363751210389627 0.4037380227652544 0.5449088053696551 -0.16339257745845406 -0.5113782777123773
Ni 0.6230679800876351 9.07397588440691 4.535959604094395 -0.07471342965349068 -0.8363675170711273 0.6573230920080293
Ni 8.607307548863863 2.339356144228201 1.3474602756511085 -0.08508885935054379 0.30739183799196096 0.3199581046927457
Ni 6.77993173601325 0.6406193691328469 4.659185621987983 0.02153607429956291 0.22643808385571326 1.0120039448939409
Ni 0.6576479970285105 7.299346490659499 2.3925430212549843 -0.3878809937869642 -0.31952538803070135 0.808620428864846
Ni 7.6579081822483985 3.7388908467089577 3.9173296671915923 -0.3495779844417076 0.05083302349146729 -0.2211063872301547
Ni 7.404441379201888 3.9095027208452424 12.567311890934837 1.1884996353932564 -0.7759753891363153 0.3199275085651264
Ni 8.228477557341787 8.897222923410014 6.703111171099193 -0.5195744403699245 -0.1574438160741869 0.42502803515090676
Ni 6.967393160696391 0.6518071812780221 0.35367685946310473 -0.8758725171442852 0.4249185061562359 0.6645851728870813
Ni 1.806058372894123 6.483242172868281 9.382439331020421 1.308305072289379 0.19461836824195516 -1.1967096820078744
Ni 9.02554360143406 4.820572299367535 1.3970212885800746 0.22055437138142658 -0.09927234993977742 -0.06157869204374556
Ni 6.496184581259344 1.832196430371533 6.945935533926441 0.02023098233489419 0.4388166042945668 0.30890184687858413
Ni 3.4150683519265392 4.52497709779861 0.36564067345311096 -0.15801460097599238 -0.19280702606482922 0.5117096929098671
Ni 5.957849128951247 5.51260676509124 4.7081632768867445 0.30017166609443785 0.7406952257777824 0.7387522431187987
Ni 5.3169602393641355 2.7754727987474785 9.378124290459011 -0.08510120064571797 0.03570465249046109 -0.7450609589456458
P 0.1140541825690752 5.565543114715905 12.472016512868837 -0.3978057090998439 -0.14356525831988176 -0.0687906364111525
P 4.06795904160795 6.3266851573201945 12.512099088345789 0.011327766307993394 -1.502421046973619 1.0619298831901065
P 2.1837940028401546 8.478426123585976 1.4252693837078236 1.227150772106551 0.24959472447783468 -0.06783315759388962
P 6.473257254025699 7.756328369607976 5.901449712818589 -0.6442330915932906 0.3768278212965962 -0.8198389232884847
P 4.76419911173546 1.1601951125068115 12.709770635204103 -0.2969354185453273 -0.503793523386584 0.041599677818657387
P 4.082104343301607 6.178738325411726 8.264327395483296 -0.5256332449694947 0.7492230607431355 0.2705967806507985
P 4.74082861328507 1.1543886651363973 3.815760250899962 -0.5764189601627943 -0.12761567696916087 0.0059089092852672425
P 0.1749630919398773 5.4652507550733445 3.6562909673561235 0.480727642706056 -0.1627516014403455 -0.6276515330855255
Ni 1.498669390373453 1.2665381159045235 2.636385773449692 -0.2867440798346223 -1.2821608097938435 -0.9660264497225621
Ni 1.8098660276339118 6.563727492415503 4.870544828426335 0.5713497731700031 -0.9078392998588688 -1.3874107174732944
Ni 5.889908268131073 5.73853364252574 9.418034119604537 0.6539140663264803 -0.6021626447858017 -0.8106222897862233
Ni 8.710349378912351 2.4090968228469927 10.142469827858632 0.272521251367021 0.4303101094854524 0.11851448599884105
Ni 2.6758497180853085 5.171256396471029 6.896031741627789 -0.9844118942082853 -0.12276786195855632 0.5574187649112078
Ni 0.7669674830268507 -0.00430690068191788 9.118290292788245 -0.49472138588198666 -0.2596870757168302 0.41096821462373095
Ni 1.3565742273881278 1.0268729307509286 11.422010044603821 0.45752060846197334 0.3648860755536877 -0.4660260748298232
Ni 4.04625269629799 7.001001818684646 1.4816470934951715 -0.25551006152100514 -0.4916890268135661 0.3777480191180204
Ni 5.914635413163336 7.845279163826082 8.063001947164471 -1.3558167447170972 0.7271015462537478 -0.13938593013121156
Ni 5.190665486902351 3.103989290703176 4.9724986279161625 0.28428559099180073 -0.9934781181756115 -0.16494115289249658
Ni 0.9289049589186429 7.29703114715977 6.835179811413425 -0.9304822340693653 -0.0565526995840639 1.607570938740096
Ni 5.20443997186363 4.660361382358939 7.105352360469114 -0.8387804973879941 -0.991703285663376 0.563027883567869
Ni 8.159532778051027 7.172771364570796 9.08341000473725 0.20300607808501814 0.635574387477028 0.6147204268461542
Ni 4.728709237153676 0.4238742757644606 10.4989232906593 -0.7661607170387387 -0.40078664610503884 -0.5900275520851644
Ni 8.213861951499748 7.065089803212302 4.7070517311206626 -0.29194927818464556 0.44248402584382496 0.1989501628480896
Ni 7.2996178199758734 6.054315745232927 7.016358153560387 0.19842385803097437 0.12582567494827362 -0.2694487830892844
Ni 2.359488779503188 5.170939845601925 2.513901389020861 -0.5924289624378055 0.41601143347459324 -0.07333428991777693
Ni 2.3705409269901763 5.116086102141547 11.511255683345722 0.017460875788924766 1.1110451526595189 -0.27738217900374806
Ni 0.9930472093095745 3.290075980183353 3.690124828676969 -0.03800347582696681 0.8841216445269547 0.6299195031840958
Ni 3.5462379877725176 2.6363260810000897 2.513901389020861 0.16433771498054278 0.37601740958015883 0.18869248967582342
Ni 1.0154951880842913 3.5480016283289517 8.130419142404044 0.37068417029270356 -0.21229804490990534 0.39812761121563695
Ni 3.63697051116815 2.3939747356143872 6.989764262831469 1.0423846140683275 1.2033058471681535 -0.3930949338877359
Ni 4.311838875475895 6.816054712333242 6.137033200622858 0.22884489352499296 0.7922520148091518 -0.5481725637225914
Ni 0.7827886954646477 7.3688701058251915 11.324848825272221 -0.14741265709043 0.23991992039223198 0.6029920826656324
P 0.2436482995179725 5.6612228759800995 8.062988380698654 -0.013045006109416245 -0.9667545861378383 -0.3248498855674083
P 8.600099233358847 1.6755399274074432 7.937419886373698 -0.3881314192348735 -0.055746401632684635 0.681938062343232
P 1.8146142906704656 3.389653839292794 10.35758875419088 -0.3868664364795208 -1.216021237852293 -0.41339482178735254
P 3.9050348314356094 6.205102490652782 3.9282235392440286 0.11687617906446969 0.4402613071608934 -0.9474705410972456
P 6.923103171953526 3.9296624890518674 10.365266469413223 -0.15465545469577235 0.3222065344072903 0.08029066663095205
P 6.4000978260205885 7.842574914972883 10.309656621591216 -0.28102851750708374 -0.6855982848036386 -0.3691361090792933
P 2.367755279342065 8.51878183724141 5.827109097856195 0.9583931015470205 0.6832572953752878 -0.41135645120108516
P 6.923265969543352 3.897781294377864 1.6569746711500453 -0.43271511938251933 0.8273120917370785 -0.20296288355190853
Ni 5.176782470214523 3.0103083220696076 0.5741454954832038 0.3688432604292228 -0.5396352156755415 -0.2625623403820962
Ni 1.5356877534374807 1.0574065231536056 7.143991463982951 0.06483756530067543 0.6981455253410298 -0.9529073958421007
Ni 7.2027170767879936 0.573803620544572 9.292664600111593 -0.8130550675974321 0.787463849391889 -1.2999582429865806
Ni 2.8824579481939434 1.7781204976180953 9.140210988258142 -0.4858371960184794 -0.6805108429784023 1.2864522380803458
Ni 6.352986012387429 1.9974902499068776 2.6209380910374374 0.2861686669471265 -0.10580886550671453 -0.36018352787169583
Ni 4.120045226041308 7.011294244085785 10.474248602628204 -0.058084305737241895 0.1318798515621535 -0.6967113639976646
Ni 8.006276935852163 7.133157284380118 0.3745692168239411 0.7213119361551642 0.510094011683315 -0.10651180511101012
Ni 7.624046283564861 3.9289932100714777 8.220287029711496 -0.08889537758082755 -0.41544064857278773 0.17689729681310826
Ni 3.2078812859429715 8.302405751743292 12.546555198232186 -0.4005035676469812 0.9194794552009584 0.05643108640453507
Ni 0.07053115136049641 5.0481995071846475 10.324336442038131 -0.4287288810412616 -1.102743317662043 -0.3087666068523005
Ni 8.810198567338167 2.0986689519829285 5.749486302596724 -0.0004874811593798057 1.278320867222463 -0.5134135629748513
Ni 3.6003681863892303 2.657272704224201 11.565303578736465 -0.1277815131230638 0.15206275426793167 -0.26731193925193963
Ni 1.087614520376633 3.3018064509612772 12.5119136799796 -0.9143076811920319 0.27346613177879353 0.20863962222171165
Ni 3.075915750768961 8.36264085997843 8.006174735142997 0.8908970155775754 -0.30402240729909574 0.4352052327942247
Ni 5.697318719368453 7.721191223137478 3.6654908400433284 -1.7473404774629713 -0.11478150131897007 0.2610451324066214
Ni 2.879030154497079 8.369225118055786 3.6019120501994006 1.2898790043737076 0.06252434378646651 -0.41609730832018016
Ni 3.475330593093315 4.364521984405277 9.347413429569638 0.2735813172004191 0.056663771240631454 -0.4101742579675259
Ni 7.095768104583713 6.092401336941362 11.504690418320513 0.9454499111227912 0.08946770514452979 -0.40033207506612345
Ni 0.48163033847899095 0.13100864711826304 0.30122166715947746 -0.46881443620823776 -0.8434323943377088 0.3402716194391172
Ni 4.444437512388113 0.3985529195293377 1.6498920715616163 0.15114641310124938 0.10968043264697884 0.010410653810362717
Ni 6.04172606495315 5.620170750412637 0.43689446522621816 -1.2893012774933665 0.1517961308701063 0.19070437789952963
Ni 8.033011917825597 8.882969089989807 11.355360711329588 0.3111680172049415 -0.1805983998137793 0.8238177054305748
Ni 0.09853866782772677 4.8072228970019095 5.810576098178442 0.2189353477207649 -0.47654522919359216 0.5043419396908861
Ni 7.640959144285539 8.58523943113207 2.6107460574833565 1.387311730001585 0.8722135802354593 -0.069229523720784
P 8.450687223141957 1.4715726359781864 3.5029772415697673 -0.052247901561122925 0.9680676485223069 -0.18097712330943672
P 1.6599746689580928 3.2291715929678237 1.459765288560623 0.84078775762601 0.46230054634911993 0.3506442209226929
P 4.811310925368619 0.9544913134527582 8.17898709003508 0.44647334950887624 -0.15975729469871194 0.07008724373538898
P 8.453002566641684 1.7434174780537968 12.417611367211533 -0.028770901485105287 0.1841444652938248 -0.6122722224159778
P 6.097140555667369 7.862743727490054 1.3648542936928232 0.3121293526769463 -1.0964096621345312 0.6745821361987931
P 1.8513884573497559 3.285788976984636 6.088637999323247 -0.3676854926756958 -0.6388921389963513 -0.95437318175435
P 6.918680504096622 4.04054573634358 6.038045030561003 0.8869485724527887 -1.1386215196158904 -0.3302800554440441
P 2.4884063820232587 8.515779126140199 10.365200445946238 -0.10341105469849933 0.29070872090932515 -0.48691783067716793
