# total energy = -340888.264221211 ev
CRYSTAL
PRIMVEC
9.09997489601985 0.00000000000000 0.00000000000000

0.00000000000000 9.09997489601985 0.00000000000000

0.00000000000000 0.00000000000000 13.31873309988274

PRIMCOORD
 96 1
Ni 6.569990631305707 2.144318037451057 11.396160391527063 0.43073485572769693 -0.952981700723462 1.761896263789959
Ni 4.759814564730415 0.4799199255216275 6.043668114812383 -0.10224943029023037 -0.24783608991551512 -0.9343635714016424
Ni 2.898842439400023 1.5695909355528377 4.623637993386685 -0.22122285820336093 0.3524095403532318 0.5456845071934151
Ni 3.517950117892407 4.0995113007875945 4.621520429274842 1.2430913545962075 1.3364591661260916 0.8903989928952342
Ni 3.7539670616172858 2.8849012781651946 2.4873798035241976 0.48657690239798135 -0.692879134735768 -0.48512680021501603
Ni 5.12786304132483 4.868568362326653 2.543797826646711 0.1259434314730605 -0.2925069504603285 -0.6007192274710558
Ni 5.542139389376771 4.330568758302956 11.628065966684128 0.15783102421027656 1.5292883036781082 -0.015971949948224103
Ni 5.764661070626944 8.022564992238008 12.510924581783495 -1.3068189746621557 0.5498445521083756 -0.10760966616087919
Ni 2.165338978999656 6.502232219716585 0.09174412489379591 -0.4833887344779868 1.2496720931375187 0.4127505033351343
Ni 2.7707966954474945 1.8568589367676356 0.21929028023549407 0.29912085623242035 -0.4126664282617602 0.7283081649673393
Ni 8.169402183938526 8.934173157395598 6.878339633902099 -1.8197509700148982 1.0171114413238354 -0.4763531677874441
Ni 8.87203853016883 2.7741636860851493 1.2084966596213833 -0.49617688738159066 -1.565284005046427 0.5857145265321074
Ni 7.040504822981173 0.7508107022753803 4.5284886579615105 -0.49564801146131415 -0.9772097200328912 1.1192698545621564
Ni 0.612400087143694 7.300263600688864 2.3665921993894887 1.3932625482683811 0.38084516998610535 -0.8048637900358913
Ni 7.899879133381638 3.8178488839857567 3.913310348543017 0.5603696200094156 0.018743856266406428 -1.143614601955108
Ni 7.885200874196403 4.314561902812053 12.800341087024105 -1.2420577711253706 -0.661915339364402 -1.2676729005903136
Ni 8.13188298826542 7.513448707900568 8.955169529012517 -0.4405050477405833 -0.9368086905080253 0.7744404405490275
Ni 7.153317209291989 0.6501931920551605 0.4042527259238967 0.24705961676080676 1.1842064073345413 -2.639779897827002
Ni 1.8287309149811763 6.913086977282693 9.031818615879985 0.1372403445431185 0.6199850176792032 -0.7715708323107164
Ni 0.30898782082007786 5.072799094437135 1.1203024348566386 0.613516122125408 0.9851788542812968 1.4253172627110808
Ni 6.54728619443828 1.8331171027848236 6.902899555610115 0.8239519170155938 1.0055569037170167 0.5029306611656564
Ni 3.532746676748693 4.579498566121975 0.20658125557455306 1.3133863434670283 -0.9651723292523828 -0.7035155314036916
Ni 6.083287584645409 5.695510362909279 4.678205081655959 0.7939075481347037 -0.21585310925101533 0.7682746780579478
Ni 5.800633270601668 3.0665822729780885 9.46279978748204 0.3073982657498641 -0.6337782148085536 -0.38985148724977375
P 0.41292318181459176 5.764269771715 12.391895092760125 -0.2204186171345107 -0.3242922132917253 -0.6663990861673684
P 4.231724833151057 6.2737045551668125 12.157978423195166 0.08709277715445 -0.7470221964370748 1.2917785353892655
P 2.5435885272286947 8.660172919288097 1.1874302181993022 -1.9344170288019262 0.8605520847371307 0.40048325593200707
P 6.345985654180026 7.93870872541102 5.603857237762447 0.35963125491265163 -0.05606290443183893 1.2816399042933668
P 4.757712470575555 1.0776463034674355 12.537962426601329 1.110341955944907 1.2117002418794358 -0.29794817608055785
P 4.064621997801737 6.1033075289774095 8.316496904922953 0.27293854141009766 -0.38018928156966136 -0.9519812844834055
P 4.793448071208173 1.1949995771517372 3.6059141132973327 0.5552294705693729 -0.7061108029346936 -0.8086291706155945
P 0.15235723635133283 5.689995778243283 3.655059436642513 0.2185093159269398 -1.5806805421071553 0.33468075561490107
Ni 0.6877087477383881 -0.14219256461549498 4.216977414158132 0.4403037303630546 -0.08365392667623012 1.0437807230849054
Ni 1.8729021921573241 6.453984153876466 4.614355109198925 1.7110228739788598 -0.000337585845076838 -0.08593603784218748
Ni 6.298228986973512 5.749000014174502 8.914428032299428 -0.3687866961596745 2.1544404673805477 2.838052832102409
Ni 8.58837411893379 2.4264627529118026 9.901731606976307 0.29307105049391463 0.9957802839462269 0.8996189688316055
Ni 2.405651110781219 5.0707334001810604 6.889593572609091 1.0772014646371963 0.8215255669622885 0.5090748263901813
Ni 0.4557804226445845 0.1325930013083013 8.81448392020674 1.6617047444700221 0.47952719464005156 0.8251423377792692
Ni 1.4096406803148591 1.3743054785688804 11.372666076855992 0.9075220257287661 0.41211158419955474 -0.9284330648498204
Ni 3.973749650483853 7.136591455800073 1.3656896225263635 2.591611308541575 0.042046535548088876 0.24543570800413855
Ni 5.716804303698768 8.03739795099308 8.059285210132774 0.48446654092319785 -0.06108581156772705 -0.0906856367120309
Ni 5.703036041983171 2.7846741568594484 4.736008120927259 -0.576078288993924 0.9092150971604729 0.20056584407464167
Ni 0.7894664847880621 7.695193402536337 6.354327600984182 0.8288904919677917 -0.9636605205935469 0.3218738336582198
Ni 5.451176042311923 4.300211242715888 7.554424983960823 -1.7421123962948126 -0.5261348671962617 -2.880149504162143
Ni 0.8563986186747538 7.666655881888541 11.645233978946285 -0.21393455207206383 1.0962949909335375 -0.618336940552819
Ni 4.511084956354716 0.22453550565047792 10.170783278843926 1.0083707190167277 1.856982343562531 0.7552317288310606
Ni 7.971459534343231 7.328236922905485 4.245372975200663 0.07511889262202547 0.9087589834596607 0.8639022321562863
Ni 7.575783534570657 6.479218383709482 6.810654022110549 -0.40110263468356083 -0.7541750054317721 -0.6523423509639862
Ni 2.734515096333094 5.476310172423279 2.2285037233620537 -1.2619228854804136 -0.5958708982398189 1.985537758737142
Ni 2.3088091800625206 5.701388946563129 11.129492913029893 0.39310341852816816 -1.856282232171713 0.3023023392841955
Ni 1.6666057657907671 3.524702299117108 3.4903999444991665 -2.5852843378822827 0.6315542105740414 0.43670649993009947
Ni 1.4923503503301057 1.359672719257128 2.4969957467858452 0.5449304026362098 -0.3754923903146243 -1.5936000783823006
Ni 1.0067029007345871 3.442474927760769 8.24436231550235 0.9920802093868204 -0.07551175718506994 -0.4857857739552537
Ni 3.58565392963335 2.887094372067018 6.943854901728567 0.8721765563499365 -0.8799382025732265 -0.009295309258996895
Ni 4.31464380258432 6.8397047813312195 6.1840870943595565 -0.06691527376531058 0.2237093720706405 -0.1082688970114329
Ni 0.5045999668956346 9.454873709521507 13.5617996696917 0.6900869167026116 -0.45287333949794906 0.25753557659146614
P 0.5007706975434049 5.982687364377113 7.677463921835413 -1.0536625009749918 -0.22854150335196124 1.1867980793211172
P 8.651000144794164 1.7978274009123265 7.797212308859796 -0.5418761891909184 0.007779901055734989 0.077753244921079
P 1.9730383137161063 3.4431756258123887 10.310816419463974 -1.5998116065096513 -0.5540233660764137 0.29393596959737117
P 4.141234684770421 6.208785335682956 4.005249212895315 -1.6508886276911245 -0.27112000014412013 -1.208607461886725
P 7.526316072121226 4.476086453672503 10.482815041199938 -2.0683290803027603 -0.9992165633212857 -0.7044570693813544
P 6.371147084215471 8.047653622475883 10.454911788788479 0.22059987990738134 0.6666446265192713 -2.2966697804978256
P 2.745362266171159 8.484297708331484 5.661620237145082 -0.43539935108290173 -0.19064061454112974 -0.6280382270009829
P 7.029721352965983 4.066032493879674 1.5524984530806585 -0.5726543509140396 -1.1470444535722633 -0.18117021315684928
Ni 5.471905784670239 2.884719278671267 0.47474658990674495 -0.3644710995034562 -0.023643607560868956 -0.4822073125753761
Ni 1.6979369786703462 0.925003327910637 6.728917139390345 -0.5228829359178672 1.0889627189381825 0.38717522596919124
Ni 7.023515170223062 0.7436435622045244 9.31141897841563 -1.6127455409625 0.2410270374134817 -1.9380309714054302
Ni 2.847363882542696 1.6278671735083483 8.972524090755952 -1.1041399408992532 0.2708880866389721 1.1314769381513092
Ni 6.7248995005619 1.8954337295055197 2.4338783222918687 -0.5881946126414838 1.3204581627121452 0.09049203264398609
Ni 3.8406625205495395 7.187414814479262 10.180745931141505 1.1790634296810212 -0.6092077245580412 0.2920575216277357
Ni 8.269993304232127 7.262999204307256 0.21803539372486558 0.330935686750172 0.506058922381993 0.38295604568152114
Ni 7.721328529864293 4.166732813869631 8.084963518730971 1.5989765122028656 -0.8890314231237464 -0.22706029082074444
Ni 3.0742717515965157 8.81310709403518 12.434755063582525 0.26574973697114235 -1.1004748333428402 -1.1758446656334074
Ni 0.32395909919053484 5.295329875662005 9.954540580134244 -0.5853530294276306 -0.7524618793954073 -0.2872385029725376
Ni 8.986407012152723 2.151634417106933 5.641682192585351 -0.6468085656299506 0.5673056850076166 -0.17024970958960356
Ni 3.763958833833893 2.7916265375274705 11.461861298837338 0.12580793433646073 -0.44772624807937084 -0.014432373375246112
Ni 1.154695789221544 3.604390777533162 12.525442681414074 0.6119055831051784 0.40894861309054087 -1.1057602501114956
Ni 3.38474468828704 -0.48800434304187673 7.83190778238462 -0.5179590162536887 -0.5513517327815214 0.6929886637304388
Ni 5.48156085782308 7.984809197222796 3.4714474271990508 0.2194739938330543 0.20647372491864438 0.10984395480803663
Ni 3.05544390394974 8.706327990948052 3.3252081038360832 0.5143926390586689 -1.121385101132946 0.02508136844866003
Ni 3.6915412352002335 4.117501950762305 9.406381764359526 0.6949051640268613 1.4274926730958448 -1.1644906740731686
Ni 7.5169430981839715 6.542326708228762 11.318259148141376 0.4748040781327694 -1.1466634160837608 0.1554607242058871
Ni 8.059347089960708 8.988955005067705 2.292327305892467 1.1431332914433152 -0.690163792687134 1.161244142111413
Ni 5.008735272574738 0.2619555115993936 1.28940362464928 -1.6041444295570502 1.244765914085153 0.78760988805145
Ni 6.09126826245412 5.918414243096699 0.34981940728266014 -0.776610708727469 -0.9418333974161265 -0.5004721723228349
Ni 8.235959398867728 9.25904225405577 11.115255092619963 0.34109051579598676 -0.5064371316570181 1.4012507086801802
Ni 0.19472762853507017 4.751624587503688 5.994495491543114 -0.7913138192655984 -0.47797219144810593 -1.5043977110840157
Ni 7.472726321134343 5.928442415212092 2.3832005632078213 -0.33645275991365925 0.7751418374914264 0.4875361809874571
P 8.74018899679322 1.6154912079212942 3.5027868300558564 -0.35077174763949265 1.0711711992827164 -0.6548617749517303
P 1.8857968563020708 3.5248296987628573 1.315074653267721 0.8664100861798045 -0.3415216897961344 0.4263351839981045
P 4.843243132746673 1.3634219088320298 8.185945937936516 0.3900708023494315 -0.21078520780980473 0.12065775759408898
P 8.70703778897437 2.001348334996493 12.332040919192265 -1.614049347375588 -0.47362599866426813 0.799676589407997
P 6.4900200536740655 7.803583201144721 1.41414334779462 -0.4262048290678273 -0.9054108929230341 -0.013156077765983794
P 1.802295488488241 3.1785574616168395 5.827624705548551 0.5343374576117119 -0.022044895615181387 0.08333665254612745
P 7.1023118511188725 4.100639697649943 5.904819790897802 -0.6690372951211638 0.17472779996561522 1.0596624273121684
P 2.158168198938922 8.731298321514874 10.223299232816638 0.792100576832952 0.7652454043133208 -0.6857083280189417
