# total energy = -340866.8467379882 ev
CRYSTAL
PRIMVEC
9.26094919520506 0.00000000000000 0.00000000000000

0.00000000000000 9.26094919520506 0.00000000000000

0.00000000000000 0.00000000000000 13.55433525827226

PRIMCOORD
 96 1
Ni 0.3729819565766166 3.0774412501217747 2.3903075176813204 0.8589983670967657 -0.08448542143858997 0.9964857946536838
Ni 8.471138540868994 6.7479722181825945 -0.09763818894212171 0.935032572444209 1.399664338029667 1.4709096066288991
Ni 7.429207651985353 7.292330820669355 9.883794492973927 0.08320964004995991 -0.9360317031326847 -1.17931719756304
Ni 4.066306899259769 7.380393187988965 6.334280054381216 0.5271923619264984 -0.6604996899637979 1.0926579084015828
Ni 1.9490871819525526 8.018824513920102 13.306101457461535 -1.5817958866585209 -0.5448702388222358 0.08536653849196266
Ni 3.2368499711936463 5.911541795259845 8.547025538085007 0.09295874901692378 -0.09530950863728747 0.061233907109817125
Ni 2.766736399604068 1.3385313135492327 8.16396581643139 -0.6012046517479065 -0.660741887881591 0.3052763343108549
Ni 6.2210056785653505 8.01234184937875 0.0714482241950554 1.4825888427390401 1.0888968986972538 0.5849169703314765
Ni 7.652127963663794 1.054294256258936 5.943033653506804 0.6877808942772542 -0.19124199557055452 1.4416180567536334
Ni 3.0450464493136993 6.305567407032628 1.2023518317188984 1.9431029866116987 1.1500107352894389 0.6135747432774853
Ni 7.68272614029898 2.221173873702485 3.657230392611833 0.17284575245155395 -0.3387572396771198 -0.9077256570991399
Ni 0.5168017216164029 2.0723967224784325 12.866493453013694 -0.2629042971025472 1.3427658250704102 1.2664493125958576
Ni 5.0970598222842485 3.0987506945641368 11.25820365037981 -0.926510651016127 -0.22769278219842076 -0.8336668303105126
Ni 4.406137435466841 3.758871163860773 4.0210699399952725 -1.226781047471958 -1.5931542490941337 0.5245410403465804
Ni 8.557367240218335 5.112710826676944 1.890789505827099 0.5847449635299865 -0.21306191965912338 1.5108534940116882
Ni 7.765713507377645 1.1406989136458274 11.881662799505227 -0.1786525889413181 0.4534379537521675 1.4470965633697013
Ni 2.699742692043856 2.0485405169662534 11.321164214500367 -0.7822681641235625 0.7980202847514966 0.06008231000387717
Ni 6.185814071055149 8.372852085472736 6.276646388323784 0.9964351439214065 -0.5855327495386045 0.9189382379855077
Ni 2.8281735375574053 8.571619841259967 1.7994061620724486 1.1275367225566388 -0.6480956598724902 -0.3532418064465401
Ni 4.716138453834343 0.9740759130343644 6.531630884918692 -0.4860979058790339 0.10000485723042776 -0.015571114965379634
Ni 2.1372418897906527 7.0031484164289415 5.2971833810555555 -1.581839852522579 1.1758235825874848 0.25563296025211457
Ni 3.7575190652564334 6.091945088496356 3.754022130783841 0.40413010865597493 -0.9381199531202812 -0.46411497385003936
Ni 5.1038573591033245 7.276050071721214 10.360595396085376 -0.8627719752065851 -1.4671655662054346 0.3928961876133685
Ni 2.0406779709725265 8.383650352408763 8.33308371679634 -1.2694446477787558 -1.404001789062756 -1.0234857202812953
P 8.948438609150129 0.4578743009355038 3.0611919884014065 -0.043021754977164615 0.22589300998552064 -0.012359292896301294
P 1.4389570482441363 7.282319734427638 10.198485256089631 1.3516775257377431 1.654266285914106 0.2749134057482814
P 2.0877235936440597 4.525835205748252 2.2897613906449346 0.5705349905781917 0.09448032786777276 1.2512270963294645
P 6.106058775297816 1.8318250413488208 5.033239842064496 -2.8232749024622863 1.1999811536702947 -1.7215381716878868
P 3.925484903522891 5.092679393244163 10.522637005055973 1.5958875888648965 -0.12533536557541639 -0.8905062078970599
P 6.508798940404047 6.330886842541284 7.981117632567855 -1.1879962133942767 0.3272602947811138 1.8819498121411462
P 6.990303479687717 0.7245331502744545 8.175242874448541 -0.32751714798692627 -0.8897338485074096 -0.24136899413393273
P 3.7945906454836282 5.098615661774173 6.42964838463893 0.05833910206052533 0.6484954664140702 -0.2511461281253546
Ni 4.154498919870205 2.1309259223375054 13.431235405008337 1.0025615685341185 -0.18350837437172268 0.21387618803030262
Ni 4.959516202615426 0.20568568494778747 2.192251002803771 -0.7532206119383028 -1.1783872295496027 -0.389008165412872
Ni 1.5927814168610994 8.828824187412822 3.646671984263838 -0.419238167942007 -1.3293822046746524 1.417185634742882
Ni 4.174882269378088 4.274002210215375 1.3200770197898697 0.3748606702678963 0.29892750927469164 1.6202176809698292
Ni 5.9311750078708005 5.779147263426727 5.981026698193806 -0.5813040561692376 -0.257641248931395 -0.9171726614446527
Ni 6.183332136630744 0.11680464970609925 10.622573761625473 -1.4499088360075159 -0.7731399765700491 -0.6822249974560315
Ni 6.437258106715543 5.696020982107891 1.187013847414057 -1.7285472560158681 0.2588311554744381 -2.694708688654398
Ni 7.219224886541582 4.044988193868062 7.8268422557178 -0.5975662836643708 -0.08994335922936769 -0.06151210047186826
Ni 1.1596005112585437 6.103391621886517 3.4205992454284293 -0.7540240816762047 0.7718670233948965 -0.7239761132508886
Ni 1.2753808999671095 5.4682108891754 13.907154665742167 -1.0524944488088197 -0.634356713019843 -0.5154146525652801
Ni 0.6182248605557404 1.012258807182934 5.315508947619025 1.8832649314081438 2.407095575951261 -0.0031115490457881896
Ni 6.455437350279366 2.3189324549860886 9.68342088857031 1.1080996968779497 -0.3726338378199066 -1.8695861483694705
Ni 1.7161187402350135 1.220250468517574 2.1179328104067654 -0.07325792815388674 1.014866868264033 -0.9794864318822097
Ni 1.1597209036000262 4.031985820987977 4.721124548961579 -0.10274205365593274 -1.0312201128110754 -0.7455497256566064
Ni 6.164967674080026 5.032122045478581 9.831244162011851 -0.412354039227664 -0.2536488399425503 0.21508717761926827
Ni 2.2041244659587265 3.1498433520993436 0.6535414908820973 -1.0527836979144642 -0.4117775978989037 -0.33097656729043645
Ni 6.000882173589035 4.989003065329238 3.1668751640393467 1.0705448785526273 0.6360251018612014 1.4432579063499016
Ni 4.421186478152125 8.461423805006309 8.44550330698768 1.3201511729946878 0.542911315323652 -0.7753033027699551
Ni 6.726588686145474 -0.40184833568432726 3.9116045926449194 -0.4700081994060228 0.48570504131598924 0.07774193206716934
Ni -0.14503665378369177 9.258430366568287 7.376011832853944 0.5861071339848358 -1.6925548970816593 0.5249750425602056
Ni 8.663562546355042 2.1025966782917926 7.97729563877326 0.6238108191831966 2.0177325983021315 0.4896588837574148
Ni 3.6953595732542026 4.293533552383538 12.554350377062741 -2.89422783663208 1.9670204166592444 -0.41236278097841245
Ni 3.1716528878063244 8.784640198088827 10.364498886234207 -0.26409548919717096 0.7693558269372686 1.0783270936012075
Ni 8.394707925926442 4.34945116452738 13.240335751784443 -1.5985710492343306 -0.9303454513811847 -0.5576393655624461
P 4.763591558277048 6.452103408515242 13.320930089552414 -0.29047937850733846 -0.9731427490523692 -0.3180562596843426
P 7.325170147045981 3.4508890324504344 11.365161132647593 -0.4507056424226689 -0.06214124941543491 0.6921959926258143
P 0.980401141436856 4.167251247117981 12.322964631588228 1.5747582630854493 -1.2020766027467424 -2.005105396456424
P 8.99116862942699 3.832171577924786 6.442118252931689 1.2595050200675406 -0.7948305741696052 1.214016034496806
P 7.757174912081748 6.4985748523273985 4.607728854709296 -0.7092107820162561 0.08691485681568903 -0.7498995179848698
P 2.752622712802608 9.28039733841413 5.942437248369 -0.3838564460086034 -0.08191071873287828 0.2667000166995536
P 7.8905140607480355 8.010999011723754 11.793870851906485 0.645719703441146 1.942560483844667 0.5008498673772278
P 0.5339437388536095 7.285107280180419 6.943601438236875 1.8649113686016203 0.39928177942473814 -0.1493533257565686
Ni 5.225212839317454 3.3331823662781526 6.32416802379164 1.931535336378757 0.9670338079411539 -1.4602307867588142
Ni 8.812710135552885 8.405330234824916 5.0425656180547005 -0.5106964211540044 -2.979251647072643 -0.20839768141423465
Ni 7.733318706569569 4.286717493665773 4.819636971521849 -0.22469616146394208 0.5615299588661039 -0.13621678837461057
Ni 0.9267895056798663 0.29717923399964097 11.603690774446681 0.1084200778773165 -1.5550294171979542 -1.0264260338565419
Ni 6.809529748477415 6.131368949857127 12.135142391831605 -1.8330985949663976 -0.887201054783227 -1.3713269245375543
Ni 9.383471704621643 6.132332088588985 11.360349143368042 -0.3745266839672453 -0.6123568117099841 0.3505786577920801
Ni 7.667593749069594 7.196535560646847 2.246902643172181 1.4249807053072685 2.4170799408574823 1.4513239711874877
Ni 5.64573402716568 2.5023270348609667 1.929879973011458 1.8412754743502355 1.0765324635946296 -0.5093013405786906
Ni 3.0375728631924535 6.733460310559309 11.675216790616231 -0.08182870054203327 -1.0084008009237149 -0.23205902958691646
Ni 3.9233919289709687 8.31667516674724 4.172498501016738 0.822382515645945 1.7293916062940344 -0.2997615751402128
Ni -0.10394674763579272 9.19629865741409 0.5690029147881812 0.1810455146535269 -0.41872369019943373 0.4576666471215344
Ni 0.28086699782372776 6.117421960143873 8.94555011904949 -0.16522320290928966 -0.4565926973310653 -1.2705533074619022
Ni 1.6259356155154479 3.522290951898766 8.259442499796437 -0.9735584964335491 -0.8086096302315686 0.46250649171233893
Ni 5.835676098227325 4.174030262038367 13.116611320727916 1.9347373882558225 -0.5031276076678108 0.709418527151688
Ni 2.8326187932429043 1.7686931496653866 4.586556472317238 0.019895196262030256 -0.7850683525765189 -1.1156533408554916
Ni 8.183539758966539 5.990630302664353 6.836739343747342 1.0047187240864375 -0.43129895576128296 -1.5736249208119544
Ni 1.8397431530386161 4.466898524118008 10.329338765951777 1.3639573715463607 1.0128886614917394 1.2642283936851388
Ni 8.967673600939259 3.796072397378795 9.974350833952087 -1.1879972418355411 -0.629002133576149 -0.46278237108154496
Ni 1.609173297201378 5.231232456391567 6.718396450355074 -0.7811643895364224 0.16371165136076968 0.5534957757077177
Ni 7.125615210564445 0.6682182434037206 1.65129765139109 2.5287180114514642 -0.3798928333751651 0.8924623031821662
Ni 2.95390944681162 3.0811548908090356 6.402472128786643 -0.8114015911544091 0.4254232137067964 -0.3270409796814561
Ni 4.396635701439086 2.951214510552286 8.295971388392028 0.45057734437492075 0.8209329276836119 2.3957654956504224
Ni 8.571934713537688 0.20109132797783713 9.744103259152048 -0.19356678704898922 0.1360488953381786 -0.15860595470308816
Ni 4.165575015286573 8.573972122393542 12.653744442000637 0.5392703761369552 1.2299550743245657 0.15878901724817168
P 4.244080082882359 1.4620908997074218 9.99483142342809 1.2841140768654724 -0.6093625049683505 -1.107573906281467
P 3.764594430555853 2.0155993201468347 2.5950050593340186 -1.5607470364080216 0.04376686067330527 0.7052520544788241
P 5.569720154943644 7.271956732110818 2.7284470045380336 -1.282127899673379 0.2339701305667003 0.503183914827043
P 0.9160255042564168 1.7665260875187059 9.73159264268217 0.3362820386637499 0.28148514542852815 -0.2850224691578252
P 0.6012263880333782 7.174550066902316 1.5371971988936695 0.4606966921971098 1.3092211563457454 0.06713356042370373
P 7.78484662872398 3.0840350460552655 1.400962151367266 -1.14369147793963 0.05084767877948662 -0.04090985084048438
P 5.9680613691110995 1.1152313029476546 13.59350761161762 0.287547292462208 -1.238291876325035 -2.1003765956566087
P 2.5476315990556797 0.8132030358710816 -0.3580245972898462 -2.0024425049122803 -0.5592326781914949 0.2978399326374677
