# total energy = -340857.37320898316 ev
CRYSTAL
PRIMVEC
9.43696014108346 0.00000000000000 0.00000000000000
0.00000000000000 9.43696014108346 0.00000000000000
0.00000000000000 0.00000000000000 13.81194506902370
PRIMCOORD
 96 1
Ni 4.2545496249556045 2.356984575155514 11.287217603562524 0.16721349386644105 -0.8141053632388173 -0.4012880112214895
Ni 6.892887726577166 7.869075183417152 12.44347075112318 2.1292331148769845 -0.8838743044028392 0.4169072058159853
Ni 0.42446408169194694 3.2281575407325307 7.405757249871512 0.3255075737560652 0.39252723430972397 -0.35984439936472223
Ni 7.000204836088533 7.532751364750638 6.696459290852826 -1.079901894287495 0.47800073069319615 -0.45033823178092114
Ni 9.053904389658019 0.8236937322518681 0.08925004952547946 0.2509365832177098 0.5886859504556056 -0.671954468767959
Ni 2.0265494195504745 4.585107461041092 13.457543827717329 0.4099343740425779 0.22251972263791353 0.6755095331090689
Ni 9.074863877894455 1.5598634349685514 5.709775103366559 -0.7248973395135774 0.6117934830073464 -1.6507595583124282
Ni 7.615928730493971 2.831918462807516 1.1027153858934118 -1.3416515089603087 0.45923861959434453 0.055777254870620074
Ni 5.869798578366138 3.2218253405494384 9.545476581546698 0.5397421735670511 0.704923724605128 -0.15406718629247013
Ni 8.645123591847266 7.919808280562168 10.508238075345721 1.012803300866785 -1.7090744920032372 -1.344025151398808
Ni 3.7019306823002998 8.038006204993215 1.2769820646729322 0.8483439727067132 0.107193404559067 0.49837543769480624
Ni 7.338944516523858 2.8160926808298017 7.671030196438917 -0.02731180044107554 -0.4173900589896747 -0.78730572654747
Ni 1.779905032091005 2.8934096943917633 3.847897805328616 -0.9607492604840228 0.29874238984707907 -0.09474977947907554
Ni 6.284184930437332 5.423836158019791 6.046634941363029 -1.9739827069096907 0.37131640456006376 0.5002402588176869
Ni 8.355673153671692 5.361608843552858 7.574194718437775 -0.21485320723159124 -0.7038050376196524 0.48911355277690605
Ni 0.38489396457164154 0.6689181507274284 7.6083650070263875 0.599322347123529 -1.5376639293363132 0.9075443943262693
Ni 8.326890425566726 6.116122109184436 5.325761607166129 0.9106798546314574 -0.416964798526798 1.1415952575322341
Ni 4.035885823998176 3.1817276973632094 3.5286341230123166 0.5326865522718504 -0.7269429091886964 -0.09609729464590547
Ni 9.265009185627882 5.182249981138767 12.252686561195423 1.6176249805419884 0.4889577439253321 -1.450624888237934
Ni 8.586425700433207 3.905457599362527 9.580641525722939 -0.6513288220978073 -0.9649915807001446 0.5324009027106315
Ni 3.8010848213818975 6.035030311608709 3.490485212073194 1.9367785870555678 -1.990053644329624 0.2665426651860829
Ni 2.33624213699987 7.663811865708593 11.128242574822771 0.9346415076533775 0.5516810910964821 1.4430879564309405
Ni 0.8946190927825207 6.767536586440032 1.842830681600484 0.8482403572493133 -4.262052661553646 0.6813770476334394
Ni 6.250863024555814 1.6515718125829961 4.095199948902484 -0.24328549443035521 0.5695667131276514 -0.4304026691992588
P 6.056669260967623 3.299765193473671 5.767481170281004 -0.6927806614846908 -1.7037196554492269 0.2100825253158253
P 0.6898115802436233 7.2073272349238735 13.495236933486789 -1.5649690449091693 0.6007549658049977 -0.07677725416105487
P 8.137169781034848 -0.08685872385275871 11.777003378916689 0.33329210279749055 4.209092564416848 1.4915486230354893
P 6.271964067192766 3.5746732762362137 11.688123258224559 -0.3246110300837248 0.8823853785621385 0.11267242539576725
P 8.784894406916987 3.9454703099084463 5.3975145890917995 1.585378976024089 -0.7737989503102867 0.7781808814280663
P 9.193694078647809 5.908744912428168 9.804741015660191 0.4973606232770467 0.3544869917075508 -0.20988275060019335
P 7.754963462681007 4.758719214794224 1.8435771451392062 0.32294212702173414 1.6924106581943112 1.2418101738909388
P 3.7807387355476987 3.6964949933204765 9.56724387356208 -1.5788781987910936 0.17866724422933747 -0.283052489915648
Ni 7.83435660745054 0.49588960110442337 8.941756500305036 0.47248365752970894 -0.9056865151819241 -0.3070136287169358
Ni 1.2949679668025238 8.046669334304807 9.285079712229077 0.25772892354919485 1.635681323823067 -0.5897262187946618
Ni 0.25335406604393834 3.5357835639343898 1.4087767611215645 1.515579438732448 0.8320642617100831 -0.34687061281287357
Ni 7.7962029780314 6.7081403599834255 3.2156554560789377 -2.5233161237096025 -0.8685016786015106 -1.7489029368540847
Ni 2.6934027634223727 7.817964607870762 3.5612576938512897 -1.3019583041357448 1.2623442892885486 -0.1498192096493936
Ni 2.587359643515652 1.8042806998598988 9.480754134846666 -0.5759721024333629 0.30431114218410815 0.30010533163287667
Ni 1.539224803373286 0.40997174216709587 3.8386571340629168 -4.877082134999787 -0.18540456295317104 0.9291953969371416
Ni 3.066766650223966 0.5928940006901816 2.399411260078237 1.9537825778127322 0.4832704637325677 -2.891713040630026
Ni 3.731373997607674 5.449561311073606 1.3725567648134767 0.44735009568687467 -0.4251051682457453 -1.950661258574931
Ni 5.640036912408237 0.050206514775094455 10.99788512738738 0.5675609955515323 0.8562444585007125 0.7782173910929565
Ni 1.0289211895122972 1.350853644126329 11.325518449558201 -0.37085874819735487 -0.6780983768821677 0.869144197281516
Ni 7.256427737982934 8.975322823451446 4.5944877993153 0.47321847881320445 -0.28687494898553173 -0.11200239591193614
Ni 6.227006389588813 6.551014975410416 1.6656234460742398 -3.305848340127829 -1.8819811795997137 -0.6346940417546036
Ni 3.659171816384365 6.679574681959251 5.639140401204967 -0.5319789846818644 1.156751139337066 1.4407523663192283
Ni 1.3448139897043034 8.322681541391377 5.678974753206237 -0.39275426271886554 -0.8733780328572055 0.13102958774671628
Ni 2.2579436795943293 1.1290662093975088 6.112006650913429 -0.64563974213283 0.7017944349475268 1.3078296753148573
Ni 4.7601536327194545 3.984577072291062 7.398603090469423 -0.39751080356724444 -0.04476599136178097 1.171393314730273
Ni 0.5243439230001914 5.219129620953261 3.5483026351160447 -1.2442954022066377 -1.5134747336846193 0.4272242714712771
Ni 4.95542320975157 6.998647737682854 11.536412801319297 -2.0886737053973836 0.1063505969427975 -1.8107850190708619
Ni 2.6830504182646195 6.901664099409173 13.434492165441263 1.346210331975585 -0.2468590707142265 -0.25438263278478124
Ni 5.673160642129034 4.12549919648498 2.1500499718248594 0.03235939016731201 0.895514716855245 -0.42194451112957654
Ni 4.895715563613827 7.401700300752718 7.823527695811049 0.4731732273975658 -1.096333557480957 -0.714571274997221
Ni 1.3242414168292789 6.709876760629758 7.556349427012695 1.3542905378805579 0.5198721741160015 -1.4372173565827764
Ni 7.333150223062727 1.7898704618873473 10.842404604948369 0.667032091765677 -0.03927977143622913 0.338015733525405
P 5.177286140160666 7.981667553587758 13.439381454435095 -1.9797049541054483 -0.8505286390628577 2.2878161867619373
P 5.989742340403552 5.6661772917035655 8.74207703184884 0.43760407204370444 -0.22800954210789118 -0.47141356439398163
P 3.395248355101882 0.9592292396581428 4.423675991604379 3.1640273181925638 1.2536439333010732 -0.23671426897074072
P 5.5506877748023955 7.486717873702762 4.683382075447483 0.18276121179305296 -1.0635010843319683 0.18450107730229515
P 3.235254134678411 0.3435430930928421 11.715112020226982 -0.3927763742060526 0.048504632468606784 -0.9262576544650564
P 4.991236473082174 2.61101810232193 0.9109941058342376 -0.7039047964223102 -1.9094354191559244 0.36492695609395215
P 2.9930168075550134 8.32354030475451 7.602522585069082 -1.6976117427792763 0.06664607926432393 -0.09622147892859557
P 2.584245446704295 3.209698846905215 6.9002400621399795 -0.018159958738478404 -0.2126675124341821 0.2297712619940043
Ni 8.858625375665872 1.9460049656567429 3.295820544179286 -0.6214271494423684 -0.09788318290173466 -0.2503460008215624
Ni 5.427459950673005 8.77622184064536 2.8985198082503993 0.052309608036993784 -0.06144679445157159 0.08391746475026193
Ni 8.291700001598393 6.079365149850391 0.22310294695761776 -0.7042279840896839 0.7130756642883009 0.6388941958788804
Ni 3.993608243043997 0.8907933491845689 7.7917185346230475 -0.1268823983475621 0.7020379184169007 0.18629596441918886
Ni 4.494229535909676 8.910462597134911 6.004190326216241 0.13490809686551605 0.952028078560941 -1.6639984256002052
Ni 1.3287334098056605 3.835010692705619 10.827598014654372 0.805943139142999 -0.29141011785172394 0.6275468891868611
Ni 8.7757122448035 7.616796930817137 8.023842271677562 -0.5735413815046833 1.4279467299141277 0.87583035105244
Ni 4.0837123374525905 8.592956076777021 9.661027438688091 -1.7965449642120803 0.1341017989141368 -0.09809838423633427
Ni 4.62481818886591 3.812805525744641 13.110975245237455 -1.5939021830037519 0.47564097221176793 -0.16127064601944482
Ni 7.158047429624157 5.714551148839978 11.332051656990028 0.09408772041504442 -0.8684728822461042 -1.338652574232985
Ni 7.0700005925030664 4.121582858070698 4.123997776143504 0.720591513049372 0.5460046095369951 -1.4501268655555928
Ni 0.8388730824672246 8.712843217054228 1.4328513898653605 -0.9068669086432704 3.748566079249015 1.2911905240962793
Ni 6.737083516408975 1.2764337772949326 13.545001798532274 0.7536983229056697 -0.6363236069382268 -1.3490781404416832
Ni 3.5103603936016756 4.456000410810261 5.481947070519711 0.24094939009801086 -0.43112463496694786 -1.1755752140221045
Ni 7.456604534232944 8.243014724780846 1.3153555752608737 1.6136500550546402 2.747178733528656 -0.7917838169234815
Ni 6.461156241962716 7.6832425664194535 9.586152710383036 0.2628312777727667 -0.4146549194466988 -0.08604093885116794
Ni 2.490593055322761 2.4487212636500617 0.8933167922977714 0.249073561867042 0.2724261205500534 -0.21067542170481782
Ni 4.689253751980895 0.6012023003044806 13.41382899774991 -2.9570481143924106 0.5078926331566221 0.3917844426064285
Ni 8.13422544950411 3.20002596286994 12.643924050302198 0.3831195678425789 -0.4366406796891706 0.16321748533317054
Ni 5.750345538250513 5.707379059213823 13.212644334168225 0.7488767331473102 0.20713681242394005 1.3901605123042897
Ni 1.2004945598979955 5.362750715717022 5.75459500135401 0.4642635836127617 -1.1488313702693569 0.28207469938341095
Ni 3.712971925540565 5.927533899856688 9.410133588125126 0.17468923341819595 0.21488997400679766 1.042586188556172
Ni 1.7142143532914427 4.925866650923782 8.760916978861546 -0.461466737593915 -1.577952858763347 0.22731740113687304
Ni 2.0636932942459314 0.04083750085292729 13.679791786095828 1.443935134922584 0.6106061475674646 -1.9981099389751977
P 7.686828611232531 0.10463229438157584 6.662398471000611 1.2360730142968455 0.6945251549796232 0.6332285129526707
P 5.796775381619835 1.0288740047121252 8.8863011483588 -0.24648651786615616 0.24575272502392514 1.0738150646634668
P 0.8442927286149892 2.9705945905132434 12.880204768251874 -0.25183415533131465 -1.3802489096175325 0.6601284226673083
P 2.553329965631552 5.616236899201442 11.652475141694556 0.8777095703530239 -0.26435799882993827 -1.3973377467790193
P 2.026285184669511 4.595535301879121 2.2361405271308166 0.831989956828722 -1.172141248639891 -0.013993486065614609
P 0.03226685374967162 7.2827191086388146 3.993281724226806 4.671255556746839 3.0364085558996092 1.098171124910328
P 0.323268728154905 2.01967931264542 9.2896103967416 -0.5024876600909669 0.16822959383578123 0.6530717729308431
P 7.34125657173229 0.95443526396066 1.838342463408116 0.26218156000390974 -2.2945743314213773 2.025247418621938
