# total energy = -381172.2705323806 ev
CRYSTAL
PRIMVEC
9.22003918584281 0.00000000000000 0.00000000000000
0.00000000000000 9.22003918584281 0.00000000000000
0.00000000000000 0.00000000000000 13.49445932432496
PRIMCOORD
 96 1
Ni 0.1965398872694299 8.454997212658757 0.24809742438238055 -1.0968058691316853 -0.3013662006231713 -1.1951986446799867
Ni 1.7153237499069522 8.81058646386768 5.768570991690277 0.23102056102007312 0.1441437565311711 -0.7970887740761627
Ni 6.230081897052706 6.047580441444819 13.538451064688656 -0.5330796739452109 -0.5190525064281835 0.1851536232846295
Ni 4.839995029360983 7.871442492625696 9.24528365127523 0.22467045043232917 -0.38413026849528037 0.48252304404358193
Ni 2.3287606169353237 6.180902208045307 10.483103415851204 0.3474509107963758 -0.5130435812299423 -0.7777234821756734
Ni 0.9363871795259703 5.176729300438646 8.413161284861404 -0.27598375599432473 0.817280161422373 -0.79811901511289
Ni 4.8563974790693 3.245675073704708 5.744388672918509 1.5206488828355553 -0.8881148248467478 -1.1218131898093002
Ni 3.0166861805311456 6.444982570353133 3.5184914231393645 1.4212312655671653 0.701948701137204 -2.103622613397732
Ni 7.23934426628893 7.872530457249407 8.634780600715205 -0.8329062979954042 -0.12198316127373188 -0.1934210054997443
Ni 6.301472660454337 3.5290714181029927 9.53430790759142 -0.34394469741533024 -0.1041985835968012 2.2966900922127995
Ni 1.8306203399027408 2.9163076139350523 8.258959817524854 0.7318699141766687 2.2780588502648573 1.7980865976675873
Ni 1.2113010878749841 7.99530449902341 3.4578069692381828 -0.7347570059164765 0.3999834334774531 0.6493259327351656
Ni 3.2862340260750775 5.4497254406373905 7.869752459443271 0.3142294297390846 1.3119920342226632 1.5034080934772365
Ni 7.452963354142781 7.128122933612465 4.269620355341434 1.0402392855905505 0.9583709900598334 0.28536802542270207
Ni 6.604728969254935 1.1341754601009122 5.9091295670462785 0.85093693024487 1.444110484158184 0.04726690340676376
Ni 1.5360769681310131 6.4376157590451255 1.265312999418713 1.4476820035595261 2.5901460368499585 0.4519207457766926
Ni 4.674504546047555 4.223072987521063 12.632810871833453 2.203090367177767 0.6517157731235809 1.0222749878026458
Ni 2.6282459297096694 3.463673680170955 12.554353870401213 -2.42634465398886 -1.8030783944552238 0.06495583604609458
Ni 0.22064106969637834 7.805694393204667 9.400577693255082 -0.47001257028139704 -2.4664926869626553 -0.45305691626366484
Ni 0.208668848815968 4.662702895892049 10.637331621301389 0.4360171871725588 1.6432907607392084 1.3572442211922433
Ni 2.588341600121363 4.0582371269897 6.183201685817793 -0.5859132728064748 0.34041791520899434 -0.8237164039660201
Ni -0.12302298283197147 4.287041619379583 5.648038341441902 1.6139686147363237 0.8932146079671585 1.1627883466700812
Ni 9.337963485152693 0.8453448246075848 9.265700506044258 -1.3629597835197818 1.6323892833353564 0.41250110632848963
Ni 6.986908813470483 8.534861192070474 12.976353219844574 -0.5209782626959866 -0.5009090027499373 -0.015612766836592466
P 7.432199825900438 7.729297148526131 1.5464780943344716 0.3059119110123248 -0.2107589825575596 -0.02706471742727597
Ni 0.583955791737565 3.2841687372978643 3.329406859554109 2.0138381483437313 0.503023735100095 -0.9013596056717961
P 5.46724351508697 5.43904863526233 8.3509924046516 0.4181287369279121 0.9393535684170661 0.253002464607803
Ni 8.753385340770208 9.016525259081268 7.25073470269683 -0.5616346027647683 -0.07207444936874684 -0.8273218619290912
P 0.6409605280004166 6.742199753488218 11.768963272591439 -0.9485218651798955 0.6120799038995136 -0.24707298649724543
P 4.705096636060033 0.2904542843936282 10.82702286346495 0.13381743490449854 -1.0470956463907515 -0.18805794141561807
P 3.285081521177079 7.718094800917583 0.6089494739575235 0.5022873711547027 -0.6638115279458503 0.2242397906528138
Ni 6.582351934155393 0.329479022243782 3.5455337980660055 -0.30602966753711164 0.01325712212022233 -0.5171648024871673
Ni 1.2662709614899292 1.986226941210931 5.9600306373693295 -2.8777663486419467 0.9553234614827614 -0.7085726342116249
Ni 8.477844469756683 6.2329954294348475 13.463611084628294 1.5843304801549167 -0.10748805298135038 -1.043559865323351
Ni 2.8889148775194196 2.010549404578295 4.386630028617608 0.7245330141956232 -0.18785071050081842 -0.41762788603209366
Ni 0.18872406005316203 5.774814802225675 3.113212614756168 0.24096558804792692 0.009776105550157357 1.6014041478077516
Ni 5.804346587731993 6.054006808756061 3.1472585314469677 -2.0115503807508195 -0.5832568090202341 -1.1065660338422425
Ni 5.907352865495524 8.275077368022387 6.544192035980697 0.7935234253224076 -1.3041385996165153 0.9609598338329322
Ni 0.6666254290729696 1.9768778214783655 1.2027974457355908 0.3562073168327672 1.881498069315708 1.2048099425175058
Ni 6.852434541971995 3.9612146546565787 7.494742117697193 0.5612275971343367 -0.4431643397403013 -2.845766912917215
Ni 8.000578361436652 2.79781167034242 4.462294280181018 -1.1373274833948153 -3.5550026346341355 1.0753389575071608
Ni 7.803859605407053 5.523513414226858 9.136801592240328 -0.5862022648018034 0.7287861330450223 -0.4131947899614045
Ni 6.75951498707575 3.2886127961845473 -0.26702063280360055 -0.005169717126397549 1.760895847549903 1.903252173163348
Ni 4.045550353072531 1.3980714216250587 2.3659966671837838 1.0203392042325137 3.1061697837541473 -0.46249389330684865
Ni 7.6694959743787745 6.075839861543747 6.612433233997076 -0.9661452346886134 0.5759533333802855 0.6724650898557903
Ni 5.098017825924928 5.553524641770744 6.167899186784127 0.33705876892877434 0.842435320531762 -0.054955016079640845
Ni 4.337650414460501 2.8556489761435855 10.755232872366653 0.06271280564818876 0.4861367295367693 -0.7775769292954802
Ni 9.189825115583535 3.6341522046829207 13.055565342485982 -0.39208423323503444 -0.32421842263099643 -0.911658930715275
Ni 0.30517315494694897 6.8605942766498265 5.582927346728486 0.6175576391846331 0.05006297809466217 -0.16544277511926345
Ni 4.128908727334979 1.1066997433326238 8.853161838807587 0.15228309780885388 -0.1904657795261623 0.11106651436122808
Ni 1.4326465685650194 1.1522006367056117 12.75334352208183 0.004764254157862763 -0.7900953734774652 0.8073644449705579
Ni 7.1000571343364 4.98071126738703 11.428673754404429 -0.5211358713197733 -0.64077701472389 0.8600399209874026
Ni 4.879890138910105 5.330067772107576 10.42832900706696 -0.7344590150600835 0.707225376155111 0.08204621586947806
Ni 1.6648532554137943 0.8375031812816016 7.797800195655335 1.7272627328764898 -2.7831392107836646 0.33570791132783473
Ni 3.5439249012283995 8.767510440800079 3.0770202729433365 -1.422942077610685 -3.1822358707807905 0.8902724946196989
Ni 2.8181326367039325 6.532748123345529 5.761620926153386 0.6293967979114065 -0.02224132789670363 -0.2517441667206697
P 3.914930057952952 2.342544575515388 0.45246696892685434 0.9885886512937944 1.3458598906147017 -0.08722673162915301
Ni 7.568850026646346 2.897046952079698 2.2107431933763397 -0.1746406395684476 0.0480361774726205 -0.9207007292025692
P 1.066122350883886 1.0808559734999013 3.529624620454032 -0.10363782599732474 -0.42083122346073976 -0.35936720261798755
Ni 2.7089304926087614 1.2280999992682131 10.853094368265518 -0.13983587318443658 -1.2038720040842685 -0.31405099517969143
P 8.405540922475838 2.4066238478441146 6.986810159051213 0.21420966011032141 -0.9281633561282017 -0.8876761946474325
P 2.4462331361785337 4.063013107287007 10.383797139812211 -0.06268812305784043 -1.1009697707013877 -0.8391599922146
P 5.880780712567266 2.4208964685009304 3.8500228261055023 -0.5634351463086168 0.3271263403064108 -0.2606106159723641
Ni 7.605822383774143 7.160061149345805 11.052110758059767 0.3132719509218218 0.35470887791036976 0.04383448068644709
Ni 5.823699449979187 1.5203199211655753 12.193417918469496 -0.5201084584965237 -0.49571588858477206 -0.6555521161505355
Ni 7.0257067383567104 0.2754744867314005 10.425603563484174 -1.4464049366193152 0.19512898932978653 -0.30415610466348264
Ni 8.695824636144561 0.2983475599390416 4.873389089281474 0.3433191480161894 -0.2596690779947012 -0.6564831126052372
Ni 9.056300508120998 0.016374789590765295 11.266226806025637 1.2630950514116441 -0.727811942057211 2.574060958362638
Ni 1.8141441298809515 9.220776787124187 1.5539546241087687 1.437354396381273 0.22598556969932695 -0.07766299920011786
Ni 6.6633591984259235 1.4938123085116055 8.359858394330926 0.5654820015353165 -0.6003854982807209 -0.46871981961190246
Ni 3.6482312045168723 8.768321804248272 7.231519219033478 -0.18337853366207774 -0.6532633201163589 -0.46299217309950585
Ni 8.237892949993357 0.6385633178125794 1.9136624668211788 0.08125380187516976 -1.903144186830574 0.9821806908849213
Ni 4.690538194188513 0.12070690898895331 4.8783550023859705 -1.2437927515386062 1.54490775538292 1.1443537941139776
Ni 2.7465482524794385 3.955802491655577 1.6194832865972189 -1.0272714125759725 -0.9021589616446397 -0.5879683555632905
Ni 8.708197928729476 3.1429914973126176 9.033879216833373 -0.38821472297729914 0.07462292682221341 -0.9127030557090734
Ni 4.205969814834763 5.712007895304339 1.3670699618728126 -0.3033721753096066 1.6313171333171002 -0.3436341081534469
Ni 4.423645719929571 3.308740141723196 8.145660288016318 -0.2123019015646473 0.38808076850259615 -0.1403218116819196
Ni 7.657316302616724 2.7219030877406345 11.210778412377042 0.5752640206227447 -0.8900956027222025 -0.61899899961685
Ni 5.306316951169618 3.7478445078606946 1.9929160796389154 1.2879519625543239 -1.1665593836767394 -1.4326917007982811
Ni 2.4392812266338053 8.02971368525806 11.907443651115369 -0.8571967951116527 0.5241659163953488 0.7038536314694006
Ni 4.790335898316016 7.235895971634117 12.247193797010114 -0.4115834796102266 0.8752030018810862 -0.8056091528423481
Ni 3.6840326166683033 0.40020870883592036 13.085630968261055 0.9981523837228293 0.2408475744128239 -0.03200174971757714
Ni 5.968048383443725 1.1495729255381748 0.9638380021884622 0.3466926924741126 0.5654364930093617 0.45489499791366816
Ni 2.3301712829304737 8.392393146599469 9.557707445036469 1.5751143608732874 0.6698417933003302 -1.386919636769489
Ni 6.947557686233215 4.683245143193978 4.672645786148064 -0.947819182685916 0.923403729956029 0.22266987506253264
Ni 0.8101639210932361 2.471892505227576 11.05414838671943 -0.34436507278220047 0.18495976210626855 -1.1668877135504356
Ni 2.8319165952839964 5.702981476943213 12.849195049438583 -0.376453468676313 1.3187949160771093 -0.5904566692027832
Ni 5.298756519038746 8.163800715110819 1.6378634347105019 -0.17273442368467026 -0.54487460969761 -0.428425747978546
P 5.217315912926568 7.324915449955537 4.668826845918055 -0.5443097383330754 -0.1162637422914514 0.9109197385564053
Ni 7.546242490567203 5.327827302585865 1.9063353016816622 -0.003614456824135711 -0.5651865817820847 0.05385406970597821
P 0.5835316699351014 4.693055264885742 1.201233727089986 -0.9024361265654265 -2.281060613205659 0.8505664342793288
Ni 8.122872961173089 1.3728361743784796 13.19578646440785 0.5248369743204445 0.011751226998657181 -0.9136597631953878
P 1.8876001820597956 4.925335712047989 4.2972970689639345 -1.180853174591592 -1.1321747355492824 1.0508101191278614
P 3.3762861487851032 2.03632863413673 6.671714397934455 -0.2457139013661897 -1.6972839271262126 0.6063103484055881
P 1.7589806354431425 7.227690136760367 7.411736870935492 -0.7922373595211324 0.6293350914355355 1.7723120598066444
Ni 3.9219557278111514 4.196703675454854 3.6555141134683056 -0.28073515463638105 0.2411126551487525 1.7291134129319832
