# total energy = -340897.96972590283 ev
CRYSTAL
PRIMVEC
9.01802304732754 0.00000000000000 0.00000000000000
0.00000000000000 9.01802304732754 0.00000000000000
0.00000000000000 0.00000000000000 13.19878828550849
PRIMCOORD
 96 1
Ni 6.536840324493604 1.7510385708867426 11.218389221604202 -0.6700472244429171 0.7441191638576669 1.375510880711915
Ni 4.5568341461123625 0.33361815881118545 5.844462660162534 -0.2913653806567176 -0.6043074590429464 0.8164674357130906
Ni 2.775630287826286 1.7107009533868254 4.723740620167854 -0.6581741271544149 -0.15099266113220447 1.0612017467748305
Ni 3.3010383519398943 4.295257366947911 4.753966328322219 -0.09656832074505305 0.5085996865259758 -0.08606382166930339
Ni 4.9817633964133 4.5994533234664 2.6289611594966074 0.30517374729471963 0.4825459268617174 0.48739734141674773
Ni 7.118304420438084 6.0473059564262 2.4768586722257937 0.6912259154030611 -0.3149318551227479 0.7655935316813589
Ni 4.940902733571332 4.585872180619345 11.452271651709355 0.1124381978977741 -0.282160831339314 -0.5769609487091933
Ni 5.533395871814581 7.799029897071493 12.480061159653923 0.3536786368736425 0.46228409128888776 0.38671268451047597
Ni 1.8155354723755435 6.545245122058979 0.4562217905926236 0.2876825324884917 -0.39080485230197853 -0.9849302286056004
Ni 2.8334538521923647 1.4606131357012229 0.40443218550872595 -0.28515539519126376 -0.14834185377291872 0.6053652108834994
Ni 0.4929260465699123 -0.2040544167712103 4.72368831563365 -0.12945890082548672 0.9158125478723326 0.03992023323370544
Ni 8.664724046305125 2.309434563642134 1.4656460944149952 0.3602640034006441 0.42795137944528877 0.09702057779112323
Ni 6.80592009890955 0.6671596644256909 4.807738094892029 0.05203424288842006 0.27933853139917053 -0.02375647898964941
Ni 0.9917841487605367 7.372197843888266 2.571969056863928 -1.0000197759488711 0.07359268578548615 0.537294483357507
Ni 7.558401985658507 3.8836026467073084 3.7148123076181183 0.1763943890347607 -0.0055988342440161645 0.4138684189896614
Ni 7.530247717419129 3.8797970409427287 12.436017134643953 0.8548437214984439 -0.9562986809118369 0.928044314051834
Ni 7.94076616674424 8.77780103844272 6.98444268857015 0.08443374226504813 0.7106097192463117 -0.47269963019525685
Ni 6.967622271811632 0.9223183165222489 0.44684755553982586 -0.6908631327470037 -1.08135533890457 -0.9280399431764597
Ni 1.914030321097675 6.510119921933297 9.065402930583478 0.045516753484876445 0.0519653373236976 0.4995573738180493
Ni 0.097160181297587 4.734335895553648 1.3745478282713193 -0.1512852526719588 -0.10664087448970666 -0.4910724762754897
Ni 6.10877280214036 1.9901334183661301 6.886639522222764 1.349919405396056 0.15639377754311773 0.9747378614536308
Ni 3.2402208038917295 4.2662283504640675 0.3496990976723194 0.21951615992489934 0.005757728419383632 0.09074117254031469
Ni 6.030370108971507 5.733749291889621 4.810536387472003 -0.9383696072372419 -0.08279106445530257 -0.2955243971304136
Ni 5.258210895733657 2.7576844217800454 9.408162659450479 -0.40688016059728643 0.10229930969155931 -0.5150750098376742
P 0.19688238296891117 5.543703472262245 12.396341440042423 0.4687519584014185 -0.6218770924955935 0.10111994467147746
P 3.927042464166978 6.198592312602951 12.683613272536302 -0.5165670210021684 -0.19932888634374704 -0.5824368842221002
P 2.4387349794064552 8.440977874208 1.4102907629820103 1.139072234000064 0.6704488307567098 -0.33529602060139674
P 6.439869521681933 7.812106030622774 5.768095334816111 -1.010564641344253 -1.191745910244696 0.17410225056647435
P 4.765267714919782 1.055532554328816 12.491557335551283 0.7517291149944408 -0.4047937103819028 0.7001126763697296
P 4.0792666947501655 6.123688612411959 8.299543708310404 -0.44227910892187056 0.7321931018440423 -0.9389601896333895
P 4.6901475821734575 1.1533690873618143 3.8495190282541594 1.1466235639847606 -0.5293448894931271 -1.2698395692243292
P 0.24800826154979197 5.498604338545035 3.3817280157767504 0.15322720688967803 -0.30864962165846194 1.098639065685682
Ni 1.4850700144536875 0.9438353197314602 2.7087481192172684 -0.9569319436204616 1.253275751328377 -0.341420902552212
Ni 1.8102418927930595 6.4776189665410095 4.761950886009325 0.4402566791752031 -0.1751530604284919 -0.07895497853866403
Ni 6.076821946159541 5.764257264168231 9.250832424166095 -0.07518291309074149 -0.13021274827237572 0.16641928009991983
Ni 8.58352576596324 2.354317264804014 10.15261399659432 0.5148299837064035 0.6407302206463545 -0.31837636202792263
Ni 2.4564103047585317 5.178103796191569 6.973461441794015 -0.45749849697478634 0.11225513535269054 0.3905284587121403
Ni 0.6130551328020597 9.123714370001364 8.919319071955508 0.35941451091615517 -0.056765844036134494 0.5772291147689156
Ni 1.3769799891118575 1.0384884905964566 11.34359274945656 0.678077036725929 0.4563610409362334 -0.2798434960600471
Ni 4.0220743920038045 6.7982457612184195 1.7144172807223308 0.7396904386623518 0.7932372615405564 -0.6710059888117604
Ni 5.499569267020887 7.9400266888468565 7.945749526330749 0.20367919289264275 -0.5507398102291354 0.04776055521373065
Ni 5.209044633580841 3.0219936619555585 4.877598916543796 0.37078418620567755 -0.288786821296264 -0.5753792060443703
Ni 0.8040243979988502 7.297366287882383 6.8851344141608966 -0.3552310689624269 -0.3386862772298683 0.18219505487693782
Ni 5.066677102288377 4.434892437229314 7.29237030306348 0.11180930606452356 0.46499172002803785 0.0949868351905461
Ni 8.1058320622771 7.306447437183169 8.949742274816613 0.1485981927580989 -0.3210713923615825 0.7074120382446203
Ni 4.732974174059687 0.25046477105280507 10.416892575491161 -0.47642541578627634 0.20375195511210714 -0.4454297387357103
Ni 8.222155542744668 6.863004185378246 4.734920263453043 -0.307863892532373 0.4913365285701538 -0.03705473876045231
Ni 7.152843449059743 6.0144532981314995 7.040431987029793 0.39406295422796 0.2824971316328102 -0.4390678010734244
Ni 2.46159566806335 5.107718125593122 2.4989663559505977 -0.9515282561063872 -0.30809786292005004 0.6621706499083178
Ni 2.2665899357096264 5.20083823252452 11.411065598581171 0.3349340092762877 0.25126002799539954 0.38191654867341324
Ni 1.0313642523167932 3.3470663420404034 3.841388378592204 0.0022222044622993986 -0.07859219588260657 -0.662387136794498
Ni 3.66923521867455 2.7145241630376793 2.6785882426318177 -0.05279554653447681 -0.5139864047591858 -0.15340744122128416
Ni 1.0793581714615639 3.3891895281218054 8.279929507983482 -0.2907506298908541 0.044338931126691385 -1.3527154800839543
Ni 3.661209178081005 2.631810854808473 7.07857642130235 -0.4720429704478644 -0.2928674191235408 -0.3483022030530775
Ni 4.013913081063177 6.909483076635696 6.026540154544452 0.4285651017698877 -0.11204636177599414 0.2468194757255427
Ni 0.7832324438499996 7.305825193586591 11.208080719354223 0.34832791408469044 -0.02948515394331051 0.0925856819482212
P 0.11853199433426338 5.545056175733069 8.055788346472877 0.36253274483016273 -0.09318629164669757 -0.5166716649008327
P 8.384624247613548 1.7335436059974425 7.978640962124947 0.7118608180445934 0.027122053027772645 -1.1512119546863915
P 1.7450596215457086 3.1278562355821014 10.315288312390766 0.29280057044134733 0.29455483412829275 1.1567164294443886
P 3.910837076586528 6.25124854971049 3.896850122698227 0.1708922282696089 -0.5202997485717233 -0.5636107526545325
P 6.844282769342067 3.9838289558720925 10.386707448440923 -0.311834704254663 0.012010651307630928 0.036343571626040634
P 6.451124014559173 7.803746323173092 10.353525632301654 -0.5223784854776229 -0.41023519311244827 -0.37855328862813514
P 2.3386259045424764 8.466255393066097 5.781029885404112 0.3490100277533796 0.20908030930355606 -0.7067546071662796
P 6.820565368486986 3.9588670678238542 1.6411106724292222 0.3383247801253915 -0.9605582275191393 -0.9039299375021335
Ni 5.05220317515058 2.774962954114014 0.6184280709881653 1.194629402440078 0.25988093689519115 -0.2963540921205606
Ni 1.4980108776578864 1.0970154607673626 6.915333970048159 -0.9820886453917473 1.5637523988932487 -0.5275659432158334
Ni 6.95015436099175 0.6496367436646605 9.08933225498232 -1.4086693697417545 -0.07981732653895932 -0.13842896553458092
Ni 2.8034148171169733 1.6235507777733225 9.143935483285528 -0.19438439785427813 -0.5540976709577747 0.6213379321626719
Ni 6.522131928754199 1.85717168520745 2.642595508680181 -0.6651752410625963 0.7435910592683387 0.23315303398204362
Ni 4.169194421490423 6.882870890353054 10.421868720659159 -0.4067505769979575 -0.14251701956102553 0.18965511069940885
Ni 8.235781775707416 7.104624079336502 0.37787050015566187 0.29559330269513606 0.46992900942865523 0.017846027042485394
Ni 7.55213445957703 3.83680812464 8.293326683158504 -0.04227433528817881 -0.20466315407246685 -0.6908042544846102
Ni 3.051085804601374 8.428614164484687 12.285524364503418 0.3065914535778526 -0.5881154226641162 0.1687353298276062
Ni 0.20159700546588338 4.820683467107796 10.148811998038996 -0.7770477962648875 0.3012746693506295 0.45702952775816774
Ni 8.477482831873921 2.5290865532342375 5.743677233563142 -0.09458702864896613 -1.1219803115147837 1.383245273241695
Ni 3.5224759101134833 2.6020423604272467 11.577660049036059 -0.023585757739740025 0.5818144201467528 -0.8346178813698722
Ni 1.163180696536844 3.269321964560684 12.567847105898712 -0.7044298156878448 0.1588484097311974 0.2736239975128965
Ni 2.9240398946217554 8.46349587798562 7.876363954498396 1.1345139252054204 -0.7367964049440084 0.5753619796531897
Ni 5.501715556527925 7.849557880718271 3.583536944786396 0.5403754362756757 0.25378896506484033 0.1226976708422532
Ni 3.1195776903406696 8.519606017955324 3.609433100031816 0.43440407704916795 -0.9122297156170804 0.3988094677740099
Ni 3.352702606502162 4.388242203532227 9.386556377812193 0.43748400152607236 -0.6704794268843292 -0.29880718164674347
Ni 7.261817240669177 6.084622536174615 11.448906125473949 0.11402405432765524 0.12896884856294563 -0.39689990945612286
Ni 0.6560774157904019 9.182962782023376 0.4217026016218695 -0.7829957863182063 -0.39630315641238845 -0.3879054192669965
Ni 4.849108276041339 0.3461559163810792 1.6190165157391265 -0.7094640356776426 -0.5512956827326054 -0.13031662084009168
Ni 5.909573689027087 5.42226677267497 0.29780127631075604 -0.2974843490702619 0.9270996907503775 0.7100751868990803
Ni 8.198212691311115 8.957611401807542 11.050223831518531 -0.3508882186126989 -0.38851939870191154 0.7172138548263906
Ni 0.057689195821309984 4.76292302890369 5.657264732242394 0.4007236540775873 1.1743436556078484 1.0184939234936587
Ni 7.985522615582176 8.776331100671094 2.492669972195077 0.2416631283355838 -0.03364005665194852 0.3085030687782687
P 8.464902689595275 1.6217020830298654 3.772926252329266 0.5526491114367064 -0.320880359396699 -1.0993440621725066
P 1.8129563177578425 2.9625919435401875 1.6849833549995543 -0.6204853543543895 0.853726320064549 -0.7215963001648025
P 4.67712555676101 0.9230938665121868 8.210227403538957 0.5061265423951349 0.8408921444143581 -0.46634900538688073
P 8.535712207281247 1.7194123637389203 12.349815655064653 -0.4212593121370939 -0.32134135819351756 0.752777096642981
P 6.421950709705108 7.684573147393659 1.3847643466852821 -1.315466880145141 1.1884281587253727 -0.23237424683449012
P 1.8238500897095304 3.296853989203484 6.03826087921797 -0.6998041439903754 -0.8144935998161715 -0.22558807715059215
P 6.762326975056522 4.066650480378964 5.999734080764327 1.0025854797935185 -0.3390305479431645 -0.14617981312459338
P 2.4201398156942204 8.540960696748037 10.116858436651235 0.00034272805139940973 -0.5701192431970117 0.17281618476519917
