# total energy = -340860.3257057664 ev
CRYSTAL
PRIMVEC
9.35136202407812 0.00000000000000 0.00000000000000
0.00000000000000 9.35136202407812 0.00000000000000
0.00000000000000 0.00000000000000 13.68666357239900
PRIMCOORD
 96 1
Ni 2.2454116179959356 7.622977747741095 11.188148943316575 -1.1427080309804385 1.269325348592072 1.4068459433797706
Ni 6.821921383230742 9.078807122298498 2.431408336247179 0.25744815908398244 0.833193747328836 -1.5205738066232457
Ni 2.0572154594218786 2.5144503003400653 3.2490081951244068 1.5588567613638442 -0.26893070580228523 0.43509441824797324
Ni 2.8330418494809115 1.4660691158562145 10.20574816310855 -0.6169038076507182 -0.9124788555134091 -1.0723209966164433
Ni 4.0347292612275245 8.607376913990723 5.942421119281956 -4.5023011689298915 0.07006898890294384 0.8774277774465469
Ni 3.6571119156683203 5.653160116792912 10.377173589221155 0.1432721525594952 -1.2572442490578217 0.46505111251106357
Ni 2.659592788649528 2.6677752303266606 12.16565054501643 0.2397324869717742 1.4277225297184637 -0.3720959630385656
Ni 3.744668717294601 7.129394163052605 7.687018679555391 1.7172811961837458 -0.606034469036382 -0.47664601643751453
Ni 7.704942434941174 1.372667713031982 8.423430014271627 0.5120796746547762 -0.6997226400201626 1.743793126431345
Ni 2.0183792533817266 6.652577570280799 9.013146534600224 -0.2582146049363618 -2.4418615186775363 -0.8197301656247625
Ni 3.431659931218038 8.936526150735553 3.399069499802066 -1.5627692090443732 0.10894535425316722 0.8943759752651114
Ni -0.004561594342977633 6.934119023507588 13.309554956343417 2.648813725894496 -1.4985255685739547 -3.046729478209643
Ni 8.586420511935348 6.098369106286192 11.192487975245935 -0.25958268892848196 -0.7415570595574456 0.0702700491701564
Ni 7.942953298445616 6.2570336639272375 7.724081867376133 -1.6166273925154093 -0.24149369263725506 2.7892928890898867
Ni 8.865222016120537 0.8571280656992173 1.0014410882066664 0.2021473296291486 0.035293790205287605 0.7780752090881373
Ni 4.997704457325941 0.6819592894113478 9.446808462398733 0.28953398387493356 -1.0329730909464403 1.4233855929060069
Ni 3.9970058672554627 0.021438932330279874 11.818379304013185 0.2685206148480601 0.259350775423334 -0.7677961957596325
Ni 6.47006703975211 6.987094488765826 3.5634870152942786 -0.012117094978508162 -0.8836130803216524 -0.07779258279944666
Ni 4.874378696368195 1.5192035542670361 6.193885787175988 -2.8164324256191557 1.408312243512652 0.8938782096930863
Ni 0.8428522765971475 4.423764619687048 4.854481803617982 0.19691513469593183 0.2569246824803446 0.6852743258053166
Ni 2.5176297633917515 5.60327995232911 12.717387444056447 -0.9616272922136019 -0.21561888175302218 0.7241779448490496
Ni 4.610109208601593 5.930858160271928 4.7291258619881145 -0.9849721375871294 -0.26500565971626616 0.21790510668403762
Ni 4.082000395716562 7.778705977740287 9.860666075930009 1.914873045231728 1.8884770717367025 -1.0069962072667045
Ni 6.646976104492682 2.4827024266327893 2.642565828871558 0.7999007896036612 -0.666074355838098 -1.5187159274789006
P 2.104552053444332 8.016043543186726 4.9608404535140265 -0.9763129192502348 0.01654196351908119 0.06804578782532797
P 8.047716605998668 7.995966169151521 0.6500206479209709 0.4972847757337887 4.829449620723489 4.704270063999647
P 7.870414784057593 8.471539030788403 4.1851767771523445 2.495876539441411 -0.10408339817517559 1.0048166831168825
P 1.0924448018354511 5.043329752117635 7.337159916709789 -0.11152571338583374 0.08488625642143445 0.00656556903265966
P 6.635305604820612 0.6691656911730787 11.279056337917618 -1.1300247790858151 -0.6154961286699142 -0.5067268949832952
P 4.3052641614783305 7.207805332724329 11.944624560161332 0.9189942880344238 -1.806179659088367 -0.12105293614997861
P 8.673790286323294 2.9930062464283806 9.626391081511299 0.7103292118914154 -0.5130086142269487 -0.4629991150780413
P 3.44132923943993 4.518157266874454 3.242562301355209 -0.7186966100195042 0.37918835110897275 -0.6267760724591076
Ni 1.0124439006378831 8.297902942718684 7.773655307169066 -0.6699616067076463 0.7795173408513026 -0.2343398552012932
Ni 0.3995219757129369 7.7401409611957215 2.475766521499156 -0.8461600776815168 -0.3942416458976694 -0.5331601494741591
Ni 3.477902415896235 1.326397174268035 0.0739898457574982 -1.3087853543599073 -2.3559144250917554 1.7077280052776715
Ni 5.155050472936728 3.470907597182526 1.125721623216111 0.060353561387392826 -0.3524936154266058 -2.193129399310313
Ni 8.469893191091058 5.991015471482209 1.5950851805402875 -0.9059775640597816 -0.9635504773782437 -1.4441835034879644
Ni 7.65738140823272 4.32002061058292 12.527840948821616 -2.5334848367124883 1.4839895797413087 1.264090325445378
Ni 9.160491268641076 2.617736092710274 2.7844418864635094 -0.6947681242283648 1.239679243590865 -0.21814216239550818
Ni 3.3582143347240936 3.5095100191747597 9.095171070516571 2.076895996036165 0.07589510866641767 -0.3542476220032351
Ni 7.016869225108673 6.940244165563042 13.13806126528882 -3.680095802291759 -2.702382660259888 -2.9181696921596583
Ni 0.657349310255107 2.205069842687191 11.231235343347876 -0.5761070853493303 0.0023263341403314776 -0.2333309543208046
Ni 0.6509314705716598 0.38796930320101686 3.315799362478411 0.4827315605099622 1.3226351157588059 0.9258287944577539
Ni 2.140470634566466 0.7650928968510181 6.278798023652219 0.2795768726622217 -0.18625559809955664 -1.1948543739666906
Ni 5.556429629126327 4.70415585539808 2.9398680674727924 0.7971427672425497 1.3213562490463824 0.458829557081384
Ni 8.916738668919766 9.115567325993137 12.544251653849273 0.20752016390528777 0.8487679476180091 -0.79958274414261
Ni 5.703704227952801 2.9441173263277514 4.496191852868262 -0.6205835704951506 0.6039490472622631 2.1270019115536205
Ni 2.8409998584720437 3.5188707324534 0.6278289309563948 -0.713499639199597 1.0011919418801016 1.0881862457834743
Ni 5.635607610475223 0.09120196250141915 4.671669224099383 2.1911758751283683 1.321325910029079 -3.347988463830989
Ni 2.097762964692791 2.8947982435789523 7.281154610190533 -0.1975327136752727 1.776592175239237 -0.921024431090575
Ni 0.3030009585532855 2.2238567287778883 5.374972061949459 0.8771017615656957 2.0180727552503694 -0.7964804510682024
Ni 0.426670849629568 0.08955144712311748 10.27430486759243 0.12617740186073756 -1.1174153178519206 -0.48306323281776803
Ni 7.138549146369077 4.256393944101534 8.817961168129608 -0.19554833625539222 0.9139878359587679 -0.32041396128324173
Ni 2.485115078007304 6.001900456753274 5.845587766634286 -1.2182853512961211 0.9083964579139194 0.35157470315676226
Ni 4.038170562412879 6.065237231015241 1.3098770583059514 0.26338715027623677 -0.4361411143449327 0.16051037081465258
Ni 3.365424234761887 3.848758726789648 5.378434871267223 -0.1329900539071968 -1.2660232808020326 -0.9637991030539401
P 4.920162964312471 8.02767663741113 2.241711284085488 -0.07786817323238847 -0.5442102366407338 -0.2274415854195631
P 3.395236376552401 9.902718215333321 7.928875758216181 0.5428606645913748 0.020393733165003588 1.0970511523732718
P 1.4703239855283237 6.48433721803703 0.9510942907832198 2.150803641958909 -1.4949681902399994 1.6637395155118635
P 0.4274703910734478 7.2936788892056 10.092148753680387 -1.1498060754778003 1.2810958588644388 -0.8303917591036667
P 1.782977419852051 0.2863835884272682 12.227528506819388 -0.35065450533533804 0.7746993506373689 -1.1846632923663016
P 1.6493558094239915 1.585691737494939 1.190808037292697 -0.8809046802515538 0.7619631340176232 1.2938400459039845
P 5.686207829806612 6.0074832198175585 8.500293533546134 0.22387289423169832 0.3070843340538711 0.5164996580993428
P 0.2670505828006344 4.245677283344969 11.98690300252303 2.1484942770994415 0.6339301670053856 -0.3306983739283853
Ni 1.2924423791484125 4.6844618872014605 2.5092172782114672 -1.1535575721004327 -0.8253711659606237 -1.873633321855651
Ni 6.30825107314513 5.912538842277066 10.825124398028418 -0.9807431871074463 0.014807497326477723 -1.107060714090474
Ni 9.282376919863648 0.22700150511988346 5.898350020840822 -1.7584245031912749 -3.3336897878201297 0.346821504742493
Ni 5.169339353945481 2.03437943362124 12.701087085099408 2.2487248771874304 1.419121418313014 -1.6319419113852927
Ni 1.4448508756671692 4.261976707165818 9.982587262327863 -1.5774460943302575 0.2833275979539056 0.5423922095953885
Ni 6.01601166188561 3.0106803204509878 10.326519131990647 0.6032275957152063 -1.0968819737852593 1.4153609228293171
Ni 4.88911644274895 5.088234992041739 12.683814184503028 0.8108986833760615 0.5425377340343173 1.1233617652433425
Ni 8.698094475944858 3.4879457785947956 7.176820530149459 1.0540360822643269 1.4036778300644341 0.3874853010104424
Ni 6.674871217090268 0.23703458132033592 13.648340771543428 -0.5879809539687809 -0.03552107572474528 -0.8762836365397748
Ni 4.56599883444041 8.193728770966386 0.1104003085164521 1.7429922277966046 0.23147796027246587 0.5033021855724622
Ni 6.6388123655393825 5.178653310414537 5.941941394415628 0.016058853235075568 0.11435315553229983 -0.10891270124301887
Ni 2.3614713707443884 8.479151039388615 0.33643488281414635 -2.019739344319515 -0.03859354400248192 0.38219242804261916
Ni 0.777562002830777 1.5562723529049274 8.434228031876868 -0.283882184905795 -0.29907149105172365 0.28722847567020854
Ni 7.0293065364579155 8.439061750851621 9.465312937359547 -0.3306634069253918 -0.32353116675598476 1.2698377694521163
Ni 7.858996771157275 2.1127157923976316 12.227883858572222 -0.016037513078836895 -0.7261888046314913 0.314570100907955
Ni 7.167444854691752 1.9603353499646252 6.367460156257056 -0.3240685273166935 -0.5644257923566602 -1.1340917500663372
Ni 5.952394346766141 -0.14535289395258885 7.2418321333307105 1.1584197852887406 -1.2613765260586405 0.6734979019956788
Ni 5.559478173111177 2.3209799736449765 8.133094540298352 -0.3220538108795099 2.5262703212419204 -0.5303661316687899
Ni 7.759133577248587 1.2637711035117392 4.135548164324103 0.41456493083605384 -0.5215829861595211 0.7540857881520755
Ni 0.13863394041542315 3.358896984144014 0.26150148463925077 0.3205954811664285 -0.7600962560122135 0.5939227733745126
Ni 8.372975676186138 5.220023735534121 3.6151682520632415 -0.6671375069952898 -0.8952807464675678 1.9031292744322386
Ni 2.3044280630523764 6.505658323207159 3.143648270681069 1.6382591118525724 1.8335778485956615 1.382137127779181
Ni 4.297137827972698 1.3818601017961212 2.2375368361258627 0.8450218503120156 0.39389094742647 0.4729806517707854
Ni 8.986612045161522 6.9050923961180795 6.054569197340643 1.825694846303159 0.9843105927437306 -2.832103042276877
P 4.2441623627144605 3.7345131382530394 11.173230715650826 -0.33027825567183117 -0.980076500057725 -0.2052755908454852
P 4.383525709359388 4.3351978709737615 7.143110740712054 0.49350319720416946 -0.18483557782357846 1.2816789850614183
P 7.074679344477857 2.332080040240127 0.6467149414834094 0.36076922517183674 0.16624675907779754 -1.5820424554516883
P 3.8435219641162828 1.7788721719706093 4.408474207817014 -1.0398960433185187 -0.6379703985130303 -1.2558545677991468
P 8.09237871051294 8.674108232628463 7.655484952036008 1.1429463722434896 -0.5016741630507361 -0.9567722781141458
P 6.3547273418712455 5.406031675419665 0.9781543267616422 -0.6347215525584294 -0.44352172307972004 -0.25114947055946424
P 7.774974784335516 3.4968389237775996 4.959061824477466 1.347672518343408 0.6441240768192519 -0.5258525600691525
P 5.664288237473813 7.584562352987196 5.536337292912054 2.62711978586083 -2.8090672435033364 1.3199861081717332
