# total energy = -340874.017930308 ev
CRYSTAL
PRIMVEC
9.14956901727406 0.00000000000000 0.00000000000000

0.00000000000000 9.14956901727406 0.00000000000000

0.00000000000000 0.00000000000000 13.39131910938932

PRIMCOORD
 96 1
Ni 8.228884635587818 1.9327915927746555 3.712810084007794 -4.447710478168204 -0.8506857334660123 -1.4876695996960572
Ni 7.450594832061136 2.5583842361840508 10.594007096675854 -0.30460090551038504 -1.1046176518666202 3.2886903402913035
Ni 1.3972398597082543 1.9510632824357632 2.661417534768794 0.26696638298706277 -0.46394039594538805 1.3818401653640524
Ni 4.360163147808282 6.145070253856608 4.562971583391228 -1.331974647992177 -0.036376738856821224 0.12169288372682267
Ni 4.070551834416677 2.547166864364062 7.653942177269039 1.543030335854549 0.19577485044390155 -0.1962978128269071
Ni 6.281636723501921 4.686125699569231 11.405052357882438 -0.5132387279598838 -0.9253238297968774 -0.710808208410363
Ni 2.082304702815796 6.485178039576532 2.3743745054472303 -1.2023637949698582 -0.8050666500753166 1.4960773641437783
Ni 3.6071444543687194 6.142105793440885 0.8036386849518694 -0.6581409599236343 0.33711996118401294 -1.3149236060471612
Ni 7.08839998633024 7.831546294619909 1.2431309210658248 1.6152585371923407 2.8290308311094567 -1.5392281884996393
Ni 9.224412660258054 7.627510901809345 12.794923154569634 -0.01595600910862413 0.3650290288894552 0.5966843952800499
Ni 4.277917670410337 7.155594422419961 11.52416785422248 0.5060841191929736 -0.5182387522776364 0.1526199123229823
Ni 6.011056514013723 0.3415406082541895 2.8554707475992536 -1.6182191624825613 1.542506345030279 0.3745775918098388
Ni 8.568800280354871 3.067017936710153 8.851675680912972 1.3954240746960742 1.810835155582507 -2.19993356671634
Ni 0.12720920524049853 4.141964221900374 6.855016435404018 1.6375893394790573 0.5430920638758905 -0.9815685112222191
Ni 7.770161834962239 0.46346959711841107 12.183596519432447 -0.29529274073558176 -0.18484097714021713 0.6807250158717374
Ni 0.6344924293549933 5.39998423689986 0.4373393424848823 -1.2773677592805743 0.7706511487099245 1.236197969910484
Ni 2.7245312630023037 1.33179299133274 9.624903942766883 0.2915996081547107 -0.8646882183926914 -0.16893741853608324
Ni 8.786880261863383 2.011651729574398 6.4950312106311365 0.4863619581736979 -2.0235561469624437 -0.4617385031980628
Ni 0.7637236893852288 6.528556147079441 10.76091628260716 -1.7613005391874894 -1.371916221382121 -0.18565010330507384
Ni 4.597438925465518 8.246689697220525 1.0824086738169616 -1.0498045606814825 0.606238357517072 0.13644381678375211
Ni 2.670210270754935 2.545693783725385 5.5188572696565155 -0.6033813476842511 1.061738593114907 -0.11607193799561946
Ni 0.14658799277290993 6.303751232220447 6.151636899660202 0.3058481476539248 1.1709834808863642 -0.3095605635085056
Ni 5.171254156860789 9.251861367811044 7.742954676035714 0.32645193994720556 0.37359054530622116 0.7556109665473503
Ni 7.114192621860866 2.9444320087784965 13.390797082311405 -0.4288826330103065 -0.15368794857618048 -0.32303262985301145
P 1.7881643526779476 3.519903312196131 10.176653158160304 0.23006462486470702 -0.2842647650561943 -0.7478997139460216
P 5.710099734833548 1.7294515672221005 9.612061607459758 -1.5273707749404213 -0.3441886951053363 -0.8463775930089618
P 6.986400589063326 7.166528157595235 5.326116105047088 0.24367450233865776 0.18604528186096347 0.27075284661268856
P 3.8212352237128626 7.873606864160275 3.0664781121282774 -1.3134249100144477 0.6735166710487562 1.0748782158206585
P 2.262404822640152 7.060978727484802 12.3125953804054 -0.9128210693441764 0.323933544400726 1.1506414268949021
P 8.092720746986615 5.302028949212421 9.63327305369979 -0.6091938406009701 -0.11936012182858798 -0.9973597126182048
P 7.640119008145352 3.7672527655253143 5.635883919351772 -1.332230215646409 0.8699427819234115 -0.11655093451456701
P 0.7165521704984958 1.246125575059856 4.588977403883849 3.0999155753143195 -1.6470240025293958 1.4559748396959378
Ni 6.518162236486042 2.2874563430668484 7.089390884672902 -0.4736357688562811 0.382340009364077 0.749684059539954
Ni 9.13196541321958 4.1467494465837795 11.2566362811865 0.35626028155788964 0.35121114916975643 0.5623367710381154
Ni 2.6013780617812188 5.029188796135693 6.649124595005953 0.7802290222063466 -0.23009599232327468 0.4036907071257112
Ni 9.437414630869261 0.8742742740118173 0.8254741318102735 -2.232802035309587 0.11515251150514363 0.6400162252984654
Ni 1.5915767091834283 3.1400955457853983 0.7197188363931926 -0.09564606604109979 -0.07610876733912053 -0.8988972601742325
Ni 3.7517076474811373 2.45628419365611 2.461298157569123 0.5291003775824887 0.4996710165777782 0.7419514667823867
Ni 1.4214404702008074 9.827826747964632 12.21315145781167 0.5635834989610229 -1.1630189746236486 -0.1352536531303929
Ni 7.023309951152915 0.2788935080490804 5.881721863851705 -0.47452099967471173 -0.05034579944240362 -0.29747072222350707
Ni 0.14343779610274504 -0.41214508877891065 5.854041672198351 0.2885474515919482 0.049746732405824 1.7751410446150075
Ni 7.372393464242665 6.6864502624934286 11.249083311824835 0.981901983302238 1.2474737999346195 0.08146951743040162
Ni 1.9007315023527627 8.308238849123516 1.0796747825446835 0.8846947434216054 0.4075728157889368 -1.2723607929842864
Ni 5.291022017483671 2.420783865220909 11.658496339245305 0.6308893232965329 -0.29967158652956777 0.34754732716492404
Ni 0.31865662076726115 3.428398470783644 4.477413961948556 2.393440961282304 3.135125290446233 0.5647757194969113
Ni 8.408252789877428 3.4876693799597356 2.0748514637582405 1.278745099244075 1.1051257018512903 -1.0726904641407202
Ni 6.21636369694091 3.742631274850282 9.04586339241044 -0.1919001979798437 1.8874527442372462 -0.9352351753733185
Ni 5.860838887145389 7.164661645481631 2.9842820424039287 0.18252672718474372 -1.1466826993574701 1.4685305648737612
Ni 1.893649735804091 3.0220935520150913 7.890995620395095 -1.1974223918041829 -0.575902425537692 1.2574172843005762
Ni 4.150015842782585 3.9052923158093042 0.5589179028493441 0.7212018929398611 -0.6514666332272522 -0.42468684976140414
Ni 7.406814143514115 7.813521643326779 7.679881205906614 -1.5794119598073768 -0.6899614468683408 -1.1606587019215882
Ni 7.4984653780335515 5.775198919580058 1.8476539365575444 0.20808169283571262 -2.017723342330751 -0.8366590801696171
Ni 2.494364700601292 7.436879627853824 7.792074138201791 0.6989639074772672 -0.6557449488876319 0.4853062632156739
Ni 0.9941647388617701 5.504097184648354 8.437133405007767 -1.5847120318640515 0.4733431773165267 0.6499229428892161
Ni 2.243611607535538 8.041355065585787 10.21305014437557 -0.4630428238317832 1.476835742305347 0.6257525162905997
Ni 5.510382938677989 6.435907609518913 9.447562418051602 0.19619676847266854 -0.13946949098395334 -0.7538266209534179
P 2.4033173376480224 7.033978348821844 5.701126752334476 -0.0937971857578191 0.1724351472766966 -0.6475786110267556
P 0.8199130236600377 0.9000165869119304 7.912930797557609 0.5544188017426194 0.3210806483329632 0.5467581998735681
P 9.171985628831843 7.777088058834775 2.1741206295805497 0.37195172415121747 -1.1879831007681538 -0.6291533144420326
P 8.457724510457101 8.604245711374967 10.412407362462186 0.2174703331394642 -1.0708050741925494 -0.492000644516714
P 5.89450015217454 8.559614112893804 12.869164588845127 0.0053985453077519925 0.025377045312207906 -1.3064489929172467
P -0.18886906693061842 2.2256784519342507 12.434937929796753 1.1499408012834518 0.5586904325347798 0.02782267863922305
P 4.173575983432236 3.9665486814983955 4.367512081777136 -0.29235139871907073 -0.5933211352347717 -0.1575158069627029
P 4.066251536900042 8.274385443141492 9.391319101318606 1.7171860653667783 -0.21247853635182762 -0.5099492585753347
Ni 7.46742088979112 0.8981390953153058 8.736564036047994 0.9962885910412133 -1.6335421659928768 -0.004585048267521136
Ni 0.46552825018488536 1.5059275920489128 10.243194315010264 -0.26614902929209 -0.7414367319294972 -0.11387338768240389
Ni 5.092394020061046 7.037281343297386 6.8112137878909556 0.5127275926514202 -2.5028791960114893 2.0272883603113665
Ni 1.5106304706096587 8.246662248512973 4.027238688854976 0.2438871325700961 -0.37197049320429487 -0.7296821624967305
Ni 5.114444481795282 1.4914621231684868 0.32776501689026194 -0.20250959806457383 -0.7416275077840647 1.7605508055056582
Ni 0.2884630424589714 8.033669427470949 8.45764948398979 1.0104093467133115 0.030288623681212355 1.0985359644489145
Ni 5.39493367471011 4.331717137214199 6.290638984622384 -0.49612392265646815 0.35322817959978525 -0.24445097549336606
Ni 7.431856514371627 5.349597559401753 7.464762939943071 -1.024294589335836 0.5727777638657813 0.7587130025114417
Ni 8.843662488221335 5.815310630884162 3.753560435240964 0.6042521803249787 0.6366195409120907 -0.22752591760325333
Ni 6.028632836416821 8.86748796637733 10.68758523046551 -0.22595857311613343 -0.2052982165533045 -0.9393666810431887
Ni 6.482488066236338 5.120757684532469 4.208021366540484 0.796707479477344 -0.3945414365262754 -0.04758134932338902
Ni 2.838882578668063 0.4794044868098406 6.982662075094608 -0.7910397396686053 -0.09777185413485097 -0.07924628452683771
Ni 8.083269242019202 8.867414769823856 3.664052029824498 0.24131757207070698 -2.507819056515268 0.5073778983037326
Ni 3.8532495662888344 0.4531415634231391 11.877497682370679 0.6361156046924786 -2.002262013470358 -0.5040568043502996
Ni 2.138455608900031 5.151619181391216 4.306286824623272 0.11042399568122273 -0.43455551502536777 0.6406155494453613
Ni 5.844424560028701 6.187405310472505 13.293308422652368 0.2841650062535364 -0.08753449267755892 -0.2470364768323552
Ni 4.0192136017234 3.310643515381314 9.94845100826317 -0.4870371298638516 0.676301432882745 -0.8667204183313718
Ni 3.3467934632286025 0.7252433462666912 4.082343799181442 -0.16397467521416922 -0.3554305865677427 -0.2802818691490463
Ni 4.945323844992123 8.41081466924904 5.1558453673974585 -0.10006784925787927 1.169685845120863 -1.4761412873414836
Ni 6.079248253144536 3.1137173378269742 2.561116297542492 -0.8490487120832216 0.5878056047331812 -0.8509883523080957
Ni 2.2457526067246714 4.746549454462548 12.4388219219155 -0.17431205258443527 0.8633296474822679 -1.440865237748009
Ni 2.8691402039606433 5.556597412628041 9.669390063098014 1.219500711760461 -0.08574294799477492 0.7589641992902992
Ni 6.158758009356367 2.443978023103186 4.79142717635477 -1.2940223371181199 -0.31425694054291037 -0.687558750964119
Ni 2.937048306446742 2.4235836333913134 12.232474432972056 -0.1601010511913759 1.410925512765783 -0.15159584193384215
P 1.3435227390270512 4.282153920942682 2.508261066278453 -0.8039893578507379 0.692543091552588 0.07549298813199257
P 7.294841715836283 1.4958081685310436 1.6844677103273409 0.6472808772806788 0.009737796113054196 -0.5901080276141127
P 7.79970579385844 4.99486876212527 12.925261512471174 0.25734582917816323 1.427658766360064 1.515837320379525
P 4.181536108622603 4.420742445377733 11.77356772600587 1.250120493528847 0.6897593581598637 0.6479053982385552
P 5.326403401519476 5.229847997917239 1.9342555238441486 0.4656231829644497 -0.1296717881672412 0.02337904104557264
P 2.78372897562492 1.204504184840338 0.9898232682838054 0.39941779078197015 -0.190703092347949 -1.1283255370065213
P 4.428345737369911 4.864093969773638 8.165959388479505 -0.09475003658939166 0.4268663739112261 0.23688910398570812
P 4.561654960385602 1.3253242459194186 5.8790565943483095 0.681314312716304 -0.1605877610198073 -0.30909545094662894
