# total energy = -340853.4516119615 ev
CRYSTAL
PRIMVEC
9.46734350228973 0.00000000000000 0.00000000000000
0.00000000000000 9.46734350228973 0.00000000000000
0.00000000000000 0.00000000000000 13.85641418934575
PRIMCOORD
 96 1
Ni 3.50710157674029 6.943794521559206 5.02167484601014 0.25859872774865783 0.41127777544434974 -1.0128459811792623
Ni 2.167803860623961 2.999964399634975 11.303119831174673 0.956658635354417 2.0345298723651286 1.6126064442814745
Ni 2.088581132115415 2.413490885901838 9.079345983855005 -0.27090042793414637 0.5782747824246105 -0.30902860226443557
Ni 1.2614477523823695 6.733079862331827 7.564923245343196 0.23511247170125962 -1.3408711791508585 -0.9631169893852509
Ni 0.3391827205048123 8.782134836282427 6.029299338305809 0.27931641991198347 -2.081903990773718 -0.5338970276401838
Ni 2.409751285308999 0.6823322578410157 12.01391281636301 1.2385685270251894 -0.14248076700645138 1.0649113344159338
Ni 0.6177905385459261 5.862671256497855 13.551586403219003 0.6155573209251528 1.7804336604725144 0.13094654111460674
Ni 4.238633724102483 4.477561066283431 5.028617248832239 -1.3832869251129083 -1.328323424392835 0.9622816379681493
Ni 7.726611267431293 5.4397839671790535 9.071489035672734 0.3668668534291423 -1.333058367974659 1.2056519788028268
Ni 8.882233056707959 5.336391111294514 6.696001012403085 0.08043387707703567 -0.08000373151815253 0.033425112427665014
Ni 4.235405360046387 5.486164481873528 12.047236917949677 3.2288782532296776 -0.9734916477513558 -1.2914499484052533
Ni 8.355801434012252 7.511181871253956 11.614944769823468 -0.44699348367840436 -0.5237090313635884 2.974228482826439
Ni 2.409779687338818 9.408664679403667 3.663372385007572 -0.9195882128646808 -0.24646980569560778 -0.569270264933155
Ni 7.224775802558864 4.484150337201446 1.8355872112994296 -1.2890212843591025 -0.6692838639143313 1.5765829749990137
Ni 2.9836616345188522 1.536795964134586 5.13068372992423 0.37445417885809706 1.2269617960241967 0.3414435282600313
Ni 7.608222139802306 2.0745031926684496 3.1920880368771445 1.2355513374654206 -0.2285571870812451 -0.0964546779853242
Ni 8.073627267760195 8.623604173175877 9.71417774029235 0.5738182893151538 0.3418057966954565 -2.5788480953386363
Ni 0.18769292059040085 0.9776546704306283 8.757710984106716 -1.6477590809232074 3.998154375968947 2.9543451136389507
Ni 6.506800890763621 7.003817477910088 7.940473818296948 -1.5070855423288239 0.8703441311268881 -1.2001387622940813
Ni 0.3846411159644961 4.075767017776895 9.923617148380853 1.946492986129854 1.6746888154345156 0.5878331155370069
Ni 3.0998259364786827 9.244292665497673 0.6435985163081508 -0.8766394772172966 1.0363687468915508 -2.009340260473378
Ni 4.1386491117962265 1.8199452667437626 10.45839139396874 2.4943781005190138 1.4178628633155648 0.3764627246476936
Ni 6.338433657996415 4.552816977960586 6.596788935307906 0.38910535311236855 0.9750949876827336 -0.4153501457415105
Ni 9.393621070942856 3.881648611307103 1.5453506555160776 0.842423236346904 -1.0976977848183354 -0.18643300421768536
P 2.9082353106627834 0.358026520555411 9.921913026591712 -1.847947229943456 -2.470146995885791 -1.9610174049982743
P 3.6285297215599135 5.278697121388792 3.0332932348932786 0.2511872657759351 0.9385940645432224 1.6681813533333014
P 1.765006273730487 8.04313295507783 12.718663743074513 -0.7705225935518601 -0.11950693181909741 0.31309300214179625
P 6.57011848257351 0.6031814811413447 10.216652250835706 -0.01114290399069694 1.4396794449700239 -0.05205763992718776
P 7.777081674419708 5.428139134953252 11.428313138413973 1.3217989930107559 -0.9324637832757683 -0.7714006252814393
P 5.830406550623437 0.7384328938738898 4.670359725100966 1.0412780112677098 -1.9916323016706536 0.9990083039652213
P 2.773032181380931 4.586776338280872 13.120305367354353 -1.964356496673836 -1.7719595615632322 -0.32304291426565657
P 2.145328387693836 5.414922723744129 9.006405784342428 -0.39446687453459806 -0.671766778237185 0.9025166020943747
Ni 5.649428816616583 9.40794516131492 0.64381626520343 -0.5290479270779986 0.12171962319970006 0.4584585468952104
Ni 5.107660097818597 3.931124947251852 0.1291942065064734 -0.3056231761273123 -0.4101351771994743 -1.8993564376533676
Ni 5.513686048768167 9.33345610444288 8.454768306916659 1.2295205578903083 1.649800022612636 1.9109312869751607
Ni 8.250552978846201 1.362521109165022 5.637814279889253 -1.2411897666981204 -0.1198234346182517 -0.4128474339243148
Ni 6.020558140261838 2.2187287000894806 6.6063774605748105 -0.29349631095679135 -1.1673137453442606 -0.730638869983045
Ni 0.8399663635396104 5.518353449001762 4.774144528997009 -0.21382605151865752 -1.1073319654739897 1.1306840099363689
Ni 5.5711433550920635 2.5892331790787186 4.119317743567068 -0.40939855614376597 2.7596285292562346 -0.4997669187256942
Ni 7.915664645250026 4.296204638545655 4.542423728515476 0.20370978902026204 -0.2782581538507982 -0.4063422858159454
Ni 0.4826063439506194 0.5118594879298923 13.631663086090775 1.4951525383366637 -0.014787185611503566 -1.0283340495125322
Ni 9.379306447914066 8.05036600533841 1.039322104308032 0.04528355442814782 -0.42868748628036496 0.2058959980383035
Ni 7.899617498402274 0.49638038167852133 12.22541705201936 0.6849562803442655 0.12323965938865226 -0.26568160273736824
Ni 8.075388193608974 2.9736830547091 9.582264512797867 -1.0316672276508234 1.1500652426764582 1.5451651228093648
Ni 3.2831326369306977 5.6224279536019575 6.9298008414673715 0.05507637214885353 -0.6632559125526966 1.3689147155516361
Ni 5.786146720822116 2.3432431988161055 1.5537746975604019 1.0710914950847166 -1.1888631893802624 0.4369885499468926
Ni 7.227947362555321 6.906218636108631 1.6325761292932988 -0.24327932378276812 0.23234133671402568 1.3292117405350592
Ni 7.55837657746991 5.552842980545336 13.691785449546025 -0.018201096389058976 -0.3117313459075792 -2.4471533632040954
Ni 1.1779931214307882 5.83790468649566 2.0254055504546207 1.812410470489427 -1.2711408045342558 -1.580726307743426
Ni 5.470903124517437 3.4467567307181257 8.609738302218227 0.21142258428348748 -0.42876076272046154 -1.6735302763500404
Ni 2.029438638688923 2.5196387386788235 0.48191806809467164 -0.5337592165107388 -1.4633479922315573 -0.6287329390751624
Ni 8.067927927109842 1.0803090735398735 0.8875236690029206 -0.9556093681542962 0.8353344478209226 0.1910327077732258
Ni -0.036933052842338464 3.846638375883513 12.895166263916217 -0.9597071923727537 -1.8168517940902322 -1.006699759072208
Ni 1.0666666318834663 1.2806380571967604 6.705852729812978 0.19832718455211004 1.678488391686264 -0.8293041824664427
Ni 0.3262919859042822 6.688782163157415 10.09779259624605 0.11755829273315882 -0.41142664231738824 -1.7758336998066577
Ni 1.2160423740450146 8.890422308639113 8.161635690826094 3.0761984342030377 -2.766443238185223 0.6922250460915368
P 0.8416297757526783 2.00017508063205 2.3870722644985043 0.1201929021425285 0.27481518960752027 0.08435866605273858
P 8.772790568471967 9.033615875643386 4.249790041415398 -0.998723682845267 -0.1686021466838516 -0.9679205814214814
P 7.431419504178849 8.343266671518785 13.768120638356303 1.3949749029737977 0.8930621415496943 0.10467012391658101
P 5.046605201050958 3.9319959428329696 10.50525379643581 -0.35248513078617355 0.47598164338063825 2.625043620058092
P 2.778466436419638 8.167628519117908 6.691262607094943 -0.12767404101092206 -0.007464940918477466 0.33717806811545803
P 3.8781646289826357 2.7602702026489134 6.709109495898894 0.34438641293843913 2.304827890828585 -0.18972992980140227
P 4.123425623813227 9.107120328815034 2.453139172794876 0.6062638114383687 0.648756947605573 0.1607880499560715
P 4.050839502939061 1.58292086056069 13.39226521694916 0.3512988237875563 -0.09331021881907155 0.44246114302568956
Ni 7.608903788517963 1.4860794062210727 8.243956134053567 -2.0425131476809213 -0.40250645700962295 -0.9668990821355027
Ni 6.10548967676401 7.905231632963169 10.737266191090152 -1.0886958384300411 -0.7760795188143473 -0.012561895825410624
Ni 1.5630962437470073 3.58435509784805 6.765310485770462 0.4735745766010425 1.1230434626719756 0.177264707454856
Ni 7.510320343016112 9.202551149006972 7.01751104322017 -0.2851353405866057 -3.3240476367446754 -0.6401535222072782
Ni 3.0889668937445403 6.632905903160111 13.992622589592166 -0.564331175760325 -0.21693142991685865 -1.9677470104126242
Ni 6.827630219599376 2.968854709639865 11.6726842029769 -0.5720218595363633 0.05178793120556888 -0.5761065711286981
Ni 2.019564199655174 5.775921990087266 11.549473357418968 -0.9898412927539726 0.739472666224591 -1.594328729018209
Ni 2.702093378236268 7.432299967103239 2.105204840168493 0.9411859936401147 0.3988459774389002 2.6429238427726225
Ni 7.730975712680151 6.71289548647377 5.0212317743449635 2.5871123922299573 0.631629543896667 -1.0929481859484917
Ni 3.0466762713440056 4.345160270610389 1.2561403597435203 -0.5779387392414305 0.39277303177194295 1.2316242344968724
Ni 3.2568323573182765 1.0302268276256517 7.669663304175485 0.6474346292497236 -2.0821371898304464 0.0019486390859385799
Ni 5.566239271276645 0.4203831770230899 12.079300916146709 -1.6483465779955613 0.4877984335099083 0.695694492697376
Ni 0.5200184443625722 9.240145969144095 10.884116046066461 0.8310556179399107 -0.36645753380586565 0.20430037141640944
Ni 4.98612781222297 5.8106008684963 1.4023663167981382 1.1745403449996867 0.7629553227275635 -0.1994535848470694
Ni 4.936414792696396 8.856358807542824 6.388777202584972 -0.9875062168628927 0.388554365704905 -1.749834961750051
Ni 0.729440811233185 7.3696829586955515 3.6333041027724926 -0.37198669115421096 3.39559758106852 0.46331510365656337
Ni 3.73125039607207 2.5177358026809484 2.5798008649758186 -0.9852061079748063 -0.9498845498553768 0.34320113438108635
Ni 5.894519399268258 5.427362812804865 3.853399005714769 0.7875288983018695 -0.4547762129476167 -0.017381685811557163
Ni 1.869639351583791 3.899854312421101 3.5091370555439876 0.7204177064756689 -0.7721634715893928 -0.5960449619238379
Ni 3.8188517233772292 7.9158918614885785 8.840558758354497 -0.9903711971155137 -0.7205614311423848 0.22560530354177277
Ni 0.27633849585857334 2.7751907356471768 4.8481791533919445 1.062256927512222 0.6397696565052982 -0.7581990389895007
Ni 3.947124757383239 7.727491730355683 11.98093427280581 -0.695610417624002 2.0196454990541284 -0.6745484547473802
Ni 7.1582677160659705 9.04149270524653 2.6040770265964706 0.19334592928743474 0.7299081624646074 1.4703218524462291
Ni 5.139669185424643 7.374965736241891 3.1243028057767215 0.20563657372932972 1.8253924845713918 0.35903398764828487
P 7.169552789247398 3.2399142148894082 -0.07826747357229917 1.2592687356870185 -0.5048736438246402 1.0844450335734872
P 5.566797844529752 7.060479527399052 13.21282497948984 -0.46018915643307196 -0.4278035410135148 0.539520030253916
P 5.558655929314964 6.0480229030968395 9.71973412405928 -0.3980599912024951 0.15371108850463205 -0.4261847744631692
P 5.894566735984624 7.148222864853307 5.622502745613815 -2.0684967162288763 -1.0623510298879253 0.19698866824634462
P 8.67003202458672 7.125207753356619 7.9312725073699095 -0.038228447353579324 1.5031782368546178 0.48159539002298996
P 0.40303048353799026 1.9705801655606212 11.291411567748943 -1.6989880543015128 -0.5341001447899253 0.05440042912775147
P 8.850186099728822 5.875982341139706 2.835354755412826 -3.2492498749074943 -0.9925018703052713 1.197352457798196
P 8.541493904969064 3.3030045904607457 7.050572899398174 -0.37554509792943064 -1.4081554062198136 -0.20837788391989273
