# total energy = -381181.42691488354 ev
CRYSTAL
PRIMVEC
9.17125959913858 0.00000000000000 0.00000000000000

0.00000000000000 9.17125959913858 0.00000000000000

0.00000000000000 0.00000000000000 13.42306546847449

PRIMCOORD
 96 1
Ni 2.9949940582001235 0.542941321410156 6.918314938677396 -0.6458186909128555 0.12241382105324723 -0.8266142943391054
Ni 8.794375885732455 0.46581286218283574 12.903284541808695 -1.0989676526696945 0.11026124485111333 -0.30930473874395764
Ni 3.9739985098088133 0.89287715243347 11.658469472374918 -0.7996171969249714 0.27415184499190853 0.5508372550389482
Ni 5.885564154265325 6.084727228367027 6.866663321573261 0.8512297788949406 -0.6034415114982253 0.9013027842919316
Ni 6.919825445138279 9.1885933096221 4.100719638353574 0.6823378688848118 -0.5835139193363628 -0.9817356329277027
Ni 4.8321624445468085 3.0562305587424454 10.449212293648438 0.4035824636826211 -1.006059811495364 1.065103652932398
Ni 2.213520196479187 3.163158274756064 7.664033727609011 0.9006067866661716 -0.9618705185726596 0.36285644671816863
Ni 5.016862442213697 0.9221151281304778 2.696962053920739 -0.5130368963617229 1.3632878562831618 0.07694591852843523
Ni 2.4435812442707308 5.395296128281966 13.220860500357317 0.2352381986458465 0.514840525229365 -0.5683786063568211
Ni 5.3507880053028 2.0868100734459807 0.2856746490553732 -0.08341018609654022 -0.380032701387139 -0.3299730657265866
Ni 6.461546772740604 7.700767373800739 8.911103092659578 -0.33358212323408354 -0.786832129345161 0.009784333080273471
Ni 4.141704163383308 3.576754570241624 2.9499200685018536 0.8188526481158156 -0.19428849570636217 1.0532274703201023
Ni 2.376089944661483 0.41044321642513626 2.621041449586548 0.49392588656388486 -0.30896406757508726 -0.36499123367298425
Ni 8.839168317760118 7.413422638366939 4.386242044499108 -0.8360913805916051 1.1437436713338043 -0.2790220286000162
Ni 3.3184001864948507 7.625884038930578 12.08654443543666 -0.010804803924987843 -0.048259606337336246 -1.01241377873785
Ni 1.3514768189181574 8.965080541205607 11.041705930833668 0.7135227791280486 -0.5385404399494661 -0.3927329225626268
Ni 4.022028396485486 3.170586995055492 6.033091202404262 -0.4190463636461751 -0.882492593563964 -0.9272092197450483
Ni 0.5015450068230843 6.603692125729288 12.030234735566994 0.14621992233390949 0.12178647188189348 0.2610358764352408
Ni 1.580914221054935 4.4053320214167115 10.97436320563041 0.8363716308361854 0.7285591046358808 -1.0604098470011545
Ni 5.125000764498333 3.922098351568736 8.123156155892547 0.1515019966684552 0.17323630302175325 -0.06408628895694769
Ni 1.0992855216420208 1.4560658637264001 5.644359108898676 0.9311820883498674 1.7784500543835822 0.36986090306045977
Ni 2.401576875170262 2.088937805679891 10.18339525594161 1.1404783703189714 0.5172465635676963 0.9210557985491428
Ni 1.3019887019604865 5.3229624035886465 7.967354797316395 -0.4734228815145266 -0.405385835439947 -0.09243321553075694
Ni 4.022982207486894 9.140407511531736 0.7048589930328364 0.7576593644359468 -0.17588196817471644 -0.703030364237157
P 3.354287325422828 4.088052294554105 9.435824789690916 -1.5468664217711874 1.0314072891212174 -0.7290558417666412
Ni 1.2531884294749849 6.4677924005479 5.796590096101288 0.7413418582228458 0.35054317656845435 -0.19396145138424659
P 1.605805019687833 7.038703312448384 3.3246118806415206 0.3202612377554614 0.5512704859216248 -0.8530555192497695
Ni 7.087622811309062 0.5988649112494424 1.3127520922609912 -0.42286985115732334 0.3406863383790326 0.6620850321730468
P 5.770666613634172 8.116509744039465 2.30210906173881 0.5433252629326191 -0.9899719047945661 -0.8960618476079665
P 8.031758133808585 0.8052237556559971 5.8424830792844205 0.49498286707348954 0.6206807581946472 -0.12813735380058577
P 3.2143614172643438 1.4430610175725869 4.511183948675858 0.3507681480950669 0.13960601656181762 -0.24833848347323037
Ni 0.7722842595727557 3.5988297921684427 12.83909489566586 -0.6621953324986659 -0.7026210446138802 1.725035386207868
Ni 2.1412598418628987 4.546945441346918 2.0611919939245085 -0.2082742684624929 -0.042231912086017585 -0.9427343119638409
Ni 1.4669704914251904 2.8220332728582567 3.5528707759159817 1.3248071837094602 -0.3019891789191509 -0.04220003040681764
Ni 8.241926719464995 5.289670731135654 5.844872192417755 -0.019220281682192707 0.21492545523042342 -0.839938008031205
Ni 5.810561593019989 4.1837268750030345 12.316951239716214 0.14977652933691624 -0.6975562284964633 0.9660310777082525
Ni 6.278020696306217 1.5773649435785417 7.270388590320212 -0.368117695117108 -0.8985504183577752 0.13690018759488035
Ni 6.118229839791484 6.738032736773758 4.595976829575069 1.3555218391844979 1.1905056100796916 0.5403895773430629
Ni 5.0976337257656255 6.745470628332815 -0.036541966865482535 0.8849598241575339 -0.6076123550464633 0.6111262817369926
Ni 0.5321999421327609 3.210601200816485 9.272948721437013 -1.7949274832133153 0.9081483464588553 -1.4010054254385935
Ni 3.0188393332353245 5.460036050002536 4.068249710763334 -0.43037850082954265 0.5149634239604745 0.858544824499115
Ni 0.17993461116370044 0.7066859079509179 3.4051364573094314 -1.2813637678138448 0.3388284592346874 0.9270153585666874
Ni 6.291869298345891 4.170657830031819 1.5227666007556346 0.12875878943466856 -0.1628981543205388 -0.7345608307452705
Ni 5.642388205204421 1.777261718450557 4.886277461987271 -0.6778196692994842 -0.012617688764010527 -0.5915139068227039
Ni 8.73828446184196 3.7879961932746173 2.21025522805129 -0.10305290002813221 -0.939241211208918 -1.8057027194519482
Ni 2.428035959199706 7.343381728580851 7.644382469602117 -0.14161687634425935 1.0110976310295878 0.6100590168147428
Ni 7.623903046850731 2.71619693674048 13.484677286339076 1.022885367693135 0.1251700436421457 -0.5859618666562232
Ni 8.336335666085132 0.737617815301388 8.804846712850797 -3.346709082897933 -0.16816840158054264 -0.02930080584664631
Ni 3.196780112555697 7.116328853947593 1.3892339776844722 -1.1209606120010178 -0.541265552190113 1.1176297478555721
Ni 1.2510515259814459 0.8718694651274579 8.655367103536863 2.71621159572318 -0.013204928726048224 -0.7667566987515246
Ni 6.061725709217686 8.915629109286453 12.236211138447025 -0.3681392923836628 -1.0009340602330246 1.2238597600601053
Ni 0.7653526215452154 6.477477250716044 1.0465067567294923 -0.22048263760322676 -1.05668637540298 0.7617451044695462
Ni 0.8298843556722093 1.7450430833741488 1.243255038170898 -0.9804739926064597 0.10061832244471057 0.5965823224845468
Ni 4.297331268026509 6.2999308355597154 9.074542276254697 0.4552570092387772 -0.4331779179515507 -0.0639119681626125
Ni 7.7503930596528425 6.2576880137088935 2.2878138193552067 -0.5502227613834008 0.3091232188607708 -0.008222130799476163
Ni 8.914436845534691 5.866552133054567 9.827818183120545 0.12313347282809116 0.2801579419766724 0.026877284006818224
P 6.577820002316095 1.7509585458348045 11.762619213846936 0.2438601359869026 1.2146636953831338 -0.6166484971068025
Ni 3.527092199351004 8.707918421210595 9.550483877571716 -0.2615349275588464 0.04395403698344689 -0.24362513715796105
P 8.156634004916006 4.7712652806107565 7.895191658052175 -0.25467111055947755 -0.7878826820968624 1.3000795990557932
Ni 2.033791021531174 8.658136823944798 4.794423628299752 0.19132761330582532 -0.8483342025147003 0.3809639549521568
P 0.3152042708085809 8.11648223026058 9.216397817439107 0.7289730522448478 -1.4194356071193233 0.06635888704120828
P 1.9182514927259968 1.493218636483169 12.86959208530992 0.6104097152859423 0.3339883575335667 -1.5298894275972168
P 4.227528810990773 4.680277213832207 0.9159914780762457 -0.0971067097470263 -0.05804805318266777 -0.15267596237189834
Ni 0.36232253427813793 5.256186462230455 3.655758552063059 0.903296674793509 0.1084632724104261 1.0911846662901659
Ni 7.260381828939093 5.925128968304501 11.83492909326522 -0.4515489642595707 1.653614768373036 -0.7047149510284315
Ni 4.231160629803827 1.7317997844699833 8.423322312287583 -0.38716776977002354 0.4215231073214417 0.8639384847108604
Ni 1.613600590372418 8.583693709536826 -0.03414826810233352 0.6695345464725566 -0.43833015157645155 1.17515046777986
Ni 3.378526964622073 3.2636844515486936 12.680474291879777 -0.12693870550679429 -0.3568814600816564 -0.7521644027596466
Ni 0.5316148157684356 8.72678370226729 6.673505588276579 -0.6623943358833496 -1.010828179418285 0.9169942268852594
Ni 8.126754041044974 3.9110561549755123 11.08688814139556 0.01401508333216941 -0.38841989700956975 0.6517522827884711
Ni 3.9260786782476886 5.239558968523216 11.354598127089798 0.04941840253212779 0.5968090937833722 -0.7605742240898966
Ni 3.663322089879032 5.381420012463404 6.767963142572751 -1.29227501540971 0.4839412645473472 -0.405179890076728
Ni 3.2325388538488697 2.171800136427214 1.3378767580144268 -0.6447755943603218 0.04480918589489057 0.03373930123397415
Ni 0.0902947195506028 1.8463855022737528 11.000779184739597 -0.40996831260430683 -0.5617569872752455 0.5855330066489206
Ni 5.06786381701014 5.966564719307978 2.7238081651065236 2.416836971608741e-05 -0.23578841472236167 -1.6744998393521613
Ni 7.970732572237728 8.449793318954544 10.783714728968201 0.31048333243309106 -0.35810016298010583 0.5129613059287811
Ni 4.139649801226429 7.758115260260396 6.048044024103259 0.7325839095245577 -0.3870932077783462 0.34349064059704715
Ni 6.851141881777271 2.537155606264637 9.424374472044205 1.1861784434592475 0.9702222329714645 0.39202226964884745
Ni 8.353375866475671 2.5822965461581977 7.202508429302698 1.4062792722430233 0.639469608766376 0.9754001776279781
Ni 1.5291149466707754 4.205031711121024 5.660976514220323 -0.03897046772592643 -0.9949127937396092 0.08327571740120496
Ni 6.477715703466396 3.5514969212235687 6.058956905935715 -0.16948454928880488 1.6403447907370072 -0.09317549301342018
Ni 5.766502861762642 0.4882182494562957 9.929283496899178 0.06862531447788182 0.6822861897112702 0.34104603571129655
Ni 6.639927772523165 5.16600546629925 9.593518179128514 -0.6888229623885234 -0.019121551320799325 -0.5542437096173358
Ni 8.705286269697094 2.9908486488478503 4.951634609480869 -1.2190194012486681 0.23508187557364033 -1.7541541579506952
Ni 6.770985072620481 8.3619143091902 6.510777177302702 -0.37499205363943805 -0.23103521630809243 -0.4989770758345471
Ni 4.118886069426546 8.023403116286635 3.7087124880345006 -0.3108402015518776 -0.07470211679958103 -0.20944874838656832
Ni 7.623875533071844 7.469917597681106 0.2121009700602236 -0.7816492995926408 -0.5375811613599903 -1.2637650808954752
Ni 8.377798930867495 6.9373333797698935 7.632502937004773 0.4273744238958962 0.21254358526180817 0.04551083994760549
P 5.347339611682324 6.97203742620574 11.142164240305044 0.24779366671335387 0.3514692879271495 -0.7287915323616609
Ni 2.0567558556419985 6.547765784512113 9.968988631210676 -0.17136299725844037 0.9929991216566639 0.36017015813525716
P 8.291836714365596 5.0783832518045156 0.10662598157182675 0.24539379902260963 -0.2801214323117821 0.7399524340744869
Ni 7.044747172543844 4.464706756254362 3.7868745482220003 -0.6854347626425807 -0.057897900758048675 0.8482539840960682
P 7.286345664948574 2.3438896521043335 3.056888138057839 -0.508094464754783 -0.7725234260319729 -0.16492418361163208
P 5.010690184483432 4.919271068502324 4.853941434787613 0.13835337510163914 -0.6410531512034121 0.5734506215630898
P 4.991439710522322 8.958596460647959 7.749121923068274 -0.22051503350305893 -0.5561758936430422 0.26809921103992534
Ni 8.960568281468177 8.463596064696073 1.5838811235448917 1.3664312870081499 0.9584213836817946 1.9949870770754996
