# total energy = -381173.5356996866 ev
CRYSTAL
PRIMVEC
9.18807456949471 0.00000000000000 0.00000000000000
0.00000000000000 9.18807456949471 0.00000000000000
0.00000000000000 0.00000000000000 13.44767587726339
PRIMCOORD
 96 1
Ni 5.709864745499871 0.01598633128170279 9.093560714029785 -0.1341827886637173 0.28825640271409064 0.7793324785340062
Ni 6.417732401459953 0.17815952609437413 6.566258548825809 -0.07738069207300867 -0.4688023520233798 0.8452859026066797
Ni 5.879789000183365 3.3623759598477703 5.1548976793007375 0.329887962211948 0.18466665634588195 1.9289968862276201
Ni 4.412637221884439 1.2469871308064482 5.075758034936871 0.20838971099443465 -1.1170700186973601 -0.337168040813129
Ni 8.621225679412275 3.3471237557397027 8.257653561004906 -0.2722155472011441 -0.1155353487658591 1.5096687296749678
Ni 1.8966758973615399 0.0852046925155139 1.4235571199666681 1.2143646760854763 0.2548729421576385 -0.4046206751391483
Ni 2.727479993662551 1.7841862980271601 13.08415842255428 1.2003889306316746 -3.257349621196493 1.6836614512467714
Ni 7.804010745687065 1.0746372243852853 8.803413257483141 0.8551802789022563 -0.5507372391259742 0.7386316583805344
Ni 4.283333445732129 9.015504343680583 0.364357698799681 -0.023324790768869504 -0.19469498711616146 -1.3273101526369722
Ni 7.466560323833455 5.561844861053506 1.0454026081015209 1.2716516827324034 -0.2664382783977347 -1.0191786082655092
Ni 3.20802549188908 4.988536560010681 11.044952515417803 1.5873751805185115 1.4203244374821797 -0.509528368987832
Ni 4.887440173383533 2.0263839488034607 7.2127682415125935 1.5682981092824022 -0.5790638539848092 1.7804840540944755
Ni 2.004185560173888 0.24968409409392317 6.464459274479223 0.7633813545213886 -1.185217622207875 -0.3636213499086512
Ni 8.062783683337434 2.765665632381303 11.191895557501839 1.3251193156332404 0.38797766726582855 -1.238247139130029
Ni 5.8558908177224716 5.315530952782979 10.532368200489568 -0.34015771956907226 0.19938107973792113 -1.515938107623447
Ni 1.2823336544231563 4.545689732540419 0.45509085590063114 0.4016019429174826 -1.3921333197599444 0.6453610345501466
Ni 1.491637997544709 4.0183769337656585 9.757055481725107 -0.7228983068056776 -0.42750632148807016 -0.6401923458650136
Ni 6.517092241956725 4.754176337007984 8.150354305104651 0.18407221729499265 1.3242880779811967 -1.6687436535946742
Ni 6.184428807055104 3.004206429401573 9.381676687246134 0.4546602561950428 -1.9454180078981207 0.6418481363008817
Ni 4.83137454117424 6.977837439067058 11.877000677041845 1.2533891369777899 0.8871295781153432 -1.1571717718142522
Ni 6.563372574542469 0.460705688388848 1.5126345859951644 -0.9888362485282259 -0.24027781795228298 0.8267374501805309
Ni 0.3689342788395776 5.176800211922912 11.610091699188047 2.6253866052198074 -0.5149055741393455 -0.26407466326156454
Ni 6.130568312789145 7.250144410844645 5.133381045818645 1.1516999500664038 -1.5667834724100889 1.353956808690223
Ni 6.2866093865043915 1.312231649704874 11.323885007907638 0.0507746594497061 -0.30864036568708136 -0.6340641214800887
P 1.3920208909545477 7.756627844129653 5.369912410888051 -0.6769907456402857 -1.0091693036586231 -0.9032030866384381
Ni 0.1148325583991732 7.681735846729136 11.361685666293782 0.8450627308522801 -1.7926451149370417 -0.7197592469560636
P 2.075696346061291 2.0702202535020087 5.4659287109782415 -0.24965565962275713 1.1619951613448245 -0.3772086016747826
Ni 1.7651761713406593 6.597249006196954 9.860844893065554 -0.734518150432793 -1.2289718844756898 -0.017601515131847108
P 4.391146315011686 6.511983672387999 9.138153197281403 0.5373852432991003 -1.0321955893504673 -0.27196357909133806
P 3.4947669291207486 5.851554046433912 13.177969584701136 0.02629595758205149 -1.0794025860535732 0.2899631009925522
P 8.877150313885837 4.965180473960858 2.4474366629337627 1.8311633256168978 -0.31956806834317864 1.8493127428324152
Ni 7.414188297679247 2.2173121423972213 0.1616825516202793 -0.346047602690946 0.013809909299898795 0.7198631195237796
Ni 5.853942945872526 3.994359306332834 1.327227506527029 -0.674455895033574 -0.41230647381918023 -0.6893942615109611
Ni 3.267959303573974 7.224592374926251 1.2619324532174014 -0.7168335886688365 -0.6325877940448783 -0.04367558651107962
Ni 1.2063666522752634 6.952634549989691 7.701752986409761 0.5147687914511649 1.7298716312542468 -0.8120322827598724
Ni 2.0934477065051382 3.2799129888418026 11.860446522739734 -1.7418231471891679 1.000157072857684 -1.982794905884682
Ni 4.3183675748068655 6.62067859684489 6.812014740958166 0.22198004808435964 -0.518205585046856 2.4061231847356623
Ni 4.014747644233919 0.47363974123398456 11.428830279053381 0.23863591147348578 -0.24628700026084038 0.23277225360385717
Ni 2.266633727729815 2.2733134580831678 7.850982021495055 0.25802125797863307 -0.018711974587206484 0.8113429700023318
Ni 8.906598093504122 0.5358788408771402 1.8299870131102294 -0.4620017841617785 0.6430372715129765 0.049700966769553115
Ni 4.294754222663652 5.345318691167531 4.91136040722386 -0.08825440156271896 0.620478412375854 -1.1093510527865476
Ni 6.715095253118685 7.197992898484772 7.9967682849663175 -0.030030484923819246 0.07459078803269735 0.17085443305313802
Ni 3.4580605704389837 3.074063361831475 4.06547500500539 -1.0365045011384666 0.9993281491984854 -0.10758652623242762
Ni 7.9454244043781905 8.010659735201852 0.39437054501594754 0.016844839471480667 -0.47114951209931755 -0.5358736917505803
Ni 3.290837609736075 8.247307788820759 9.758279333283658 1.5393276901919812 -0.08750158255709446 0.3516487509278073
Ni 4.1515397013188045 0.4149472384496928 2.5260388049239406 0.7157208152206319 0.027931436302945443 0.7022500344277066
Ni 3.166927233470173 2.4802840302146913 1.8242040388538332 2.455178804611733 -0.023254856762882532 -1.2419834662440095
Ni 8.534839400482124 6.256931905017008 4.544682719546295 -0.8442024397345139 -1.334127946889754 -0.47822801621265376
Ni 2.2480003121086343 5.1397630825496465 2.7762457004719296 0.00727287951232941 -0.7315438982958176 -0.3499592790405263
Ni 1.0611491306318859 6.751764859501395 0.13751883379870902 -0.7222946117834077 0.12662965890680772 0.5915910399175424
Ni 4.174427195555669 4.124186802746686 8.688960166571716 -0.4196256331884128 0.6071600980003931 0.6839301530725963
Ni 1.4508613217425381 9.140021132880904 8.811630152744494 -1.6141871585050331 1.0026744399628988 -0.36647347464546565
Ni 1.5195421806026614 0.37137555030434477 11.170473561189816 0.996016311216433 0.6933416761944833 0.5196896257915501
Ni 7.103282223818531 7.8077778563402624 10.841919952130086 -1.7567417161722132 1.195059033778329 -1.386738373996618
Ni 5.175146358465411 1.8964737597167343 0.03437718172911718 -0.187016130414665 0.3401014124098401 0.01663118079877781
Ni 9.124667859950431 1.6323625506285415 3.9728197026638328 1.9003573681140562 -1.0875416702209397 1.2798745848628281
P 7.151832010870958 2.3553997180238158 7.0066154080350564 -0.5342199581972413 -0.6340227267191919 -0.3432222174270089
Ni 3.8232314138552694 3.710447796128445 6.374561313374311 -2.2527859346306816 0.824663855480954 0.05138041135450506
P 5.6056260373034705 8.810729721417632 3.9402635973529194 0.850836914331896 2.625556040918136 -0.3667508966765684
Ni 2.2224850284892947 0.5262892472460619 3.7936972663342026 -0.9358861786937559 1.0665511840122017 1.0701509855483182
P 8.621280807860858 8.10164005151395 9.149785299932494 -0.26317452004479835 -0.7291306608686345 -0.8639472264616088
P 4.4704853405979295 4.784349974532619 2.81263507057434 -1.30531179398901 -0.9378425310891783 -0.48342472992224483
P 8.389208415474371 4.126235743419034 13.013773175825454 0.390060003716154 -0.1781615082375125 0.659628085992122
Ni 6.362383439082243 3.978923340729489 12.353707397632018 -1.3926596245770595 -0.1677886496436207 0.002704286305040504
Ni 7.997704549784759 2.856039535758985 2.4910745052174104 -1.2378481039193974 0.6289401699899619 -0.7904075054012452
Ni 8.671750902538939 7.872875366042467 6.561296069645829 -0.8804454812269481 0.916073514843203 -0.30789268888777943
Ni 1.1845725389353021 2.7998728347272888 2.400665687155626 -1.7848623856678294 0.5719318709257183 0.1723068492289484
Ni 8.66908636085741 5.462962800444456 7.160093927698654 -0.5313107549702463 0.03978653586931857 -0.3414630686440571
Ni 9.129767241444394 1.1517619239534291 6.612894459904917 -1.5990096794336461 0.7483144328859371 -0.20652309009934108
Ni 2.2861491985283307 7.386366807294169 3.307590226453087 0.371846823142237 0.05301691851666353 1.380041678702733
Ni 8.31916772154919 5.804042511829805 9.778854189102452 -0.19951503421262412 0.426794125912394 -1.4552402755227583
Ni 0.439648458644951 2.295668043983727 13.18888869275055 0.7427500514242821 -0.6159350159795457 0.8877898374071614
Ni 7.613541955831499 6.070836638749057 12.140992441158106 -1.4691985374750633 0.05008406114058472 1.1209719248549275
Ni 3.981018221775657 3.8099730219709675 13.14761861733356 -0.27370807258627056 0.7651831836168177 0.571579372682306
Ni 4.5324313406561165 2.712025651909678 11.03482725702799 -1.5365321297247152 1.197057038044964 -0.5204606996296197
Ni 3.6882402194241086 7.933626916381347 5.025396359541004 0.22815480943650382 0.8390211526438905 1.0666308882102018
Ni 8.36774507282591 0.5171471128559852 12.159940088936215 -1.0440128937003696 0.7731605453953394 -0.673778152240259
Ni 1.332234088465876 5.47886735786076 5.272578540876718 1.7716700553472713 0.6060218706308919 0.021987045794052456
Ni 6.9953774737913355 7.275485121043471 2.521049680327145 1.1665514132569395 1.6151747192292827 0.9996623926094524
Ni 0.3818196348884655 7.370765456345073 2.315904778651208 -1.9389290577396672 -0.9050141717052478 -0.5147438517505005
Ni 5.727818243588524 6.997270217192698 0.58440749535761 -0.9552152180396709 0.19579156261444988 -0.0072955052201487255
Ni 8.390540686315136 8.406794390572468 4.135362258082012 0.2363005784720898 2.315637579849579 0.32288453431092135
Ni 7.044634742600582 1.3226233622628405 4.657737385478655 -0.6700094292264461 -0.18760105638385757 -0.28334405301413784
Ni 8.471901088349435 3.7987176303851946 4.739082167785855 -0.7837750876863921 0.629246131266155 -0.8143023097409718
Ni 4.754203901232276 7.096042020904581 3.021235607168978 -0.9690444106132796 -1.1583940742571275 -0.7222002522973885
Ni 2.0411399968742776 4.959107156541923 7.7925918063704955 0.9545562442994334 -0.6260353376383412 -0.5707008267320947
Ni 3.9420791609262658 8.955864550388133 7.557567285562369 0.3339287079402249 -0.1831659034306394 -0.5341569661697897
Ni 5.591779608634279 2.5665508641729113 3.1021908151061903 -0.36111401010576516 -1.3244215182352677 -1.3952194148844357
P 0.784175535681715 8.789027488825308 13.08596020401548 1.1325395750878688 0.841341573246951 1.3652907456458034
Ni 6.46852407875477 5.201846903729293 3.395255485390372 1.0547937863659576 -0.8358034170375412 1.0155680080961156
P 6.9069606303383635 5.131282489542571 5.794980313690175 0.20559209364463946 1.056256229844097 0.2943218921818802
Ni 2.5829240134021743 7.256373925534568 11.945167003715191 -1.057889908792778 1.883963500137065 -0.8081206064102922
P 6.154475683324803 8.824153498647684 12.605931994398158 -0.12520963863082954 -0.6243931740492279 0.8367187297629589
P 3.9496409464569524 1.4530113312372899 9.173089932763641 0.3419320378606756 -0.12586964081233162 0.6092082387786734
P 0.652665702778594 2.0088898544530025 10.070897145472888 -0.37223634527117183 0.35963562578802577 -0.9364806177446452
Ni 0.7572553954309759 3.5359111279134754 6.425689274205486 1.0029181805425889 -0.8229414734732085 -0.4449769674690078
