# total energy = -381162.4889445234 ev
CRYSTAL
PRIMVEC
9.32888487899696 0.00000000000000 0.00000000000000
0.00000000000000 9.32888487899696 0.00000000000000
0.00000000000000 0.00000000000000 13.65376599855432
PRIMCOORD
 96 1
Ni 6.078617236029562 8.890678889980899 4.821854159754584 -0.14506703967638887 -0.14216374998666484 -0.20101630134849896
Ni 5.636465422209455 8.689100351854796 7.26721695130278 -0.4923408014649521 -1.3821646385830066 -3.102437056184592
Ni 6.663053197549563 1.4596719133429918 11.866843086900985 0.05167891643153035 -0.08725321399171425 -0.310405170896988
Ni 7.341710893384341 2.3510001910761775 6.051840538603453 -1.3604100205147345 2.0424792091191923 -1.1010877843364908
Ni 8.309853206795532 4.384323875358194 6.390972547056084 0.2254932034439407 1.223555341445809 0.5942040520603573
Ni 3.209341532914607 6.664629779044534 4.5772200206004605 0.6324466404813237 -0.5257543439283913 2.5164137401628146
Ni 2.6677251516426064 8.476205876726333 3.2894514635167127 -1.5989402596482916 1.693150364573813 0.3836962662816553
Ni 3.5336508766491455 9.101950139191466 5.811820465765378 -0.6625447454182848 -2.2497479191353063 -0.6609447479210165
Ni 3.6003524014363375 2.220442451300408 8.61835195693436 -0.862910043446346 -0.5987358784924399 0.06519571997104255
Ni 5.256126797653674 4.392216111717629 9.9478057019005 -0.1438470512263587 -1.061994417879455 2.3733043384334285
Ni 4.984161825329057 5.213213928559817 2.8690658032117775 -0.8159370171309174 -0.8420342284386015 -0.12938716704728684
Ni 6.687933332739416 6.285410620639028 7.0690462547158015 0.6326181330621814 2.407759949008137 0.05784570736387457
Ni 7.996262751449874 0.3911731911135205 1.071294588939782 0.3730375010162285 -1.235912320349265 -1.7339527433021558
Ni 3.2302662210401554 4.447489752887436 11.209973933904385 0.09113120888988176 -0.15577234190903494 0.21832162539616595
Ni 1.435034329152366 7.890613133517712 6.427250713432648 0.8517380859899266 -0.8031828027890425 0.179985963040761
Ni 0.6046749766285079 5.032830616212244 8.06406415172971 0.0695488547334157 -0.765157986805837 0.7939538279916069
Ni 7.136148921540176 8.044661004680076 8.865034719143486 1.1449065812936539 -1.963754344313463 1.0484873845319556
Ni 3.932861834721637 3.9971938228240815 4.65107306831099 -2.345876838350095 -0.13071462760945873 0.8228640832680539
Ni 4.61888002049447 7.979106932696915 13.190302090632404 0.6186200190108766 -0.8532411528980144 -0.7362618725967771
Ni 3.9212846889508812 5.62445914774776 0.22783934823462873 0.0029737379163432658 0.0025916719865761817 -0.05844888816551223
Ni 8.296540888491851 6.525536109872919 1.4159912770477372 0.40517577631167 -0.9256542165531026 0.35647162623774736
Ni 8.732852820561359 2.503005036514291 7.999495209958791 -0.03453660032428891 1.61674823436399 0.27954113432827987
Ni 1.41354990795168 2.157062009425697 0.5880443740777208 -1.7147597153134724 0.15910037784100342 -0.2250165209178383
Ni 1.404118405635617 4.4230760619268645 4.498737980358546 2.8654983299078713 0.3165526785556226 -0.6379063780443143
P 6.5410500449388085 7.86730957982283 1.1916763814095563 -0.43286938557219645 0.2732858974471874 0.21890192337966816
Ni 3.430818581861842 9.046620524714145 8.869622664582694 0.5594111127508882 -0.4240646427963729 0.19022692404247882
P 0.4376058483615333 5.892795183968571 5.623644736123435 -0.38009980717964864 0.8483354880662809 1.7415760641753684
Ni 6.934794276644126 4.640914845885708 8.569867877965969 1.0537504327031078 0.11256855282805131 -0.6806872206552665
P 7.096267939936645 4.4000710325387224 2.6995543729602876 0.0026834603694340887 0.9317647003262146 -0.1650789640219415
P 3.013929387499598 4.014069775039471 2.208168437851106 -0.43645684581313865 -0.08622117318277409 0.27863996267024915
P 8.932854777192494 5.398308327623129 12.714645587823039 -0.12724415256235505 1.5178564076920826 -0.9078459847270881
Ni 4.244120068920892 4.393260946791219 7.912589186936061 -0.7197304506006572 1.9974895317823793 -0.751589504092783
Ni 8.957389743652678 3.424764135765774 13.508557921159332 -3.1386674992715364 -2.437031187168429 0.46209100144147514
Ni 6.012708666432147 8.520154252009194 11.119831720818903 -0.5830310661626733 -0.4298491106886339 -0.17569839140900062
Ni 8.25352540166755 2.5025385922850103 2.2508098364035223 0.708824859431747 0.5875891178470009 -0.4396187884808881
Ni 2.8059698923169285 8.359221664022641 0.863233408915129 -1.6264767745056636 -0.9669625883835863 -0.03844339157786283
Ni 8.411080933434109 7.6909003723087315 5.274122216019339 0.009434148829706333 -0.0044788617069600285 1.281030295733826
Ni 0.6308350347835072 0.5713979124231382 2.329059587419255 0.7478655182739765 -1.9910784860497128 -0.8297924349567708
Ni 8.137697970652477 8.503716757369329 2.972452233743467 -0.4392794028635983 -0.7287637644475191 1.3244919664618866
Ni 5.860395967802708 4.5489600305252385 5.991094573735721 -0.4329696585954866 -0.9164581518761312 -0.2891760863148826
Ni 5.73993208114858 2.727999074950305 7.891003080893391 2.2634863517673214 -0.15479532270774632 0.8028192488020367
Ni 7.35790583702498 3.870190388075433 11.992443457407957 -0.7335586147330012 0.649852751772913 -1.0970411250709429
Ni 4.7870984673423935 1.4314893530098298 6.31927633746175 0.6023554775228982 1.7980948251977031 -0.5008272416694084
Ni 5.971978756331324 4.184396549803744 0.9166673940446507 0.5870052203190729 1.0450377354204583 1.0850978366661377
Ni 5.266584477274156 6.574587385024118 9.128006646727565 0.703706050147943 0.11664118023552815 -0.4381784564899357
Ni 1.256880620220756 5.571732292069829 10.835628184806408 -0.5918952014215225 0.03553470257150009 -0.6616104065294736
Ni 6.506206661011513 1.997538083011573 0.586650638720629 -0.7027922800844218 0.8815073468325593 -1.3419844668196954
Ni 4.401479694111152 1.1449993073854001 12.887816739497469 0.443785518264068 -0.2754566798462611 -0.2693135430630007
Ni 5.13908661164247 3.85091691252154 12.633583178104741 0.558379071941948 -0.025230235321698484 -3.269698372569833
Ni 5.910109593759484 3.188332884827788 4.068644682753814 1.486173474766505 -1.0172831910150093 -0.2207009242616199
Ni 1.6095497730955834 1.1072173248136339 9.76705763016563 0.5764135608461557 0.2664241373303476 -0.23580589822385842
Ni 4.588449198976173 7.465383916335922 2.5191607988396703 2.651108949686576 1.1137759213271206 -0.7039436200800457
Ni 4.269513292762953 2.253000258504226 10.837457579073648 0.4878863652380243 -0.4156620205549745 -0.09514932891033935
Ni 0.6313434589934235 2.509805793377209 5.774286631523589 -1.4694409925031726 1.0336518621810198 -1.7579673610491984
Ni 9.06636044449732 1.9869404701223072 10.820404378051133 -0.9217479395201609 -0.6633155621460383 0.3719283271124497
Ni 2.4601574696125326 5.411200846120457 6.614170775209367 -0.42248495701407884 -0.9405625011235027 -1.0812303832909316
P 6.869734635544003 2.4158172811770746 9.931762819078607 0.05362035642861734 1.0544970810611451 -0.6400241957182655
Ni 1.6256327701211946 1.3450292506702919 7.244810836305034 1.1994455928817989 -2.0382746841195414 1.1742580378725778
P 3.423402118616273 0.10304406046739707 11.288332832869768 0.9074217527054759 -0.46961173529855244 -1.0026351020845312
Ni 5.028987115762968 0.23930548027881587 1.283702096292876 3.1822939777122357 -2.2136856261951103 0.13265966715097152
P 5.179163499822299 6.703764449881215 5.473958118504849 1.432641821396952 -0.2706255770062049 -2.0033663022781307
P 4.420305383204935 0.38486499935672336 3.414629235551955 0.34671480396129967 0.361963502590254 0.8359677105295475
P 8.69262667022816 1.3329856606702546 12.88832143215355 0.3942030793502501 -0.6654557484174927 0.006622904633156335
Ni 0.8470692505936229 9.304713445659944 4.7342382086148875 -1.803752537704113 0.35135178851267873 -0.34420515016556846
Ni 8.6454971453016 3.99461905067845 4.080987729949049 -1.5871733489203503 -1.0068206009207885 0.24252830454935648
Ni 8.865640163753094 0.3724846366231454 8.469116857329718 1.2433237823219876 -1.6378443929126567 1.9426090776944158
Ni 8.890772178826756 7.123359020773289 7.748088300595507 0.5665940036525726 0.05457629258398343 0.14868406760368585
Ni 3.245630893952674 1.2205819302981038 1.2669903324461942 -2.329270597251982 1.132422075673398 2.5302714719815134
Ni 2.709910367738786 6.30502926492259 8.76080215877988 -0.6441096786415487 0.5371723559573458 1.1099452347271208
Ni 2.529172557776959 1.4204439536604543 4.62233170779115 1.724164039346508 1.3474154080272795 -0.2514225217151928
Ni 3.512278402063487 3.1399999337896842 0.12490536860534199 -1.4349146765915288 0.7973379139724913 1.1812028446215268
Ni 3.8490511356044155 7.111082208658611 10.763017744522683 -0.38918582864131684 0.3713284887449218 1.6769557570918214
Ni 1.4778352516311966 4.351682108193105 13.109198633821931 2.883285478687963 1.2883317144912456 -0.7046663571786832
Ni 7.556014030085233 7.0942902164044925 13.027986029061804 0.5921857360787479 1.450692765361392 -1.3357647111622286
Ni 9.151869000609125 6.259439005952658 3.5579936680868656 1.2528234942823069 -0.04166061296357987 -0.6480270114180839
Ni 1.2446411236444213 2.5003369755228033 2.988441009034763 1.2951610787082535 2.1869250702718146 0.7213970396698027
Ni 6.752517200725672 6.3948384368283655 3.990394931738081 0.04501693103032247 -0.053060370160089264 -0.07268997146555868
Ni 8.406164611257486 8.784096383590176 10.92514256395928 0.1301528415687178 1.0113051190547035 0.1497706157996453
Ni 0.5128759536406187 4.343080876605162 1.6536623367471521 1.0315517851188816 1.2244125472397815 1.8472316919336702
Ni 1.9369936220508908 6.694687445179405 12.685905160191657 1.464217282210388 -1.4074972038105245 2.0444111360345825
Ni 7.748590194586213 0.33213347923649905 6.618799767740753 -0.34483635599166423 -2.3219408963597883 -0.2528739094497387
Ni 5.988640144201244 0.48979162873349885 8.891386952320948 -0.4591231770624028 4.30447149283949 3.384535666827403
Ni 5.916182697624723 6.145178827547969 12.112446497163555 -2.2356089086307627 -1.527748469994814 -1.432343830540559
Ni 1.572961887750777 0.874623044105714 12.22321953851014 -0.022691270949928663 1.3140489167516918 1.0096601272521126
Ni 4.110782321538607 7.127109232376709 7.102265479836741 -1.95795007892686 -0.6954468954629442 1.1097770845803725
Ni 8.589225313481133 6.553783972398182 10.403882741741564 -1.090672759650754 -0.2815355390504893 -0.024316979478809734
Ni 6.543839381429909 1.1322094066185133 2.798120568826586 -0.8743871908480102 -0.6262253421619602 1.9194992311498298
Ni 0.2944270606298764 8.218299533472246 12.958939222689787 -1.0163123424613079 1.081761316093737 2.1798411668418396
P 1.356279885480551 8.41868397437139 8.575233852379618 -0.1682445062341167 -0.09732011130941305 0.14438261201485458
Ni 2.745602680163373 6.215891772706978 2.5127164053679225 -2.503475949055224 -1.7284516109782684 -2.3820807990744783
P 0.8597248154224768 7.604542887699636 1.998487763462389 0.14088128372981543 0.30108157950321696 -0.18115992874420414
Ni 8.659928929755557 4.062747894807242 9.960121695330436 0.12373536807814817 0.9717152725772232 0.18168854755416453
P 8.064559515501207 1.0194511786321088 4.551851051858322 0.4296899594029503 -0.7865410804673034 -1.2119313840536354
P 1.4733667159146837 3.612909080088584 9.869583937538524 0.4793510740735035 -0.6689527058271575 -0.23525465370607873
P 3.0201797401719643 3.014946235919431 6.674875692984922 -0.06858006306224318 0.16255851159293294 -1.4667259075648547
Ni 1.6194570485255133 8.203830433479947 11.198326821499236 -0.0594063669827751 -0.23756607544807473 -4.083253519732136
