# total energy = -381172.5062720822 ev
CRYSTAL
PRIMVEC
9.22401630552491 0.00000000000000 0.00000000000000
0.00000000000000 9.22401630552491 0.00000000000000
0.00000000000000 0.00000000000000 13.50028024098965
PRIMCOORD
 96 1
Ni 4.508570119138268 0.7663571163951931 12.762557664344724 1.9536159703278806 0.9189845178424109 -1.8624369389191988
Ni 6.026418926969668 5.130868390953875 4.669463716195296 0.12312678795987182 -0.5852378440060049 -0.19145848245673477
Ni 2.5222519623263446 0.37403017865284416 11.48259624152962 0.6430557834557377 -0.854149780755213 -1.1849332581982368
Ni 4.762479620780129 2.7878390688317434 0.9444258321377724 1.1201658840138642 -0.10692395294776423 -0.8014367666322133
Ni 4.161221330555146 2.1335057877814876 10.765555329244146 -0.1550490905897652 0.6202503555254479 0.025020947524369813
Ni 8.136873897567916 8.463385632922972 9.836223677674061 -1.0167273185115393 -0.5048728724936918 -0.9840115734460732
Ni 6.406632886270628 7.2981617511011905 8.224802757064092 -0.2228627077996291 1.5112065064757327 -0.7325908515030932
Ni 2.0875148416127685 7.716267970101528 12.90435109047685 -0.19041307191135595 -1.402935809692087 -1.4526617161623048
Ni 0.6957786318976864 5.350999544246388 11.805077081682965 0.3724178651543586 -1.4501857438179864 0.1055476414255279
Ni 1.3523422801327791 4.082088493174192 4.906636239934403 -0.7220364730260146 1.4570603594506326 0.612976447571854
Ni 4.772718279072804 7.243841518051133 12.11053499942268 -0.8572446176304526 1.186271003173054 1.5158144375613896
Ni 0.9990255528871702 3.0573094862751757 8.37311664044585 0.8501229189840069 -0.5424629149323239 -1.1746295622793836
Ni 3.0818453701116764 9.265524554046944 0.6773628829955911 0.6377971061599597 -0.7142439735647892 1.7088194385696376
Ni 5.032079174454281 5.178252163611057 1.8992738804961697 -1.4963568430574101 1.3000664864296707 -0.354203399028861
Ni 3.0177015595105385 5.583306399292354 11.238240976157627 0.1990578920705475 0.14448339925877698 -0.7618155526961654
Ni 3.722914515463854 3.7730654930650025 9.097595799620706 -0.663811013725218 0.12984379496873122 -0.40924223307155966
Ni 7.551065834946744 4.074229631133328 0.23140013422599254 -0.9461081135320801 -0.19937130954590826 -0.0034900154311294732
Ni 2.6536665251153004 3.3700682130587194 1.8645639064823532 0.12420716550824416 1.4242178589993149 0.0263131839732321
Ni 5.449069287460553 7.22033872406038 5.654997300177335 -0.2657618211560004 -0.6974487563843215 1.3232241554930568
Ni 4.134287202433875 1.2341365089430214 2.819546625481357 -0.03645052951755013 -0.015698127461547157 -0.23010113452959727
Ni 1.0767102196807823 8.275529313293584 5.835104523561969 0.8802367076502517 0.12959208396924135 1.0138960197103315
Ni 8.728871275247094 4.3126704571384185 6.689294569681947 0.09431192061070853 -0.4339939860949429 1.058117965643184
Ni 6.83838142564472 2.06693606084614 2.8676489490223216 -0.6804761330857249 0.4039010233643044 -0.7570790664524446
Ni 5.361478026967541 0.2866593721537023 10.090541803245982 0.602605388750175 -0.8155035291379247 -0.45039531027110175
P 3.012121029540207 7.440838838012089 6.37224021842372 0.21561579642922868 -0.7203436587046239 -0.23200297953800045
Ni 4.745000109550744 4.992554263837962 13.048061267233496 -0.5895138456735396 -0.3162719140904101 0.2918448913962974
P 5.441736194359041 7.424327848513091 0.9599277142338712 0.20350718609115273 -1.9385428780448422 -0.371458843675199
Ni 6.638782933036436 6.239410691506748 12.921658112598061 2.113647858844218 0.37066822945310357 0.26139377399529173
P 7.335989442685208 1.3223088824742657 8.333291026892288 0.7083918856593864 -1.0953943334961393 1.2227742403054103
P 8.70772060545871 7.112583763542334 11.749955281600807 -1.7783688075236856 -0.3828362322742052 1.0449156080202973
P 1.7922725221245313 4.562216998985293 9.611795055103567 -1.0727354584460427 0.890046494651822 0.779146073554813
Ni 9.122598418691089 6.086937699094209 9.777254540318141 -1.519330678244764 -1.735142906955515 -2.523328979225409
Ni 0.7866647110773133 8.780332063188386 1.1525814448344485 0.008011814560882976 0.36932894181638976 0.734559802304006
Ni 8.69964959103881 0.7418046293290288 6.947447118904558 0.9376831226931787 0.03489655476686893 -0.8957617998690443
Ni 1.6764280991536247 7.548667590661973 8.412996675696643 -0.23561203704549744 2.056553942044703 -0.6704025508998067
Ni 5.539658353309527 8.930932580255508 4.142992829187593 0.9199929045022671 1.099714301027732 -1.3102909923711563
Ni 2.94057033370572 3.199340892032483 6.965348167687075 -1.0952367248723525 0.7517931354631568 -2.2793567431406743
Ni 0.49024725188953816 0.5270510776442892 4.268937550203976 -0.7202356723718499 1.1892678810178485 -0.3747148887186514
Ni 0.3966465446598802 2.8701726399312193 3.1501556689567787 -0.25813927161373607 -0.4883761603902493 -0.3414658968575345
Ni 6.05166506007512 0.06475536289375387 6.496186095068912 0.6197304784662359 1.3337070573022516 1.1263966954149247
Ni 4.771860445540175 3.3963843320758382 3.3807136504781576 -0.16167302366418607 0.5622691510249735 0.8339167415377897
Ni 0.9890728391053717 5.931559141490505 6.434692344402446 0.966386147054826 1.2679541792761582 0.22032837141354958
Ni 1.2289710597142844 7.51207591728626 10.665140841040795 2.3850720204923186 2.2788754326288814 0.5855507472607335
Ni 6.954087488368429 1.6596588371931893 0.0032948186866157978 -0.6175468405513558 0.1486033349644215 -1.5283565358924582
Ni 2.5357374744199395 6.7838490402156255 1.4873800365950354 0.4120527059371613 0.0691171665126358 1.569439164865381
Ni 5.522842971266692 0.21773659861433522 1.294319526867695 0.5889600300525987 0.6319180216713634 0.8998711940517278
Ni 6.822580685414673 2.8380730625812105 6.662685126940768 0.7988628352574499 -0.5589675974555665 0.46559155839556593
Ni 8.356691434300114 3.3560569320257705 9.463858433995837 -0.10807914959812999 -0.1620466049535209 -2.152935086479615
Ni 3.762651578459209 5.125675269675698 5.4674379938786 -1.9134548247279626 1.2413977689438687 -0.8212455738280242
Ni 9.117931066352266 6.3294001962845305 0.4006331645824876 -0.020877100559325335 0.4224008819407048 0.1962132235329008
Ni 1.5396636068063336 1.5961053636467648 13.036667762077538 -0.8135003826649668 1.2802160273626466 1.8826388677883705
Ni 3.057051213813739 5.903176842781891 7.976911003773708 1.0894987939473106 -1.5550641270906316 -0.27161673727488056
Ni 4.336957292529962 8.355049559366694 7.965327483878266 -1.2530492371398678 -0.03029428010816718 -0.48137427515111936
Ni 6.393580902951587 6.865084953353994 3.045717664764901 0.7610460215199926 0.35364598386349416 -0.6681003851291913
Ni 5.230976641810094 4.534489605446751 10.63480581804339 0.2174263672754062 -0.7574403064466052 0.653035520376269
Ni 1.435957989522959 6.824702209205047 4.008476229656449 2.339795665153022 0.25679972686670616 -0.48514016995145476
P 7.410943800600775 6.093339166531251 6.063650747089085 0.14304383859877298 -1.0015763218027138 1.214464177777818
Ni 7.296021779277856 5.223182347884588 8.394285758267191 -0.1454226232435947 -1.0165326860022301 -0.39823045534208834
P 1.9833019034230004 1.4301745311900693 1.8014504185220193 -1.500707663826938 -0.6438469118984654 1.2481479431835085
Ni 4.134748403257869 7.023627348610299 3.698361105996042 -1.2027759428066125 -0.9293810305853866 -0.2271705911463636
P 8.77663323257995 2.7220995033795856 12.20236377308655 0.24577303673889928 -0.09101268103414649 2.0596346378525565
P 1.0766087554995036 2.1485778307096237 5.803257684263511 -0.9248440619469814 -0.2843012747210845 0.6383041277033653
P 2.8572036727604972 4.922368722442498 3.575428026360342 0.35766024722920986 0.2360326695226838 -1.782392841081414
Ni 5.077221511106849 4.387551022922144 6.9587327030677 1.6465154383240934 -1.129308983965713 1.4176705447991003
Ni 0.6046822451423178 4.018544243644247 0.3019029817883643 1.2446270745144437 -1.6247662195724597 -0.3654923416791189
Ni 2.6666539403189824 2.1851510560523772 4.398337587793725 0.4132827216895205 -0.29661531620174725 -0.3978339912346181
Ni 8.696974626259642 1.6729414209242273 1.4160848460170414 1.1485917434547253 -0.3387292146526618 -0.3431548545241832
Ni 4.940060386050923 2.1214684462752347 5.542419101441958 -0.34393672699553024 0.04283175045354559 -0.7448547564721109
Ni 3.670863390467849 0.059053998307535445 5.2979420790524285 -0.8376031892504414 -0.21608707963869236 1.7680653687151486
Ni 3.6932408544480566 7.559681066338959 10.177807455957252 -0.47242632192921213 0.6925155807487623 -1.312094107018166
Ni 8.706761307744802 7.6436196163059344 7.719177224899284 -0.3178138046562333 -0.7122603674758573 -0.7979084417639807
Ni 7.4354335643548755 1.247594348987177 4.905097673985558 -0.0685407251838755 -0.1702707926355261 0.03620421783469893
Ni 7.487005040493926 1.7798938920085223 10.795216076636873 -1.0094531534476294 -1.912837759969254 0.31432610321794896
Ni 0.5839568025136587 0.6240037924627381 9.541269147499996 0.33457199795117865 0.30727562412907083 -0.8096936073243668
Ni 7.972861660539038 7.989584802417074 5.382926632488223 -0.3364399043978529 0.981678297327206 -0.7265736987747358
Ni 0.0895283039537876 9.141415412310058 12.23448087606787 -0.4631952902492474 0.49524357693404386 -0.3280655642912286
Ni 1.887113859570734 0.9001542426409046 7.416190421174534 -0.730288942842794 -0.6642344744158819 -0.9054648860894213
Ni 7.577547986260501 4.308593441854308 11.246624684736195 -0.800852354883653 1.6035872715019996 1.4251216017605068
Ni 2.501857661889313 8.830925793580567 3.386612409017046 -0.49367494689534336 0.5248991950169476 -1.3898036431855032
Ni 8.751977436529211 5.856088238652066 4.1995996959230135 -2.855680315376185 -0.7049864595222632 0.5697315208402898
Ni 7.881036576481758 3.620952237295178 4.769946462120599 -0.09474000928706264 -0.636733955002768 -2.0029325571748218
Ni 1.1115401059088372 2.4437924781484215 10.798091202573653 0.8751150701529703 1.2158098931724353 0.08803611490432581
Ni 2.9240685682232015 3.492664616092904 12.46124501961107 -0.03497703029581718 -0.44930207720692295 0.42411735041117926
Ni 7.093121088769772 4.61906461255084 2.4605073184116257 1.3446483868051036 -0.9136214537582846 0.7308756685841994
Ni 7.020103774314983 8.442511683628986 11.709198042382777 -1.8241200456168716 0.9154137697720169 2.065871105680571
Ni 7.568176385516936 8.944390420299664 3.030016543912837 1.3252201028771629 0.43378238430476906 -0.5363313481132892
Ni 0.8244859458497958 5.112088293400824 2.316311035986489 0.36340254902962577 0.4053950914113277 0.8232433209843434
Ni 7.657188144547849 8.310709712147874 0.6549577469659444 -0.5791407299693317 0.26981002308344504 -0.06500005902046871
P 9.015645947606794 7.340370850513155 2.4331285926960238 -0.3520264459822002 -0.791960708820978 0.3825572675812056
Ni 6.282874257159979 6.531516845391825 10.451822546320328 0.8962060864953145 0.6528411449772756 -0.3640106149272699
P 5.620211689228384 3.1338595990417617 12.2308217087303 -0.25171254215178585 -1.384424638261777 0.9016216010839311
Ni 3.9965357403232358 1.5656199891807367 7.9763981484574265 1.3397131542870153 -1.2144875748165858 0.8061776237513083
P 2.7088445916979875 0.32192370955795996 9.329693269492578 1.3801627776616296 -0.8342245025861956 0.40846858813032877
P 5.091813905178031 5.58853641663645 8.713094517459893 0.1398279027646366 0.7103862903815958 0.7487286376052202
P 2.384989373089139 5.49681279676045 13.333187607848242 -0.16783750060368516 -1.017800239860744 0.14118775922664073
Ni 5.85494446060856 2.5586222593065404 8.748047083107132 -0.8659030646363991 1.7204971320178821 1.8851441507087277
