# total energy = -340896.79994619824 ev
CRYSTAL
PRIMVEC
9.01334515035643 0.00000000000000 0.00000000000000
0.00000000000000 9.01334515035643 0.00000000000000
0.00000000000000 0.00000000000000 13.19194171044315
PRIMCOORD
 96 1
Ni 6.391453223488816 1.9020682134596858 11.432466677859031 -0.057852392232093916 0.2048824691721246 0.012311984598133636
Ni 4.671355436520106 0.29006837695652216 5.8876694182036236 -0.20673263500698588 -0.2393488783801104 0.11038234381000989
Ni 2.8626654794597717 1.6421233375371669 4.831707354519398 -0.6286054123583625 -0.2789952891271389 -0.3258464451527227
Ni 3.324049607531818 4.2676477044615195 4.817551895863493 -0.12640443026987908 0.6591945979991292 -0.3402767616454398
Ni 4.990923591021941 4.642197264758339 2.4897942040414804 0.06701786078144586 0.5721637844308662 0.35864266574713716
Ni 7.24738752488376 5.978479772551993 2.5812012418429036 0.17531246882449164 -0.27736135306814164 0.6711743960688248
Ni 5.024227901581362 4.469789997537606 11.699907051660091 0.6444102406011031 -0.5680443629458539 -1.049937486714921
Ni 5.660633166985707 7.902017774307359 12.461768167739816 -1.1430800696078764 0.34071873427886484 -0.24515237243576488
Ni 1.8470417409386395 6.507184576014653 0.28044212426979365 -0.04680101951393875 0.9294144549264832 0.918982975180514
Ni 2.6881761294949986 1.542940486821099 0.3476672582011569 0.1613200112001415 -0.026203912088877453 0.8387789547260974
Ni 0.3345807822874292 -0.06377122004601271 4.610043057048007 1.7994233142011398 0.31031543939665907 0.1593693152316739
Ni 8.74311610948287 2.391123311333471 1.5148044284064064 -0.3401374078540981 0.6710142163418766 -0.8578930498477289
Ni 6.918625758265387 0.6076788328782469 4.711607233569162 -0.5630505092756883 0.2725780727468854 0.634496838142133
Ni 0.7673493419794892 7.208855474101209 2.4399819517257453 -0.11264002949593505 0.9395232612257111 -0.06639411115451792
Ni 7.726960583594213 3.6677915538930215 3.8875468248484486 -0.09134281068005559 0.7224979860434654 -0.24391207227076062
Ni 7.554544303028267 3.979328817810704 12.557159104125072 0.38265342683943776 -1.0627752619095374 0.35698764664221744
Ni 8.050855143797948 8.631350628850441 7.123015078302897 0.19164360188434737 0.4602259232082783 -0.6151911958349857
Ni 6.85978664071954 0.7472865368714471 0.4263077938438887 0.5871965103942727 0.19234139928232036 -0.05704892249419207
Ni 1.7728438831510467 6.5887553501859015 9.128995444711542 0.2596595649130044 -0.2049560027225373 0.10227359865994644
Ni 0.02986211402284666 4.970472310735248 1.2774731342870083 0.3306932317220628 -0.9164344977270475 0.2893984867383338
Ni 6.414644560720045 1.6948694337195034 6.90586286144478 0.44432853525173155 0.7316300302517206 0.496141406157965
Ni 3.414489513391962 4.46453521727884 0.3150632845647308 -0.35294638669330824 -0.23271157556925084 0.7330888741854342
Ni 6.097537049461167 5.37895711575635 4.6526130864856645 -1.0268037289109349 0.7522119681681304 0.5523814595976164
Ni 5.1069073172137225 2.9808935286094136 9.19849013896736 0.1714686695983692 -0.31504344099994774 -0.018618129321819547
P 0.11810907299283997 5.747548854867844 12.337236184948695 -0.12517570006910056 -0.45125097340317766 -0.03203723094120289
P 4.0183746292703555 6.1893650104840034 12.415015946123654 -0.22309899218015125 1.3575851494714297 1.0160657736681404
P 2.4302953096260946 8.489561695315865 1.373070476277626 -0.5279773197216391 0.18444194192958557 -0.38679650247353387
P 6.428633272489523 7.826053300858158 6.004035310232406 -0.5559840893472102 -0.458315850669759 -1.4638791821446788
P 4.688129271960182 1.0752830704812966 12.596365353129503 0.704336227532774 -0.744771452729685 -0.23530684710025282
P 4.121361111666011 6.083178790537984 8.230333380337724 -0.901521585170957 -0.11495839321646653 -0.7374641204349944
P 4.688652045982495 1.0883974877651823 3.7013022700578038 0.203087839165547 -0.41577772019723236 0.2111042817121203
P 0.21492411792163862 5.448477047378763 3.5835248881687765 0.059691245213045585 -0.06834429290235326 -0.610279103245349
Ni 1.6504516685133253 1.2039125200059244 2.649245688854064 -0.6433015809179566 -0.6522755022817928 -0.5369962353907978
Ni 1.8590204767257763 6.557524109025308 4.596824084959658 0.5946077152566792 0.09813695078375356 0.7636934864451687
Ni 6.163460656343874 5.50260218537858 9.125077343547758 -0.7929194731898216 -0.30768957173803785 0.7901501379748005
Ni 8.491833058309364 2.243710050386425 10.184641139978817 0.41278855566192135 0.7573901699349601 0.40396170139891074
Ni 2.4304034697686423 5.174146872497424 6.957706721771365 -0.42073017910650123 -0.4013923980098377 0.5021811845941415
Ni 0.6468868845517197 9.015418281691442 9.08612166554023 -0.5158293715051955 -0.31533320432622464 0.3322940005502793
Ni 1.4271099874979265 1.1528068526522255 11.36140185886723 -0.0906961782349922 -0.24234472778364072 0.35450807475347335
Ni 3.996075613215143 6.861778590011458 1.5918450952739562 1.0996004011576868 0.8997871189783535 -1.0076017020611872
Ni 5.777319934104047 7.510667338534827 8.022560450507518 -0.7731510323136427 1.1604581558750078 -0.2742287209764309
Ni 5.292969802431078 2.9361152295947437 4.778279849439012 0.119612089938394 -0.32664888644936 0.31059491831029085
Ni 0.9121144821031634 7.205763896693393 6.851960353071706 0.352361974944748 1.0120988186005924 -0.6396369875821759
Ni 4.968101800944416 4.581501398098761 6.871181311736921 0.16331852968740906 -0.4026766640389 0.06758504613882553
Ni 8.13342639928776 7.163103733803612 9.124443705379335 0.11189158136568471 -0.48011649148461827 0.22115652374179978
Ni 4.440956306203482 0.6818848026765307 10.354196584774378 0.4791111901485554 -1.3627150144988274 -0.010844141803355519
Ni 8.119437687518282 7.036051619691135 4.784796498027499 -0.4958025347613074 -0.293375726218527 -0.16594722555950778
Ni 7.310498968060233 5.824234395934029 6.889174652784221 -0.31076024024356164 0.06428169279720541 0.3911013004964748
Ni 2.43004293596015 5.360065144191385 2.4665109306890862 -1.15079697863616 -1.4145811072404995 0.2637175370324619
Ni 2.1461766418442068 5.343498615691191 11.482424045032682 0.617999097597426 -0.5636205228465454 -1.448961641602898
Ni 1.1940429069984642 3.280217709764439 3.6474006630192517 -0.44598201169475454 1.1218684685272677 0.6447190300907736
Ni 3.691154144683284 2.7870074597477874 2.5796707758258566 -0.3797660779893137 -0.867072659464468 0.7184842368983819
Ni 1.0142537100488633 3.25800882716135 8.256493713481882 0.016134700778333504 0.7261219559492978 -0.3344822664508498
Ni 3.464621739462734 2.573607498501547 7.041501989541008 0.28031632193140754 0.8416009975559248 0.002122188549325378
Ni 3.9690806443043267 6.929622039424384 6.099742615034614 0.78656987682271 -0.6521826854576703 -1.0068128876113047
Ni 0.9221102819435959 7.6043159952905475 11.300481559911866 -0.437357246140221 -0.2706255770062049 0.17377957711973296
P 0.2437821452878359 5.497635832166607 7.927486783873736 -0.1692544355558698 -0.6443192235491936 1.035117390982953
P 8.49311295332951 1.5505477501802738 8.090235350364976 -0.24091699419817864 0.3287741603224789 -0.8614177751715357
P 1.6770951169608623 3.276837705309829 10.590768053892381 -0.12226521129052491 0.33219912684362785 -1.9563544523049663
P 3.9998522048590934 6.231394239208924 3.722673812890671 0.5869005764204086 -0.3957745376024281 1.2208947638945102
P 6.69332818133892 3.8482026716622704 10.424259119778574 1.1421701561990973 0.14160479215940128 0.12314709967484598
P 6.225616684927844 7.698307159164335 10.247355094631427 0.37722248563185357 -0.10833934523805212 0.14076995496293176
P 2.4575246255124306 8.541523630464733 5.6010874031752165 -0.789443341715763 -0.007868347004483222 0.7993436315486104
P 6.803471259833136 3.9299987794638263 1.6061844261721925 1.0426612647684816 0.20481819159309242 -0.6315246428876866
Ni 5.079074107198162 2.825809910886707 0.5790839951922485 1.003312330657214 0.052219876536664905 -0.28382073554024023
Ni 1.3962663201814611 0.9608225996303927 6.932734347526188 0.28772649835254965 0.2745573079604433 -0.11029004120651974
Ni 6.840263734989715 0.4711005142108981 9.138994849890059 -0.6817300600974839 0.7243530369743332 0.699963295276059
Ni 2.565937141725886 1.7012328554393819 9.240981752301671 0.5016170845605554 -0.1960332463116108 -0.38244388193179296
Ni 6.369992448538348 1.9973663123892555 2.6578597428734523 0.19861309122364504 0.11352063232867546 -0.6434350211720272
Ni 3.987972615869292 6.831457696717305 10.329277389265954 0.7082941837392576 0.7120042856009932 -0.18838652839963038
Ni 8.168821805936433 7.2169674847922725 0.519595015456596 0.4629538636624027 0.21099860937219145 -0.9691518827254212
Ni 7.54692802632388 3.616884180133993 8.3336136977873 0.015610195733431182 0.07479570495465182 -0.8256048792379846
Ni 3.1311820466791804 8.395435331263894 12.381362819104517 0.49885829086849576 -0.3441773822514266 -0.3244932735589379
Ni 0.05850021576586399 4.9834785678765865 10.155512712256249 -0.33582798184546675 -0.7946706515529733 -0.05771843775739091
Ni 8.645213153786948 2.090825688895518 5.715699298225687 0.04157345256641227 1.3088126080534168 0.5425603597421367
Ni 3.48913803844017 2.626245434541336 11.588817571918586 0.3369368986389294 0.9237498004415382 -0.6789183016803018
Ni 1.1154645634376972 3.44412539244998 12.679870391183309 -0.8373476215962096 -0.08573497757497492 0.11553432032459456
Ni 3.215474851104541 8.305770573092008 7.981705660663761 0.19783070453166574 0.5537176619105367 0.14289754282889583
Ni 5.713613610143562 7.925794978977388 3.6014524317960266 -1.1007077752892527 -0.7779093729342345 0.35339632974653334
Ni 3.080743366871191 8.407350973634545 3.4276489974019095 0.9172086568889107 -0.24652739840642063 0.8507453830593541
Ni 3.2698253227346656 4.414772538361772 9.324644523896692 -0.43952545743613336 -0.24158059592410652 0.3671216497524258
Ni 7.130177983743106 6.067144049405315 11.46280830184717 0.23524102685932388 0.4455521232461875 -0.7242044272116108
Ni 0.611744752903512 9.185950773108019 0.3657588447112706 -0.4272877777193609 -0.548573912926068 0.11618532364503217
Ni 4.726742442849644 0.33130082596467597 1.5297116000530169 -0.5494653143920859 -0.4480039272207897 0.3908573028064688
Ni 6.007259383814843 5.761510526601685 0.40691377895059866 -0.41110499731191136 -0.672896520966254 0.3637699596713735
Ni 7.810297973427071 8.665718514144913 11.527184317356928 0.2465572232030915 0.6718130580940881 -0.36540595261289976
Ni 0.24665199440342986 4.961522058939441 5.7146961129035585 -0.15864992056714614 -1.074077574296234 -0.08116638436768601
Ni 7.868749517128788 8.777691301717224 2.513104517429512 0.7846361501351068 0.08013717177222328 0.244570788900682
P 8.457582346502651 1.6343538339641706 3.516101460642743 0.8595411269741132 -0.44320830560435925 0.266033072539516
P 1.9146868967568955 3.313296686693553 1.5149621619476215 -0.6567106552350109 -0.14458212962017034 0.31635187539872617
P 4.6575019249288125 1.1523111186655492 8.137607690131743 0.2509792635301871 -1.0199368265877726 0.061919363212615944
P 8.55979368121005 1.736447995183809 12.384726599537746 -1.2202748709223241 -0.38427270761041565 0.6301547591233534
P 6.344142174469492 7.657242358377129 1.4987895166332048 -1.3883774522619379 0.5029648568377015 -0.5293037518425464
P 1.6384278660001268 3.2327263938408692 5.9701847909531205 0.7060948620950936 -0.6064617863817877 -0.1609474583520712
P 6.923492964680024 3.7452342159570393 6.059401585867956 0.0025273944075440346 0.3985122482485653 -0.23379143889699092
P 2.472414671803138 8.563570272854001 10.098458237062438 0.3945149541637141 0.07530246938774128 0.5369610112774882
