# total energy = -340892.605212462 ev
CRYSTAL
PRIMVEC
9.09657192819924 0.00000000000000 0.00000000000000
0.00000000000000 9.09657192819924 0.00000000000000
0.00000000000000 0.00000000000000 13.31375251250579
PRIMCOORD
 96 1
Ni 6.355802206842811 1.89610767894045 11.352690251051813 0.48549858173213806 -0.1701944308716359 0.6071816952669479
Ni 4.712188079318823 0.29089836911020217 5.9907895166544805 -0.7672840320099044 -0.35709306187183015 -0.3053154150789064
Ni 2.451507984279049 1.5300798113072196 4.822947031391875 0.5310613579636015 -0.4356988846011916 0.27890195808238416
Ni 3.2509329324211915 4.618065847935528 4.955032896722695 1.1441733026720553 -0.48513219953165476 -0.7422664269196443
Ni 5.229692065343339 4.357867499961451 2.845894415393232 0.30415636177379873 1.345058734869645 -1.3223191271802839
Ni 7.23900658390543 6.2996581639223805 2.6053146444390016 0.9081861416753262 0.021932024186400938 1.1463998780097289
Ni 5.41548955021855 4.28946127786786 12.006808375992016 -0.07166564396610238 0.6575606619401321 0.0942080480429926
Ni 5.634398557490127 7.900745816940049 12.370939608345125 0.29451883868403467 0.060485458979566795 0.6191771770659271
Ni 1.61787992509011 6.911884755087929 0.48155979108028574 0.47682316544532727 -0.9473854375826071 -0.7698307096911581
Ni 2.6863359927027237 1.5283787523269667 0.4135638243878151 0.23629569337608336 0.47938115598049047 -0.08292296204747654
Ni 0.4747364523578918 9.081726481267784 4.6541819680922005 0.40345622251740193 -0.6906682431273783 1.707740860793478
Ni 8.794129258167922 2.2606982881839484 1.3029347676681515 -0.3761107406249135 1.1687584482105873 0.7348729626690506
Ni 6.688072695461506 0.6722494124238387 4.587133864211187 0.16908911362259912 0.31445902925138747 1.4767282701932052
Ni 0.9239115371515564 7.588606042349695 2.664068493891168 -0.37796964821052326 -0.46287235969219 0.2112984000007974
Ni 7.657694507349802 3.8504516123813213 3.877217366089856 0.2352744512004206 0.38505406586113045 -0.7366300545694734
Ni 7.881943202436397 3.879651608780314 12.699802521060063 -0.05311487754710853 -0.5115939932676092 -0.3233463044386883
Ni 7.9018828884509125 8.718900607009147 6.773691451257954 0.6586292124139626 1.286374847875191 0.46317137898984745
Ni 6.605794200935372 0.9051143805911579 0.39624940907758366 1.284445492062962 0.6160735984399389 -1.519128846646603
Ni 1.9208139687285077 6.695468208568166 9.389350717474194 0.2822554479356494 -0.8712879830973962 -0.3453526335064504
Ni 0.18061243878567007 5.012120254168539 1.319638802991351 -0.8452846170550989 -0.6665896049116197 -0.3068778744700199
Ni 6.364243825739467 2.0071768241216654 6.838808352884917 0.8053044771177357 0.10701599844093827 0.5721198185668083
Ni 3.292813550309342 4.4847555840018085 0.5013730347427923 0.6039487901519469 0.5843202172877421 0.19590700514639162
Ni 5.988755523135847 5.802366761074986 4.7850025002457315 -0.5706879712162881 -0.17345638945235933 -0.5166670369151424
Ni 5.373508870037443 2.8928827585081844 9.116392607833804 -0.037106417933994156 -0.5094895453300967 -0.04744328108362797
P 0.3989001501837103 5.728620851166378 12.317324412464856 -0.35096946547259555 -0.17477922202884094 0.5593476065028045
P 4.296465638374784 6.1428605508602505 12.769380381638445 -0.12794837771823125 -0.07169983963814748 -0.5029548295353725
P 2.424309233739177 8.73975904680444 1.371663008413619 0.09282145210811112 -0.9982025202344745 0.39216445165366653
P 6.414529676235926 7.72575505970409 5.6810448694946105 -2.122405807542506 0.7800354181383017 -0.437321250695963
P 4.624970146149495 1.1270470884244244 12.430092797311907 -0.15063373513088898 -0.4733730021131976 0.7868370144411674
P 3.8933237566269456 6.106055820196597 8.275749272251437 0.5019346158009742 0.729447420778105 -0.3641327423274309
P 4.435379390714042 1.2204688837570274 3.9537186276835907 1.5020364099406907 0.3400229937634209 -0.894573435987898
P 0.15270597493743643 5.55274772643799 3.5035538358468705 -0.12496255561702994 0.10493726153503861 0.480121890801257
Ni 1.3730274942266558 0.9774084775946954 2.732128136588247 0.48945936615209895 1.0278861633418361 -1.335141732866249
Ni 1.7089548048242893 6.539534769854293 4.82963028290413 0.3311915115147199 0.6008231000387717 0.3782684103978647
Ni 6.101116381553404 5.242782032576408 9.176770195403485 -0.5594190831706882 1.988025558156002 -0.009338503792106498
Ni 8.660955442815506 2.1749630962647872 10.121673891960011 0.1937609053376663 1.110202087932933 0.9546086948039236
Ni 2.3015328002821036 4.931315404320485 7.125440429686357 -0.0475900910741374 1.4153370115699173 1.310941995691594
Ni 0.7123161738378585 0.1604507964122347 9.259501699219546 0.6088354288202869 0.22104982296060638 0.10847021438896158
Ni 1.3759929767269898 1.0649811770754127 11.578211556573368 0.29911725668799455 0.5376549520207192 -0.5097212017249285
Ni 3.9487764600687707 6.992434900917548 1.5181269155850152 0.06599713282641537 -1.355592544521433 0.06496354935557844
Ni 5.649207776847621 7.803066825870769 7.8381659492681255 0.8880261217876836 -0.20331512468500468 0.9609431216623837
Ni 5.492965054682793 3.2563090065245577 4.80288272233977 -0.9905668580660876 -1.3338078445461738 0.7705135946907955
Ni 0.7997924496544546 7.500123685660285 7.3595234288561135 1.1746622152895319 0.15212471785411866 -2.1338456739483314
Ni 4.970930975758995 4.788726636858114 6.880175014450156 0.4408349202761763 -0.31278215576959684 0.23575319060905203
Ni 8.378070244056667 7.470641695526598 8.94685524556395 -2.51187805707599 -0.8417915163001761 1.9283335416120078
Ni 4.794230062970697 0.09992766368916357 10.267819419108365 -0.8103993751421399 -0.34996956345317143 0.3667799501422909
Ni 8.278581035142093 7.14006316931607 4.806917052060315 0.5422839661522983 -0.45366318238909614 -0.8345024388379306
Ni 7.389991487404022 6.150992886305952 6.831845836609593 0.44294990973665 -0.8782605577604874 1.5745137511748108
Ni 2.2532209059285053 5.324532925921501 2.6202530351201307 0.01865926697240012 0.10982312887243022 0.23808852361044802
Ni 2.558238064574806 5.306858286356627 11.532612260016087 -1.101336410012187 0.16746083399055678 0.31361493608353735
Ni 1.0043980069765681 3.273010312876131 3.72477519174294 -0.3376701772605281 0.8411752228724158 -0.08362667298272049
Ni 3.344445693474664 2.979927856807861 2.8952888018251732 0.41657039130185675 -0.9225969177840176 0.12274317936820797
Ni 1.1582392341104513 3.0130393792042267 8.313786588432865 -0.3561885477796898 0.21414795363445052 -0.18973738600057
Ni 3.7617691311060004 2.6649863380147374 6.953852700068113 0.27599121219349243 0.33931979704880916 -0.027159848244243546
Ni 3.9740103510378693 6.950335965299312 6.105687409027078 -0.11489720096122794 -0.2300700241813457 -0.9762704960480734
Ni 0.8107774701066115 7.761904837177485 11.402430307223057 0.6345821987670877 -1.4079890558452783 0.4200452372243346
P 9.382932176209668 5.561362180204298 8.133730859858915 0.40216809983359764 0.1546433705109143 -1.8452943657016414
P 8.476240450018638 1.3744465594722144 8.015610961653133 0.34494048566969626 1.0552429580882343 -0.9104366282723998
P 1.8230985913708815 3.1699916339918346 10.456115732335851 -0.6840803054972154 0.48246982220814333 -0.30800016099992117
P 3.887219956756626 6.377388372405058 3.780559920065938 0.5534101579724469 -0.6134909253144273 -0.3971742461634321
P 6.882439151242589 3.7771423379328843 10.475007493245952 1.307789051884909 0.5379370020375124 -0.060282856050457474
P 6.475040073758075 7.502816270998012 10.243920904921625 -0.15504986192071363 0.7180911152250214 -0.7698355947871645
P 2.229260535051575 8.400684322264734 6.005287633246604 0.6057462483720019 -0.09387714706613509 -1.311274182220032
P 6.980099949167694 3.749079413044756 1.513361221468681 -0.43133289432301203 0.13098819298581957 0.0023093648594669906
Ni 4.917852477631853 2.7406061417732506 0.7544715082030337 0.38062739754834446 0.07180525486776021 -0.30454048458609484
Ni 1.9691349596541927 1.0136583173610463 7.160762419099842 -1.3369929271423748 0.7735320698021452 0.14257564071310286
Ni 6.894674040699488 0.6925402261209083 9.338852007190901 -0.12168465619670657 -0.9520856712717537 -1.1854176540338228
Ni 2.987077762468175 1.646106588275803 9.430264369749505 0.31960997732470764 -0.7569132302985416 -0.18595812146379587
Ni 6.358249184734192 1.898982195719915 2.5422208204441685 -0.06490698508603014 0.2392519477909299 0.911494894333585
Ni 4.2851858889870105 6.635558184803753 10.456980816341316 0.6111013420363282 0.5543015594384647 -0.05503677716016973
Ni 8.275988512097323 7.2977067635822825 0.45448384426358734 -0.3538465299100745 -0.6888288759257943 -0.3064315309612206
Ni 7.9017464398696085 3.925034406921926 8.264085647521595 -0.25662874850648065 -0.8083440352750079 -0.6337296209588054
Ni 3.1955075186956274 8.287850442098657 12.443059960821802 0.27195535156122197 0.252372801443604 -0.15233529120302797
Ni 0.05105996878105488 5.09060547813443 10.111995139259534 -0.204475463541693 -1.11425877450081 2.1055874504335867
Ni 8.58434411269952 2.363626001347376 5.704490374391423 0.5678666997174091 -0.3874737310462165 1.4871785189922517
Ni 3.522529285220172 2.942923001558296 11.773031931301588 0.47987994999378003 -0.7887018355640482 -0.2801224607530466
Ni 1.3010554158749952 3.3724267492140103 12.672535546229538 -1.299251189617227 0.4364118515078162 -0.3755764653879983
Ni 3.33092818735351 8.342966572373268 8.033145514007868 -0.29337521199789474 0.07883105136629004 1.0869158637114829
Ni 5.53751096819241 8.036976080513666 3.301930134854847 0.0817839633470269 -0.45335413578910955 0.916649441951331
Ni 3.1157214849213077 8.475139764796122 3.750590353668392 -0.04600706285773368 -0.20134617388409196 0.026227566237961283
Ni 3.508002059597371 4.350608435436094 9.414660109991614 -0.33774268236967636 -0.5272651241459628 0.21112407920646223
Ni 7.298443585921323 6.063392897108973 11.701390968173891 0.4005606461371618 -0.1368132843080289 -0.6115422862284887
Ni 0.46899833468546664 9.219648707249569 0.4609888029629392 0.12664302864324642 -0.1528839646176464 -0.1607605391522457
Ni 4.587892518323235 0.12119181059953285 1.40878157081427 -0.5755892651726475 1.7195427385244129 -0.28603574091368805
Ni 6.297384020900653 5.626038807742253 0.6742815866280553 -1.090251355842619 0.22523994978255402 -1.3768005460576158
Ni 7.890939712230355 8.733546088069078 11.587984003966339 -0.7607259191764125 0.8314806212924712 -0.06058778888538598
Ni 9.336175795682932 4.800433925133973 5.8273759667135385 -0.8494004389956855 -0.2562741933805393 0.010143001971272854
Ni 7.965413347905917 8.923309678374183 2.73580315171136 -0.12466739297411433 -0.9348114575723385 -1.4746832147387183
P 8.575638693212344 1.6032526371743527 3.687763059235706 -1.0697398661528286 1.2859876397391012 -0.4760078686328835
P 1.7530095034412119 3.302092053837994 1.4988885752784016 -0.3789957754821925 -0.2362725534476318 0.7178201209518219
P 4.798487258707373 1.0563485301649318 8.060398843980261 -0.06889887985424263 -0.8898996846613124 1.1150092795135893
P 8.524088419195804 1.6104753154113622 12.51798933475892 -0.6214001528591749 0.12572823013846088 -0.7854100521866538
P 6.451670980066795 8.100179063373542 1.2620556823667703 -0.0193596354735344 -1.7051641012052374 0.8590379620854496
P 1.8532264381227392 3.214555740645624 5.950288848751915 -0.8628151697396946 -0.5794310075162408 0.3961347491553242
P 7.031795768337624 4.0537963848121885 6.154854381156846 -0.06766012235113508 0.41062034436600897 -0.5192687362040477
P 2.5442020538446983 8.557300003885127 10.296696487198272 0.6840543373552864 0.7764183902110048 0.08600134386248415
