# total energy = -340859.87000311544 ev
CRYSTAL
PRIMVEC
9.31398631884142 0.00000000000000 0.00000000000000

0.00000000000000 9.31398631884142 0.00000000000000

0.00000000000000 0.00000000000000 13.63196044979228

PRIMCOORD
 96 1
Ni 4.330742759069592 7.407338657695462 8.71402571390132 -0.49323168871033773 -1.6533273190396045 -1.8606844750044667
Ni 7.183598082868655 7.514961767433357 1.5843742387005049 0.12161626485261634 0.06576161977684158 -0.7326821256653188
Ni 3.8584864063088573 6.624311843704553 12.901450442786498 1.7370676347820535 -0.5950034080332011 0.029084061850149914
Ni 2.4835837156832365 5.30423127544304 3.5897862890315273 -0.7151189199705749 2.172572401094568 -0.0404460238301884
Ni 3.2068426806747437 6.997607093828755 2.040649654058533 -1.2077224881786104 -0.4769208673654561 -0.7245803224937908
Ni 3.9189714322403066 5.496919020510768 10.399276942185402 -0.1757528987960199 0.4457169309588259 -0.49117172085751537
Ni 8.400433114873607 5.864281261469842 5.851696203410315 0.15136829930406834 -1.0454020607384125 -1.2191255878092293
Ni 3.9527905158801424 3.2044117302946837 9.483904905070418 1.4411100067689633 -0.7296957893434852 -1.2842428891338529
Ni 0.8272160897884397 3.4097292405553663 5.809559730155945 0.5952507481573167 0.8392970320130965 -0.44953090538827745
Ni 8.63481957584757 6.5466145714039445 3.3517850700403167 3.9284029183064213 1.1868680133271043 0.7402717650871187
Ni 2.485604850673554 3.073932098592547 7.59521014053511 0.5919329966379935 0.30332178168764534 -0.7862909121297104
Ni 7.659431006303502 1.0931266682196854 8.436806093510423 -0.056418745109360895 0.42034142830851484 0.9726380415018088
Ni 3.5758069272482635 1.7562172828081801 3.2224724808003313 -1.2555843448568957 -1.579528430780583 1.6040742384407474
Ni -0.009444381936324265 1.3993798461765672 12.001918701883652 -0.06564257770047405 0.36406460809365687 0.1391298482563475
Ni 3.7040977722097335 0.2906028870618072 9.13128670415592 2.9274842846923645 1.1566812053310789 -1.4620776101595658
Ni 7.136310975284121 2.375895408042427 12.621518589634402 -0.9599007964407983 -1.3204090546417646 5.296065249508195
Ni 0.46755372116344723 7.579060619983441 11.096838619442867 1.5174062075285415 0.6683814067047199 -0.9990448136301117
Ni 6.348338434657918 3.7990911167546755 3.4319682452391547 0.9495968434116291 1.314259490100601 -0.7162301507568827
Ni 2.3276862158309726 0.8161575940557002 10.612412612404023 -2.299418546887556 1.336625259390311 1.0915039973027976
Ni 5.137985936999793 2.6176958019762675 4.977505955971325 -1.0239878567286946 0.5411526807613325 2.484619478470353
Ni 1.754605963207604 3.849777829276842 9.529421423891545 -0.47298090888110156 0.9103695224798902 2.201126301472861
Ni 0.29584852405050327 2.1474140142751974 9.022204092791377 1.0913679859455654 1.7489309618785427 -0.2674960302382877
Ni 4.81932652951709 8.300736207332763 0.6366333055862038 1.2549770502902 -0.6381128376281655 0.21980977990591818
Ni 4.206168194574191 3.872457385504603 3.0730938398408023 -0.9954522111828469 0.9523764630392952 -1.7073212567575562
P 7.600417590180671 9.125974006467084 3.1045425140104266 1.5576951369555754 -1.5918234460978522 2.5971615489358433
P 0.20975283045602539 0.4629563376094337 10.069410946590482 -1.0280746252035584 -2.4192466094914984 1.110819409801958
P 4.820555975686315 8.8011207982076 3.165518387010953 0.6316508840529056 0.9217823923025222 -2.0915155457215526
P 2.1636017221700015 7.949040091045185 12.469658702769706 -1.4975274663267435 0.6452180812143792 1.0269484820189154
P 0.6498796566609972 3.7645548561827917 11.786846653948498 -0.5585605918251348 0.1402030267158682 -0.17090045579972504
P 0.48785169113763993 6.865460258609259 1.4271029258939927 -0.4124358003081929 1.0119993169082508 -0.011866669530598917
P 6.866168121555177 4.773343379990823 9.890981982889933 0.5835308886172272 0.37897803487037957 -0.4055480720494241
P 3.665034914378428 8.78687971341407 6.977573641060668 -0.4564217189708398 0.5899414201292614 0.22900044526625077
Ni 4.799059295697127 1.1449310590775115 1.3608376401699567 -1.6319318840829635 -0.36830692830977857 3.2954083757414283
Ni 1.4835503388378715 4.932007133723845 1.130426388476488 -1.175208574711305 1.4005894209470975 0.39327902487408395
Ni 1.499272347426151 3.3018732811642075 3.4370257397080146 2.0497261204895927 -2.7471360532161784 -1.0634445200624203
Ni 2.3479534496509347 8.928973885820938 1.07007920953977 0.4948936497937928 -1.1268278694150722 -0.8541320401433999
Ni 6.151021638483332 4.8338656618667954 5.708778674629512 -0.30524882350702914 1.2320484665184845 -0.6941878262448625
Ni 3.8708553798901577 8.971836849993485 11.927214944725383 0.7303048836823939 2.4099495004602884 0.9449372331524307
Ni 8.097737879618574 3.2498453546392496 4.72884487985376 -2.2325194710721616 -1.7166875284638046 1.7689408293415663
Ni 8.876852819434674 0.5591362839874011 5.048677849588907 0.7939905947668132 -0.6673223693125861 -1.2067971481508637
Ni 6.766191794430418 0.7540733567056445 6.072179677287286 0.5717284966656606 0.14311917192139867 1.0000076917640133
Ni 6.418901193582566 8.294272300958198 9.49581935612855 0.02156101400022738 0.024223134213422797 -1.2885615711138647
Ni 8.82360476072662 3.897279158542378 7.626249930713605 0.6766945545561055 1.2221687455109274 0.9156279426653521
Ni 7.234713238752824 0.645642724370234 10.926029427795676 0.9712421895955468 0.20987195196691596 -0.2722911376340859
Ni 0.2362958281307166 0.9403493537211383 0.8659063881745256 -0.5353121628201556 -1.766318304117055 -1.513072356039878
Ni 4.872416250460923 0.16826181644049906 5.340838035131734 -2.1862524696848213 -0.5969134805717203 -0.8828042112671117
Ni 8.613909676984605 8.611339016812588 7.511387059556474 0.01017102699573087 -1.3026517306583436 -1.6988296743467775
Ni 8.671209319659424 8.147875066959042 13.408218839755177 1.3414131676972576 0.006037978663963795 1.3201126064472686
Ni 3.3794308436728584 7.849259357629167 4.223399068915611 -0.8468234222971286 -1.0303778194154383 -0.688936348037936
Ni 2.0346123282487443 1.2295486230730794 13.024506827542629 1.5603665131401514 0.2336574844222879 -0.7855128963131053
Ni 7.471428196259414 7.896928338645052 5.217850573872969 0.11877468163876319 0.9909962322940222 0.4562900784889819
Ni 5.625647622820371 4.724770942320281 11.66381821115076 0.7768364515850298 -0.3798131291771652 0.5459788985053822
Ni 6.104479649789238 1.4481571915419817 3.4358400692736026 1.1056144685622507 -1.5392425866773427 -0.7135608314548356
Ni 1.8949397922358069 8.471396375201865 8.328500268589162 -1.112870635904032 0.3046911512313462 -0.6694566420467697
Ni 2.491463347949637 2.901884146790001 0.9926203752841022 0.8261000737068483 -0.7770742786274488 0.7226357971729103
Ni 5.0335016405878745 3.192406002172473 0.5021346888687576 -1.0911221884833466 0.717672539630364 -0.3230843090265532
P 6.193763520836185 6.81210974605377 12.841783184837306 0.526327442823042 -0.9493129936226232 1.1873706639951356
P 3.387813431190306 5.445645526862381 7.887643225871559 -1.0838961030485528 -1.1844128669183924 0.6602538925015791
P 8.39843992184168 1.9781695722979307 6.570768531636163 1.3796904660109013 0.8714425063973896 0.32760250861188095
P -0.00971076193965649 4.50637659553238 3.816349001655874 -0.5159628117592662 3.206310652341807 -0.3901224815229733
P 3.2620559904563313 2.874035328259814 11.406965484231423 -0.7027714541488155 -0.7356270672262556 1.0380939571127734
P 5.73837479695778 1.3188604360784182 9.14607731413115 -1.098440576521631 -0.2924557855074189 1.211688157694578
P 5.423152250357229 0.9304076049254454 13.158889950832055 1.093186527211543 0.048897754141967405 -3.107816061108319
P 4.778335676556771 7.561643465919411 10.778423238396782 0.8293275795052104 -1.398343048115082 -0.5283586143204578
Ni 5.403881613053231 2.1201333488989706 11.138456303669768 -1.3550598119464146 -0.043021754977164615 0.21695636961752313
Ni 6.733564901015287 4.573474551616482 0.15106074685469661 0.7098540720272097 0.9197890160215773 -2.0345450418737796
Ni 5.258182928013861 6.042560269993691 1.7639208807367144 0.04942071652497296 -1.213285584088685 -0.4594329949933378
Ni 6.737085587772615 3.16033794792517 7.021740563291486 -0.754000941747753 -0.1281859476503341 0.4607020915137485
Ni 1.870164589128684 5.83202692749993 12.08598674069752 -1.3085400711183206 -1.5652719208615686 -0.6012033661963259
Ni 6.558219798122544 6.575869801839837 3.667406255247253 -3.9856004505633362 -0.9847343105447105 0.7476071224062673
Ni 1.0919996758978954 5.947967426852361 7.020581903416852 0.020161048328907215 0.12656306733493042 0.7156647651717158
Ni 2.011476386700589 0.06842519910769844 5.33182768494909 1.3169174965487382 0.17603751991597427 -0.22389397727762086
Ni 9.18749288485902 5.296649690732815 9.770557730614282 -1.9052028691318157 -0.6086742206520743 0.6833326286979134
Ni 7.845338169468228 3.102609861888348 10.869348233799924 1.766242970794429 2.1278969125640645 -3.48964107850919
Ni 4.862813530760381 1.9201527526910631 7.32923715839679 -1.5856101181982885 -0.35415969027511907 -0.28601182965428806
Ni 7.2219996476846955 0.6840359065987569 1.3354141836281512 -0.5490624225267124 0.5690368087661103 -3.080711748692359
Ni 1.9372066612960037 6.287536733198031 9.423855773689876 1.2106046948224118 -0.13286098452850023 -0.10606134783715283
Ni 3.1757153390266213 6.777303379884102 6.174801176473106 0.3517837338437748 -0.28909638211688277 0.5823201561385777
Ni 0.7589259434796335 8.635285275154096 3.1181474535512437 0.027065745868540485 -0.46158783655281144 -0.13132140795552225
Ni 7.6410451976819 5.0749581928547185 1.991602203095334 1.8478155894615982 -0.3849530215068918 0.7866367255049033
Ni 0.049091226698012136 3.115360708900999 0.33597597049652483 -0.6973371705071216 1.3948502044704751 -0.8052983064701487
Ni 8.572769800246197 5.465316665569991 12.293015230210374 -0.12193482453429969 -0.3687525004876294 0.3669331878907035
Ni 5.50369028842764 4.886303403781495 8.186428449749009 -1.5091578514768202 -0.5303527619323511 0.14562085529732985
Ni 7.682017422669958 7.682259586309351 11.491374414937669 -2.5660743406127353 -0.5603608782586671 -0.5674897759939646
Ni 0.9955999194472482 1.2296045069898625 6.969353116901891 0.5716523920120864 -0.12492758861403647 1.0530595772836704
Ni 7.385702267914317 6.091905768513066 8.00256011814825 1.0332273730490915 1.1283862150411277 0.3346411606262172
Ni 8.799770270218678 1.8998948328572314 2.8075977337923637 -0.25701415687035734 0.1442576564012161 0.9142984252206513
Ni 3.4463797759788735 4.271934250641633 5.502962866110847 0.02544363688408521 1.014662722673027 1.7882027628949722
P 1.670957053769608 1.1839194050197732 2.3334646128263334 0.2889745118270378 1.1821235566635835 1.194653313699478
P 0.12650628521886656 7.256209918742012 8.869144564513073 -0.6954872617825764 -0.745511159109187 -0.023230174172534184
P 7.1270901290149276 2.8322155305338814 1.6235805319182202 -0.08731646312948188 1.00430014849178 -1.0152692459087742
P 3.543394255514133 4.967446850950388 0.7561671407877801 0.7595627521062467 -0.34289954398026756 -0.08377579696607508
P 6.225840889069618 7.933020034900729 7.078108807353256 0.9856632501168832 0.20495805960506638 0.5086603645605821
P 4.567187610978397 5.667616444324392 4.347395234872308 0.5407446466896365 1.2481003777750246 -0.38866055226546614
P 0.7250882318675368 7.648934143934431 5.350817039871948 -0.829202881001888 -0.7040225529470971 -0.1281044436801213
P 2.7240987795310683 2.338844371215308 5.509656827942837 -0.0643480272587666 -2.206529217655987 -0.5033944881759524
