# total energy = -340858.7989118891 ev
CRYSTAL
PRIMVEC
9.39595935607078 0.00000000000000 0.00000000000000

0.00000000000000 9.39595935607078 0.00000000000000

0.00000000000000 0.00000000000000 13.75193627573286

PRIMCOORD
 96 1
Ni 6.365367852577054 5.02560739992743 7.189883959661053 -0.0920704328746995 -0.7333765806291821 0.007873489210805796
Ni 6.196334543253286 0.7527422525391191 5.780681729585734 -0.8387411595096265 0.2961383765653287 0.6601543908092372
Ni 6.3382980935908515 3.449886219259584 3.214515557490698 -0.7738966522304156 -0.442827782336489 0.28381893576802736
Ni 3.0841109163877123 7.886921327394342 3.5663444378484357 -0.12611826648802796 -0.05082376752008666 1.7469260156333721
Ni 2.512930545415403 5.1550555323650915 1.0838323713438036 -1.1396137083258309 0.6800896962805836 1.0846800324024288
Ni 0.08691544309269876 4.552953059059012 2.3416384474556464 -0.44727887612930706 2.659586391029968 0.9277208692741441
Ni 8.236460412450123 9.284100487841496 2.9870581727152796 0.5828878557165896 -0.12918019324280333 0.13405500483660138
Ni 5.8510518277985994 8.83714409588917 7.4417088255037465 -1.3700997369986727 -0.6381524326168494 1.2106445469214118
Ni 3.152663836055651 8.295382473749141 6.593091143003048 -1.3044967542868824 0.7635399915864398 -0.45553880214525416
Ni 9.02915052590758 3.9790384639058676 11.034347855689177 -0.506588826743534 0.702778653237667 0.2870731810392669
Ni 6.9925669333986304 7.8680918247881815 1.5247593761592153 -1.0842218618190875 -0.6954237555344926 -0.4050387365131734
Ni 4.210742822322994 1.2065821243363903 2.212727763894766 -1.32142746860395 -3.14676493156769 0.1873521735978451
Ni 7.248484679149128 1.5668044152121334 4.183325412839573 2.316372144022759 1.312263542716495 -1.3425292835795717
Ni 7.856140164451336 2.0537688022228573 12.202051379285164 0.3681765733795014 1.2358110188847105 0.18116815627432026
Ni 4.686488433828851 6.9667374410511576 1.9663065142939915 -0.0009621068029531816 0.45388532570223117 -0.6033875183318382
Ni 4.389914371822435 3.979592825509542 0.592305306456058 -0.9235322851140932 -0.3390272055090548 0.49219347725381035
Ni 5.783917697997691 2.104817049557823 0.8115543811133414 0.6149415417180248 -1.5343752312827124 -0.5586019865860316
Ni 5.491130207623153 8.618584684650695 3.8192564161918927 0.09637265979447919 0.033007565274272184 -0.6916378061294992
Ni 3.293481079348331 1.9391756815717915 0.09472254574512338 -0.026419370533793205 -0.1688595141102963 -0.19482714181865154
Ni 1.1839942379765052 7.5050131622596075 11.652290976921268 1.9482161394685478 0.35333308060876567 -0.06694252745882019
Ni 1.4431441937552068 0.44475961664827246 2.646010216155102 1.1981477000059817 -1.5918386156065036 -0.8407075392073781
Ni 8.774529422552117 9.37330572623615 12.31212222468456 -0.2880082912590266 -2.1714118051275637 -2.6997002283317184
Ni 8.375990409307152 6.031660959083839 6.338308429146174 0.8262743945011835 -0.17306840998532128 1.164089324869692
Ni 8.292366370786779 2.631000171038664 1.272054108922213 -1.4372785488380149 0.07879634147361268 -0.59791235414988
P 5.593095158861704 5.316534490343873 9.809998911752992 0.5087107581825432 0.9992448454560596 -0.3859907187427869
P 6.545770272755839 8.23780403464208 12.576970829829847 0.4406711410048023 -0.907713830024598 0.6136156238177497
P 2.971396987613509 8.485237229068543 1.5747477592756307 -0.053006891214334516 0.46682980167804117 -0.9030439353527544
P 0.648242271458681 5.768621076120032 4.612921830233443 -0.9424658887938027 -0.8057366795591477 -0.9078143601582043
P 0.4259225972746043 3.011047936215305 13.000337726151919 -0.0372146613770843 -0.3567115101626953 -0.9330222268823996
P 4.66826966858267 6.419093948336548 4.845081892680708 0.48811467919874646 3.950700296252041 -1.1843416473608248
P 0.48972585947377306 6.026436805666162 10.153906998349756 -0.03279107838809192 -0.5522441626888037 2.033382903244879
P 3.8121662252404906 0.4702828007198168 4.610542773317335 -0.032439608585944135 -0.6046746125743779 -0.2963620625403605
Ni 1.733112896314451 2.2094598492209023 6.863069002376231 -1.055350944421008 0.22561044574809536 -0.640981160314896
Ni 3.6301758879257573 0.19820682361611744 10.446424824689963 1.0122330301856115 -1.6381392984452563 0.49617457338874543
Ni 1.9528655943947335 4.0465766199603 11.300405720807227 -1.4118295126372908 0.6050191403979903 -0.40149627057755366
Ni 6.3972765306461765 0.34280688015692123 11.04005402182327 -0.6041143691955337 -0.023036570104489357 -0.06450152211749537
Ni 8.580474673387927 6.821334969578934 12.039421416281805 -2.7376903344222465 -0.6637523925731408 0.43569605638771414
Ni 4.0383363635802585 1.1005487226844326 6.634057525918648 -0.5917977566117097 0.8393224859343932 -0.09550234137438392
Ni 8.492256010728624 2.7481771805204156 8.247462141293214 1.2142839434462118 0.4760662326746446 -1.7415076728312782
Ni 8.88301516960338 8.277952969091244 9.707877047992723 -1.1657618274761083 0.4780020162447768 -0.019238022294005574
Ni 1.9316589140643419 8.076644539282364 9.27954532673198 -1.3733622098000282 0.7792046947068902 0.20830923546548644
Ni 2.794518052203841 6.1842795273632145 8.167893398843107 0.42106005164209415 -0.45598463143342116 -0.5437510376161281
Ni 1.2044210536779987 4.719176976526871 7.145190199657698 0.047363062664995854 -1.141263585224428 -0.26991955207811574
Ni 8.672291988491422 3.6803784989161348 5.934112108755914 1.0587162613488155 -1.0164282992138818 0.18232849513100857
Ni 2.8447582470317556 6.030871698495557 10.558448150449419 -0.3823934883098318 0.628340331622434 -0.4607869379180709
Ni 1.0173475023363523 0.760367073579488 10.4155102391237 -0.017299153400079884 0.4582672568200108 -0.03387994057689649
Ni 8.898828569247177 1.009351540900303 5.998828658207238 -0.9222148518542506 -0.10290017650035183 1.283399567296951
Ni 0.21065928858814578 6.52958103473667 8.218047150844686 0.8141411015727592 1.0213239367432863 0.5063029200719991
Ni 1.0574870408261319 7.1683747294384865 6.281802069004863 -1.0592343386358145 0.9480639517068705 0.35192977250333585
Ni 7.754560447547543 5.185686359957948 4.444323553829169 -0.6752066571566695 -0.6306625519977075 -1.8436095218000508
Ni 6.5897151747962655 7.400962308037739 5.658632915163217 0.4388837100870764 0.028280849222564197 -1.3424886601496233
Ni 3.0246438894444037 2.233673236554274 11.400891748038685 0.887841259470387 -1.6931123122470262 0.5891564623341208
Ni 2.8434334167585673 1.5646339485943574 8.708399720809394 0.1008918878210714 0.40335594949411174 1.2812748076444644
Ni 0.49402920887178786 7.623571377770852 2.9670626315495263 0.61681536170197 -1.5406147844345208 0.2548652288481546
Ni 4.915994137750048 6.985623319413624 7.135879743503783 -1.1565341382302532 -3.751193489569533 -0.08712568727491446
Ni 4.166440873825965 2.6207961591473015 3.989670931545154 -0.3179053359287751 -0.3333882620557226 1.1431803426311666
P 4.953587371246679 2.037457416731692 10.137638834271756 -0.9567774203204682 -0.9866454115244945 -0.6597090757417026
P 8.741117390981506 6.651286896641659 1.4152804762010303 0.03951219916200937 -0.847611979636695 -0.582662627079661
P 1.0663004507286162 9.382748665417385 7.250721857078534 1.1421447022778006 -0.19960862236769494 0.47989126284768957
P 8.511451955750774 8.37738101129603 5.024256260967965 -0.5446902616009457 0.19784253160620766 -0.7828428056801099
P 0.802494797074988 2.9543245294122147 9.450124271374468 1.5346637090574085 -0.6107403591524837 -0.022742178792522123
P 7.828262352958084 7.709121587965011 7.559755900824485 -0.9573230084112933 0.7859127028546852 1.882533452558758
P 3.0637968521988306 3.024192883393957 2.137531900942119 -1.3138344867480403 1.0139147887634086 -0.1302896242568982
P 6.42493823507359 3.9088694392238272 0.16270982865812617 2.8516174581607214 1.6779841983563357 -1.1797108334570328
Ni 2.6552887260471096 6.012305282752156 5.443084908907414 1.8756974034735308 -1.3251640528282467 -0.4551269114188162
Ni 6.712059961939388 4.86533112474984 11.573395924759017 0.37268731676566136 -0.3409367638269419 0.6544773950291181
Ni 7.164625741644147 0.8506443909398936 8.222612647509523 1.7858077803002341 -0.1430268693179085 -0.2797360239479053
Ni 0.7346437555730578 2.477930596708841 2.4902280283510287 1.374159251780027 -0.4734269952795847 1.0242274835433263
Ni 1.1354171279596135 1.0285286940036833 13.339859778908083 -1.6502625640713515 1.6432293113736538 2.69781201017007
Ni 1.1785915613305258 8.955965398263178 4.885388679247529 0.9679601764101652 1.5586413029189288 -0.15843420501191424
Ni 8.831064910167521 4.64314487318902 0.04072302756754545 -1.0506818210801132 1.6666145230668135 -0.12162680637557764
Ni 1.968096444556703 3.9304237700514384 4.025851952346324 0.041714863240283 0.28974275745163003 0.21146320771343582
Ni 4.088144344276495 4.93563169286326 2.91164244431304 0.4506611623379787 -0.25214243060035285 0.45432292746028213
Ni 4.740101778075733 9.313077626582713 13.466445902117284 0.9003651029690107 0.5160116627193306 0.022883846576708975
Ni 5.654666880707099 2.4693238979128123 7.794267771905644 -0.5462424365794141 1.0876961935209333 -0.4135622006031523
Ni 5.5194308372887 5.859545775082016 13.697519791659726 1.196050708267637 1.8479382310823915 0.05109193357980878
Ni 5.468232254603586 2.392004548139311 12.182276643164942 -0.4982494536399033 0.7730150209564106 0.5641733100262218
Ni 7.025086348827733 5.312907650021529 2.2637750716337934 -0.09048200534165708 1.4290168230498552 -2.3767431889116484
Ni 3.255305296369872 7.55187081170917 13.385859577265858 -0.44050479063026715 -1.4009676302221226 -0.5692610089617745
Ni 3.9530586362082456 3.9070560190626553 9.573493218090482 -0.31276287249588713 0.2489884583524034 -0.5220771521871201
Ni 6.154935946206009 7.714214197951308 9.619768318058217 0.1525263241679115 -0.5598633697969585 -1.1811758480383334
Ni 4.174869049393692 4.761111143259054 12.082368467435616 -0.12398090843005101 -1.1528996268014595 -0.5814912324793792
Ni 6.956852891778861 2.873303171641295 9.837378737398877 -1.2082230819641127 0.7463387972168049 1.8289681177377919
Ni 4.930153848542206 6.936228760930297 11.419525814689651 0.6529761278932431 0.47749885135611314 0.8822036015686354
Ni 8.009172154943622 0.2875896456431365 0.5549028109349282 -0.5918373516003936 0.8409499942354871 0.8767976000617158
Ni 4.779893666068293 4.49140952509177 5.163109748749323 0.5558411360114428 -2.51563700989779 2.0763285535684695
Ni 8.063612343616324 5.041138920789697 8.978295835335933 -1.2835170667114217 -0.09340483541540688 0.6997306104399627
Ni 0.920064557659004 7.937330649491174 0.2974751345113708 -0.6979069269676625 0.2743241089037146 1.0007813367052443
P 0.7848200578771594 2.2773268638537862 4.93019331157162 0.08369069345143651 0.5656264975329808 -1.9991833745450343
P 6.3537450508186595 0.8618406161422395 2.3921351519747525 1.0680609357885091 -0.8800937543144843 -0.18327440398404565
P 3.6438564047893154 3.351745423490448 7.324212353402928 -0.6703328740041359 0.24931061757851258 -0.2380877522794996
P 3.9036922656030715 8.18016921977871 8.73613753250782 2.1534243674112075 0.039644353864499465 -0.48739836985801216
P 2.2647080904006556 9.309112531722533 12.20089661587683 2.3397702112317256 -0.8681157560170017 -1.5206247144658391
P 8.155316907207206 1.0677004486768789 10.003680641329625 2.345526139878896 -0.2781493961870758 1.8935526864873968
P 2.2101363582965727 5.494136914626133 12.817162558358822 0.38350471909613953 1.4880228692704178 -0.3871891099262622
P 6.652809042061918 3.1392370100954694 5.552756426032977 -1.0824999940319746 0.665994394529782 0.3965309561524784
