# total energy = -340868.98700094986 ev
CRYSTAL
PRIMVEC
9.24497877492733 0.00000000000000 0.00000000000000

0.00000000000000 9.24497877492733 0.00000000000000

0.00000000000000 0.00000000000000 13.53096093388118

PRIMCOORD
 96 1
Ni 6.405355810460051 5.474719266888165 9.37511572039136 1.2012664481406214 -1.1918896349114119 -0.13391462260399517
Ni 5.4286700276017115 6.822516987798467 0.5288932173392769 -1.487612778316193 -1.151374705516501 0.2725562183700145
Ni 8.678021208185614 8.804927031852579 11.942439855179687 -1.245641631821887 1.2154507100608034 -1.9631830451910255
Ni 4.697937660117154 2.4790872838504243 5.989750563049745 0.9893527831533284 0.20235507476458053 -1.053904956003101
Ni 0.13873477401167758 6.294859824121628 2.3211285009705978 -0.13615893855348163 0.10920580700340547 0.2275817105418532
Ni 5.7221981037600935 8.24915588771597 2.4127601081152847 -1.3942305686086054 1.1847764209053984 0.19266715805285528
Ni 6.127026479410469 4.540652836190144 13.457921152144966 0.05673859034262487 -0.0303654996657348 -0.021527589659130666
Ni 7.819782093413611 1.0505716532412623 8.8888668166551 -1.2527419903120942 -0.7244319698413847 0.14566867781612977
Ni 1.0407719757380218 8.545725561891867 2.373533663165993 -1.4432183113612178 -0.1499415941598708 0.6045267741426041
Ni 3.557911592233105 6.109645919310382 4.890887763168694 -1.1043502571378465 0.6458194622438038 1.5396933010615161
Ni 5.004001927496664 0.8640551309203885 8.817802513794808 0.12986924889002793 0.1025754461710814 -1.1158497731370138
Ni 7.107345538928029 2.9590496020185686 1.560146562928868 0.20170689965762037 -1.702307348482733 -0.9167093486549891
Ni 7.615190713086525 0.2627912952196807 2.6243295984229804 0.3183545076510517 0.48009258022521833 0.03730079333298738
Ni 3.4413601447959796 8.380721180686363 3.0366861602911746 -0.479424093403284 -1.4084755085633935 -0.4846051233835912
Ni 3.985214511289496 0.8518083075349708 12.82694487915401 0.4302103506827946 -0.688866156921633 -0.2810339168237225
Ni 3.9305119718681056 4.046018736703471 3.777992934500455 0.7950827993897275 -1.2293655203696827 1.6287324033090596
Ni 4.716131778349586 5.421911948115986 11.231874484398498 0.7178931402816023 -0.32330722367063675 -0.3454547063019534
Ni 9.18828856678359 3.9497045478084147 2.541804295373286 0.6023397937936142 -1.3690890363459711 0.44054772805306064
Ni 1.46312883114891 7.253739777856155 10.959456392778701 0.07066651327762669 -0.885347803624572 -0.6918771758338149
Ni 8.367315961460232 6.030767760388073 4.825289091761153 -0.7399328936904611 -1.3295660385506844 -0.9879386764146211
Ni 7.4990830246306786 3.2931816249639625 10.229365626821243 -1.1711171782507508 -0.708682934537244 -0.9806303156786659
Ni 3.41253430097041 2.809049821367553 8.529309253078186 1.653474643250746 1.2267113705762873 -0.4302481458992655
Ni 3.4506051235726214 0.9311635073621548 7.158635756682961 -1.1865507391970016 -1.1210919953725598 -0.3012952381759198
Ni 5.8106355707374515 7.677381685316996 10.916806532188417 1.0199429972353595 1.003520075792646 -1.9371097451427415
P 0.5811818928020862 0.23309642338910672 5.114717019832094 -1.646020758075862 -0.06517540825606839 0.13343202654062183
P 0.3137366752662438 8.661916455156705 0.1944348466430677 1.4479668817897966 0.5390420621762329 2.927215090191378
P 4.983635239251721 3.8492578534001995 9.736108104674408 -0.07595090160501758 -0.19109929934510314 -0.2220219570658886
P 1.5506972701212625 2.2431646704492985 2.8738275386597274 0.5976632142535513 0.6015347813938157 -1.0322853208507963
P 7.882047025474295 3.610487786535868 4.767147420234852 0.3903903904723793 0.696856117105645 -0.6854597023432453
P 4.84160463030617 4.756199516367553 1.8742816967803853 1.2139437864979739 -1.002132965637132 -1.6021651943434922
P 8.3688321379796 4.565605033908302 0.6913940582920679 1.2723417668208925 -0.08906378483789176 -2.7067409372285836
P 2.4541628210685977 5.485785506483806 11.564925769324903 1.8015251910354908 0.4405173890357575 -0.2742235787701084
Ni 7.132251511752302 3.9802037327925563 6.742613560729828 -0.3841706348149126 -0.9724439232131317 -0.12963193606824128
Ni 5.701276716788554 5.121875406898848 5.239444726499282 1.30409977595878 -0.3939500827991796 -1.3826089252092768
Ni 6.304021598089279 8.758942507417562 13.048013585154703 -0.6424361475938678 1.956037949505812 -0.6933488752833349
Ni 1.6891130923651458 3.923661442594614 7.2617551744555024 -2.650817643698402 -0.33132932264416487 1.7390095889997728
Ni 1.6491932740076058 3.3103218156158567 9.971357683620596 -1.581356228017941 1.4709237476962862 -0.5253090288608566
Ni 0.023850196247980928 6.7015371955273295 12.774702428585083 -1.3548091293881892 0.2542977863804588 0.9161478197245642
Ni 5.819899039471646 7.835295167800817 5.075747585292794 0.1299281271524214 -1.5170843054127485 -2.4687727412460836
Ni 1.4896804101954255 7.4662633499736 4.597685110263249 -1.1056062410321346 -0.7999632674104804 0.66901364097208
Ni 6.300046257215323 2.1083821248646353 12.78965340826267 2.9502418901038547 -0.5517687657142819 1.4407495381057511
Ni 1.8375597165816857 6.100706024833369 0.5601199821531404 0.37545536642910177 1.2723728771691443 0.42724355474498676
Ni 9.206917199018523 1.432241357056149 1.2604252754880134 0.46490070297612834 0.1777575879308745 -0.19465770612032282
Ni 6.909244133702145 6.537032043175763 7.002096078045348 -0.46838403353903846 -1.125185705825959 0.7276507338889985
Ni 8.99345063906586 2.4494571268712875 12.406767989738654 -0.13557709790808264 -0.6771874350321241 0.410404371700461
Ni 2.624529289964556 1.0707904218257782 9.932171916577921 -0.2975864218657649 0.2010867495751182 -0.737257403740827
Ni 3.774826529269455 5.067172867477458 13.331595913145176 -0.653057888973772 -0.09923146939951297 0.013404960551996269
Ni 2.711857359488716 4.389340268552846 1.9284868563435924 -0.276588222347543 -0.032444750792266705 1.2863573643736943
Ni 5.540219941520674 1.1146116212270611 10.932069067650776 0.9567427104277909 -0.16428192204194286 0.33187002563898327
Ni 5.131074160781607 7.190855432217435 8.683791923937994 0.3816416977454718 0.3789685217886828 -0.7591637168956151
Ni 1.7346631027976607 3.2034960858517585 0.4600172009554166 -0.6703953518109551 -2.1256307422377074 -1.576163885183724
Ni 2.3409488109698406 0.47814567983853384 0.949613711506699 -0.20463307216547982 1.1838636792831416 -0.39951086471640873
Ni 6.215741295751124 2.760282558320766 3.6713289918649488 -0.7235675649585602 -0.06093823024626924 0.7869617129444898
Ni 0.7264732057621582 4.567897788644909 12.261364812535383 0.20530850096594963 -0.9071170769808635 0.1493227296289493
Ni 6.734735914314252 0.6683195157634472 5.021664459449438 0.05968867410988431 1.7154973648104452 -0.5729664828378197
Ni 3.7730052684504565 7.483985974288422 12.133442965700866 -1.0591093830221758 -0.013460239269963915 1.4914388369305025
P 4.075371544319308 8.859398446804553 10.501974165003839 -0.6068004006681291 0.06076956587888888 0.9156989051126035
P 3.4141429272775454 7.871674159286903 0.8750501841794487 0.46876687079975393 -0.5736557955953605 -0.5433216633881933
P 9.156384145025399 4.895142302401704 9.640958783105209 -0.7613355277359533 -0.8742717483160686 1.616121142302952
P 7.521945857145314 7.354907580608947 3.2150107069180662 0.059217905121052856 -0.4776921983138418 1.0901145731544386
P 7.379175649897632 7.879726535801358 8.855770717132598 -0.21306783319639436 0.12652758611130469 -0.5671223653522168
P 0.3995568887519335 6.254921515806534 6.501139337573329 1.168600068255852 -0.30100881728375256 -0.05579191015863939
P 2.0082497597348263 2.365577434430815 11.821675470914048 0.5306934331012215 -1.0228043779435547 1.4466576760600698
P 4.535752997438525 0.6499035180403765 4.220090593093106 3.400909737310052 -0.27403614534965065 1.3909621822699787
Ni 4.969878710832078 4.874868063944528 7.32529683808524 -1.1908372823874975 -0.10772510869282093 1.773530762705094
Ni 1.3506359293947303 4.57730917703953 4.353775759696982 0.3251910709569109 0.3864406617960119 0.8170166233483414
Ni 2.642492283727571 6.067340896428468 7.1175288830504995 -0.1236651769618451 1.4404147804741514 -0.43595316670384276
Ni 7.1095458438768695 5.294885939724926 2.1771989733843253 -1.3714390246353865 1.1821554383427832 1.308670426048598
Ni 8.427167954060211 7.992025293001228 6.197734850587859 0.6931694122826771 2.304270989883851 -0.2924647843684834
Ni 3.0432066438223404 7.872515452355577 8.985207815988607 -2.1881208903521285 0.8765456319519098 -0.5136231078824961
Ni 0.6694446296805645 6.55295189662914 8.616461668005588 0.4359937901337911 0.9276591627982733 -0.05128579475816974
Ni 4.473081286311669 2.8965350555309155 0.6157239070052535 -0.2797524790081376 -0.6310104222554294 2.602166201239286
Ni 0.5230476172588061 9.001096236514146 9.685150706155436 -0.15930786586611917 0.17567910813529097 -0.8404285745143785
Ni 8.74746948875575 3.402558968870413 8.17690822757227 0.5117222913153574 -0.31418623520597505 0.705831838241694
Ni 6.1471065733133345 8.88839994522688 7.056977970055006 0.5337031664618227 -0.3343845645307209 1.9113107818017663
Ni 1.5609037266906751 2.267451229695537 5.339560450667293 0.14042722691153234 0.5890723872607468 -0.10224865895928195
Ni 2.680637066159996 0.226997510890156 4.959516938619218 0.20229208273712904 -0.2394206121583102 0.8060639809915796
Ni 3.7995291125606423 1.8052947406512054 2.7150006522727743 -0.969049552819602 0.5097487125287543 -1.0030197391174598
Ni 1.8728385555933516 9.238387106774214 11.94724354615203 -0.3955169130656672 1.1806217753070765 1.170417581080565
Ni 7.542682344541323 7.61952660813277 1.0671784086177443 2.5853884675603154 -0.4774636272428035 -1.0039633339776517
Ni 7.708047279919117 4.837980598625728 11.766929480092406 0.4972397814284662 -0.10222166237608847 0.802271860938999
Ni 8.8479808980154 1.8176367873180224 3.7377116374727484 -0.1799152577038256 0.3339353928084442 1.5350048944469112
Ni 1.5445123793196889 8.550449746046732 7.17818796229768 -0.5807139879937225 0.4353654125211728 -0.3928843605388266
Ni 8.220672108105136 6.791416879193843 10.552986108897594 0.27638844763191106 0.5519723970846558 -1.2927519550461284
Ni 4.514591241018792 2.9989416854397786 11.970110076658177 -2.0889722104744086 1.945552733703772 -3.1293351661270172
Ni 3.010923177934307 5.553662140661911 9.372314491822038 0.32514556243095616 -1.272164360702764 0.7827749285566519
Ni 5.00736709977136 6.250539395866405 3.2631400664292642 1.019056223755032 0.7807229311236296 -1.1386420884411808
Ni 8.593180037952372 1.3765218699693278 6.7321399242737705 0.024401054552183783 -0.08561413572639448 -2.326465523703019
P 6.383186351353664 1.7420775757765274 7.220458778758121 0.31885638698813473 1.1056324662843797 -0.19236299654887515
P 0.8091205425317043 1.6454583025818426 8.263588224084186 1.4225507557095372 -0.5450124208270548 1.0500035640661658
P 2.2548595686017507 6.1264902706414235 3.033222066743567 -0.201486299006382 1.352483052358174 -0.14791505064814528
P 6.828627918769827 6.6692722195968495 12.330561629682794 0.6706159524621934 -0.5331408662004496 2.1414774794619764
P 7.778614202921225 1.3420658340687832 10.99585387422234 -0.42393531630736025 -0.7260214258156915 0.9171343520075494
P 3.250802642251836 4.04241319498058 6.072776019451256 1.1582156396977343 0.7529578451952194 -2.045648350875793
P 5.964897286604499 0.982750488935817 1.2644172573237675 -0.17566265307505877 0.7491428423245033 -0.2767985385861362
P 4.483380192668848 7.408066208574638 6.621483999802511 -1.0266571760307415 -0.8015079861897809 0.6368709948012644
