# total energy = -381167.8930086223 ev
CRYSTAL
PRIMVEC
9.26768785964622 0.00000000000000 0.00000000000000

0.00000000000000 9.26768785964622 0.00000000000000

0.00000000000000 0.00000000000000 13.56419797484226

PRIMCOORD
 96 1
Ni 4.299400890889417 5.3493094485849095 11.409810144420456 0.46753634082676254 1.7831412892116645 -1.6026722158868978
Ni 0.7565315567019744 5.388205934648165 12.75714197564109 0.9469182681382016 0.29012508049171326 0.22553974041115993
Ni 7.757277186230657 1.9875946827629287 11.240773077967718 0.006359880779756789 0.7984722846872507 -1.084964653522383
Ni 0.030550933120686335 8.197659179262288 12.645141967522328 -0.4391156235922244 0.9120852196194164 0.7706910008089243
Ni 1.6724191530895478 5.601464700624233 1.229154909124947 -0.92228992806656 0.9281476723989176 1.9221240703671862
Ni 5.432533285813413 3.9856247820870268 7.917110511842456 0.9297682387214761 0.3486827263209479 -0.2830627743282932
Ni 8.43644115768015 3.2414943185471303 6.985982202724116 -0.8410093867185129 0.8752099438596218 -1.512522397073679
Ni 2.0995390847543653 7.467643404374844 13.057453060711932 1.184191752046522 0.26383092268187464 -0.0299788057502774
Ni 6.975519909868074 7.6394478024307455 0.04107531948557376 2.1989462631024064 0.264783259292815 -0.36293563669553625
Ni 8.47227003905269 0.05479613140281208 10.514152057153414 0.15952049609755753 -1.9359324370051885 0.4321641319750557
Ni 1.3391067582206009 3.6965655968802293 8.489669196292422 0.3644901256668497 -3.286405143801553 0.19625924627948782
Ni 4.72723443452156 7.001256279131276 6.4596099676296035 -0.2599069050371201 -0.5319905546460902 1.102344025341095
Ni 0.8496495775190251 4.263470064950116 2.9135896195604585 -0.0800042457387848 -2.5618315061759813 0.283734346474021
Ni 3.217546613046189 8.905590053914151 7.035993426870683 0.3854304753639427 0.44921851635418114 0.6212093770046075
Ni 6.7469416558141955 1.9148340651592557 5.081080318673745 1.161475798506245 0.09073088812766955 -0.2962918714240575
Ni 3.819260516821005 1.5769063617224028 0.3186926172266347 0.00788711605756061 0.648018783887968 0.5229217595756026
Ni 3.2538574141888703 4.721627483349708 9.367706628579223 -0.7438378851718221 -1.3051480147176362 -0.5698089110454445
Ni 9.24838329349187 3.0529061377272164 12.897965419858332 -1.049443577797638 -0.11528312354573693 -1.0111099723247619
Ni 4.7787998499268385 0.889775885764933 3.0772551341136802 -0.46332795917236974 -0.3427015690368485 0.9571623144637128
Ni 0.834775865228599 1.748441996829572 10.337696206546847 -1.8576210055877942 1.7108318410139762 -0.15720676036271636
Ni 5.351255663041255 3.4595259437851906 3.4283642700327275 0.0769456614181191 -1.1049459817403164 1.4959174415271461
Ni 9.219032525952596 0.8678494629922252 5.278955649525583 0.16698260880255758 0.053828872894997624 0.596848945882372
Ni 6.793419110569312 1.9464832192945944 2.21602372704182 0.8244422263884512 -0.8018154901278707 -0.07874054853501278
Ni 2.271973685586609 3.372771117471602 13.519381501312889 -0.6177432728328781 -0.16246672321007502 -1.8523291610612358
P 5.229784077901611 3.1974728010821645 1.4381987306498445 -0.8155215268600536 -0.0640952878180122 -2.956727497828198
Ni 2.855133678210928 6.862120480878321 8.30261852489302 0.3152473294806377 -0.33111206442703617 -0.008489525528249895
P 6.434935675398292 2.162772519209831 7.370594957124762 -0.039635355003434965 -0.30519920121601635 -0.3087342109524683
Ni 5.72910856589686 7.568485116277221 2.0141883131557123 -0.9313031873087638 -1.9391242044696086 1.906168832589511
P 9.165557966842522 6.851425569056307 0.8664009233754306 -1.2127911609507693 -0.5646507638832727 -0.06607400881093783
P 6.1881093438942 4.434060395892775 11.746283747627782 1.8399019910414764 0.1571453109971616 1.0092348667892361
P 3.4228258997512406 6.883306415388829 1.8144696391830772 0.4577517506361729 -0.7735629230400806 -0.48292027948200056
Ni 8.751069893768177 5.98577718193733 3.0959332322818685 0.1977769684755949 0.959315870471606 -2.0719628204006058
Ni 1.7120941249353414 6.336346011652544 10.590857929490737 0.5479655899181078 -0.5163137673407818 -0.10925260108094088
Ni 5.504552488386097 0.1315511224859379 0.9192406458652208 1.5364046030079153 1.697263101190606 -1.623649075248881
Ni 9.203536951804928 1.1480070339832118 7.637524757194118 1.669071212137422 0.5956461838235225 0.019731674100972468
Ni 8.85726832926945 7.018892689180925 10.946457260191211 -0.28814301706467793 -0.5871821122165694 -3.2822129600970764
Ni 1.30858826200752 1.0784808394522278 13.288139713760184 -0.58903099249985 -0.34096607440298055 0.32992112944272856
Ni 4.492113192819206 1.937132122216247 5.659322876105031 0.652533898149502 -0.7549177971350676 0.24162301912626777
Ni 5.355175895017609 3.5188576816400774 10.121726641863722 -0.473785664170584 -1.666207260326066 -0.5631281565911592
Ni 8.0064853135218 8.742515817848142 2.532991627552617 -0.6483946791701478 -0.6980650498120817 0.3427473346731194
Ni 3.311511700536145 5.371134853559646 13.383916634232119 1.2354140405566079 1.0139178740872021 0.46367531520945954
Ni 3.095954547964009 3.089939818525112 4.255563800413409 -0.9618010987873049 0.603443054160122 0.9237490291105898
Ni 3.631960544617434 7.508096862003175 11.125395924382804 0.6574603889168419 1.386442440022754 -0.3017356681474481
Ni 7.842234081094097 5.6438087665815875 12.282802247421378 -1.826679064593299 -0.8230250343259502 1.6196551235981398
Ni 3.113674367204644 8.880919468757996 1.2954309255138332 0.722087123758292 -0.3858001999985356 0.11881247685523408
Ni 6.648277850565349 5.381004941159685 2.9824819042399473 0.10786960469048519 -0.28812090557749087 -0.19647650449661647
Ni 6.936938525192988 5.7723423298914005 7.357845398898119 -1.3149218062749481 0.34994436664219086 0.04741011385284738
Ni 6.803530158054424 2.6203924117119546 13.092394097584862 -1.5813050630650314 0.5339818740445063 1.6145681959935356
Ni 5.725586844499664 5.24373194817209 0.6145098004408956 0.3277955984592935 -0.39834641209466237 -0.12108044695380436
Ni 4.540759286539965 8.449462259161892 9.118640296912755 0.35309448223539835 0.002572645823182666 -0.7483637980666337
Ni 5.229450441137666 4.445079676790848 5.496633249086347 0.2727742479180915 1.2151552903075717 0.2216038956918635
Ni 5.577257499862446 0.04594734300795957 7.09186461006843 0.4420050293248775 0.08971118861390356 -0.42522112499831927
Ni 7.979460735642256 3.9573768694063496 1.1383825401121872 0.5042074709955511 0.4864740582715299 1.1217322000597196
Ni 4.46726652159319 5.679637647954126 3.3423944168831983 -0.9574327945162803 -0.3162801416205262 -0.47476808268851134
Ni 7.132458936552649 7.5816081623257245 9.123048936040773 0.3203982775539579 0.2402371945223346 -0.8047768867490399
Ni 0.8213154753409957 8.710236460936464 1.2996885013292871 -0.26117471600595016 0.05989513369373556 1.4904499906546718
P 0.7472305051382186 2.5887803283281654 1.2394679922060023 -0.19824850879537473 0.039547680385635116 2.162103897463076
Ni 1.8892645142780262 6.4369652990456245 3.5697039244652964 -0.13652763474681004 0.24775664282783136 -0.8457211903718853
P 3.1321819399157045 0.2819536489035573 4.978969860299587 -0.267418640033133 0.29049711911915127 -1.5561000245543135
Ni 3.04263753954802 1.8328799011713204 10.14779664789087 -0.17366259192589445 0.8936421824228804 1.0835898846620435
P 2.891212787156425 5.192537240282307 4.815805727661072 0.6021808996182467 -1.3741227421151365 2.373532138173519
P 7.861992791669952 3.5179031097876794 3.57713661015096 0.3484793520608902 -0.14478164722548614 -0.13523462696699934
P 6.593385335208508 0.2929636621137425 12.24761654358822 0.2648637348217632 -0.2889567712152249 0.2177662671133282
Ni 0.42216171864507934 3.437237154416087 5.172991686527862 1.1900602950121568 -0.6006559783332881 -0.9987522220903574
Ni 1.6664785651537493 8.897545700827923 10.683026939068121 0.02861869217795716 -0.8696795009596957 0.5403813498129467
Ni 6.11396784079531 7.068864062269576 11.154151706359707 -0.0685684930980174 0.581314854802515 0.39718401635544504
Ni 5.0725021467652045 0.8307203250090898 10.613795457011955 1.1346867033378585 0.057860876872526154 1.343709677040918
Ni 1.2684962442067953 8.655242001012862 3.7078137896691197 0.789141494204628 1.6599067720293348 0.23270669047324438
Ni 6.3893664540561375 7.370036115545155 4.831567284451108 -1.2160261229482994 -2.8429644104714136 -0.6005670181639076
Ni 1.742566282708985 5.256243326820028 6.853569185264654 -0.6389751856284608 0.4274111906711026 -1.07772854078526
Ni 8.091052965493972 2.9830185033686254 9.063773731082 -0.4709512800455825 -0.019578950573192085 2.0387048296784243
Ni 9.132787422472813 1.5093541847114267 3.0948618875620895 0.43434262768361326 1.2784198546941725 -1.2871878306947895
Ni 7.910147697932681 8.582027266702708 6.801360592319993 0.4679921974172585 -1.7864523558627687 -0.10094073878113584
Ni 2.1539589480289507 1.7790253668578642 6.240684010510412 -1.0233129421488572 0.039525568898448056 0.6855964850314257
Ni 2.496437086218498 1.477037757048198 2.5861770348006057 -1.3721234522969208 -0.45285585599645234 0.2501480258781434
Ni 9.094910382077167 7.2074994053766135 4.848984050297825 -1.4500864992359608 0.7646257684514508 1.652992818518321
Ni 7.16813953491899 5.261266413654977 9.777941759682058 0.1947345821048453 -0.5916604597028972 0.4813943297557774
Ni 8.271921162303714 0.6964778659606622 0.25438598451381256 -1.2318875154605882 0.8198790324978009 0.35615743743143824
Ni 0.8664852593352056 7.9682839040500975 8.651191094637296 -1.3330889641022783 0.3515024551579301 -0.4967787826316477
Ni 7.365355933162037 0.6061253232092 8.636351672792054 -2.3001127447411034 0.6209108719275822 1.0499074048079338
Ni 7.826145374921638 4.994162381053339 5.24992832429358 -0.2646163946976475 0.2371256454765465 -0.21252558753967915
Ni 3.9572934602153635 7.656092569876447 4.284374261748849 -0.3651059048739777 1.5985430242098728 0.1244737889060695
Ni 4.968296264159714 6.133337308479896 9.033755690014836 1.4205365534929857 0.4779901891702349 0.19223135606701733
Ni 4.4909454641453985 3.426097393575479 12.58111892605886 -0.036302433975460055 -1.5095849117119098 0.6377683098045532
Ni 4.177790290431462 1.8947139147557948 8.29692167714866 0.8595292998995714 -0.4381182926759616 -1.601498764404087
Ni 4.830986200420569 7.28586697415214 13.187344340297242 -1.9348566874425066 0.3514456337780657 0.5798488117799497
Ni 1.7628439838065313 7.435104552202318 6.0297607018819575 0.5522261649666748 0.05909294950741435 -0.2847224214189032
Ni 0.2142939667130878 5.509529236781611 8.832802560015605 -0.5612846756245172 0.8022654331810958 2.2033860440413147
P 8.9332726376337 6.1715943240789235 7.075614646126731 0.36999537175579505 2.0430196550036945 -3.6646349876519984
Ni 3.46342764038577 3.8031254722091092 6.862087117201927 -1.0965521012496664 -0.2130025271760977 -0.08894782808531779
P 7.478820235967 8.97228960363949 4.703765868484395 1.5078221633845323 2.6250323072041826 -0.7737467569161125
Ni 0.10904454245148111 4.325582109171211 10.88775109126872 -0.0690667728906746 -1.2535320903135574 -1.557134893576731
P 2.380683664505356 4.178300013265267 11.312812669453756 -0.5332249412738236 -0.4328069077653772 0.23664330652348925
P 2.8780341349805973 0.7632877011718607 12.079867685751827 2.5367200558203344 -0.5052104583387685 -1.6223087591709027
P 1.8601083681843877 0.7010292274821452 8.350961565219864 0.7519898248549952 0.5773126756216573 1.195783056428547
Ni 3.0288194169079645 3.709345738476901 2.0531580139532775 1.4236463027665611 0.5725728469438268 -0.3422799081183976
