# total energy = -340887.89395767945 ev
CRYSTAL
PRIMVEC
9.15327801599107 0.00000000000000 0.00000000000000

0.00000000000000 9.15327801599107 0.00000000000000

0.00000000000000 0.00000000000000 13.39674760392867

PRIMCOORD
 96 1
Ni 6.611934571603843 2.264365417829513 11.400886698835452 0.600573703032127 0.5685130750521564 0.8778324690841334
Ni 4.941873199924771 0.42247047006650795 6.056709531346617 -0.050376395570022915 0.27283158351858816 -0.14870000844328585
Ni 3.1134509623257762 1.705530324655183 4.836761529859952 -0.45954020999516343 -0.17412719026713883 -0.30401700798245707
Ni 3.9306373323390074 4.39490075528129 4.767567323402425 -0.6073737566730959 0.07447097462538142 -0.09778548098160579
Ni 3.565622904782525 2.9359780515505958 2.5709563013715635 1.0878558590272491 -0.27667204031060094 1.0606109072683672
Ni 5.421944334296666 4.614396366214749 2.6383418200592628 -0.2558268214304755 -0.30741214970693514 -0.10938578422469548
Ni 5.575399043108151 3.165157830806306 0.5249606412584606 0.05968276057261335 -0.6382552767433007 -0.5331629776876367
Ni 5.8311507889418355 8.340274865501986 12.45115214461222 -0.020600706969487105 -0.5011625135216401 0.16840957105707124
Ni 1.8132369490861255 6.7496639484894025 0.1900275471369956 2.580401298758369 0.45203336009515704 -0.338339692523727
Ni 1.0262930102040095 0.2820893884900622 -0.07828524235323557 -1.043051558228365 0.31209387145332057 0.9109433927054892
Ni 8.336567787836096 9.020326821711835 6.759275805913975 -0.2453791437345903 0.19727894579325378 0.39043924143244374
Ni -0.30199410723634657 2.3707448169232848 1.1578851140649293 0.039003377846390894 1.0243431831855843 0.8410554094650999
Ni 7.2810758202143315 0.9930849169401818 4.845255772017844 0.6104007164248778 -1.336661511944885 -1.4271735991935293
Ni 1.0153914558828356 7.840954387102023 2.53366035406925 0.06112900610083666 0.03523002684688772 -1.1172610516622434
Ni 8.203772027893534 3.9744632283002 3.731811654208299 -0.46788163998132326 0.5059018279788384 0.01544615935174114
Ni 7.910208089867768 4.4052897260239705 12.64276503953127 -0.36426155459581133 -1.359755160539555 -0.4266218620005878
Ni 8.221474467907933 7.3307964273282 9.15331480049633 1.044891182540265 -0.03554575831509362 -0.5815246568204759
Ni 7.5426856640879425 0.586555796164821 0.2083972611312557 -0.11067416401881584 0.10133334623386421 -0.6414922956233597
Ni 1.9997624519886283 6.935594488309726 9.390316055963162 -0.1305127960112978 0.04469734290737464 -0.7195623004539091
Ni 0.31339085390745786 5.29203185698313 1.0867174608302033 -0.8533792211377754 -1.9629673296357937 0.8620266124001283
Ni 6.738103358138738 1.9785085400375237 6.863247892844465 0.6337296209588054 0.5135434036844962 1.9058844685798721
Ni 4.090618328498098 4.985680789329589 13.876753254429563 -2.007671100301071 -1.051881754925485 0.6696391903712209
Ni 6.331752726288031 5.810583372854785 4.529775224700206 -0.12293164122993021 0.025532597053465705 1.9047950921704353
Ni 5.320736537378765 3.1602974400888053 9.104885720934705 0.7542097153244495 -0.05518718669510495 0.6001736393802308
P 0.10437300051509751 6.009859392272313 12.278963421334616 0.4142312016457188 0.2596515944932044 0.8469974859811477
P 4.231066229005312 6.543495510596776 12.546871635928964 -0.37984218264288777 1.7969350005616473 -0.4453196955204073
P 2.7304594964092725 8.776099053116068 1.0608264981493702 -0.9610392809206157 0.24046679403463747 0.5270540365764212
P 6.577142961213597 7.921915132669432 5.563374381553385 0.7903314007476712 0.7821974587866272 -0.26363217640750725
P 4.956573364693709 1.2821545953759428 12.754802079872665 0.4975274878722142 2.111434653242983 -2.1308063729013758
P 4.236594809030491 6.383377215264875 8.338577847726045 -2.4402643493937455 0.412069932328342 -2.283119038396584
P 4.875255641276993 1.243097557350377 3.4230834802094945 0.10755644432544058 0.06115111758802372 0.012246935688153101
P 0.5316315504014258 5.926509641097998 3.421797444624167 -0.8698903314189211 -1.4267208279268266 0.6414092489912502
Ni 0.9667143224823297 0.06736538147568695 4.450560009283132 -0.058091247715777374 0.6420090873587783 0.7817981664656795
Ni 2.312941865169958 6.89555804951811 4.471686690667433 0.12928432292083541 -0.18714005758703897 1.3382095731582953
Ni 6.058298540439947 5.993575710376957 9.095373634242375 1.8149597192738423 -1.2669283091148051 1.075820782239586
Ni 8.797105826556113 2.750386183023206 10.105287768457881 0.3786234797444383 0.48909786904762215 0.4951011378189085
Ni 2.7105145032389637 5.5524883878051305 6.688004720635732 1.2457411335142288 0.23018546671328746 1.194155291017137
Ni 0.6829819205576322 0.07137177133830475 9.019226597673713 0.4434258209318041 -0.7765531160166561 0.4875978874633279
Ni 1.6799469121214459 1.5229956510423797 11.405884388725765 -0.012416628496797972 -1.5054570055864653 -0.9941082955604428
Ni 4.069675628005364 7.269570149532791 1.6436871159099444 1.2431774865521104 -0.965950087958672 -0.7293278644811052
Ni 6.168183645079486 7.959361193734018 7.747125047730973 -1.2237697714494602 1.5282076690194197 0.6790537988169014
Ni 5.580561492005835 2.610972602951167 4.918883826429339 -0.5644216785916021 1.2291714020810056 -0.7678103368270195
Ni 1.159317602101255 7.695527103260874 6.731263113349306 -0.3888197035511497 -1.0091523343777586 0.5853144628802114
Ni 5.3418714567134336 5.029470072178031 6.838758297054119 -0.2873320911276084 -0.595832845913032 0.261907994627549
Ni 0.8515642522294068 7.861265511399828 11.65480870435948 0.4905217459783423 0.0030305592962076838 -1.7676820172338008
Ni 4.891402023999538 0.8985690817050777 10.542343071988165 -0.5340479513957512 -0.8388404040916522 -1.2346090281568092
Ni 8.611257666239476 7.287794326403872 4.652101465052038 -0.2008854321975895 0.804407162114447 0.9735901210024329
Ni 7.516635434366649 6.3527686530062635 6.7446195768803365 1.049210378740909 -0.8033437538469391 -0.17129049214929212
Ni 2.39430535497761 5.531701293041582 2.5343166441152856 1.2521172122439015 -1.0835189222147918 -1.119579158272459
Ni 2.7087936869397353 5.370072706808762 11.137318968757562 -0.1496945111460712 0.8268426082998277 1.0350793386561656
Ni 1.3510238604578169 3.3342554920400302 3.8445315291024715 0.5245628947234514 -0.05624905230071603 -0.42074354884293996
Ni 1.674866842727448 1.1543107589327561 2.242629128117933 -0.8573415482196332 0.6355155092146345 1.2940567899004811
Ni 1.3599116935777664 3.5414033306987083 8.114115668048113 -2.0977391580337614 0.059067495586117624 -0.6079450557955337
Ni 4.149959030986905 2.6596222765171107 6.904724142294956 -0.7196456041963348 0.8313618363264199 0.10000768544390518
Ni 4.434387997381663 7.297075750485878 5.906720253656874 -0.1420310810635425 -1.3751313858853091 -0.18064699366352757
Ni 8.733051185800802 7.538511769234495 0.5667883765913475 -1.3044234778467858 0.12966176086491218 -0.6616759696600862
P 0.655967850643207 5.795114332718106 8.017913798970891 0.17817282109142218 0.8536113917532395 -0.5524773617455323
P 8.86533436216487 1.7031870854392126 8.130619943947783 0.4154722731416716 1.4923590347519267 -2.2386505236705636
P 2.0104809407460547 3.4383282650305818 10.663329272413366 -0.04247822376886878 0.7178013518987444 -2.5549450634687934
P 4.385665097590221 6.300183069819745 3.6852846258540093 -1.1126389795091998 0.38474964724683414 -0.057581912179526636
P 6.988555355901928 4.210791717820257 10.393143722205995 0.4458128331067419 0.4700814758461194 -0.5996491343353285
P 6.4672944696868075 8.179323621855033 10.087296084852758 -0.21951590281458325 0.22490107838589654 0.7077961610569166
P 2.7578277981895494 8.740730786200018 5.766147868566312 0.574422755668372 0.47168764399097474 -0.28427016437283303
P 7.3288284725179125 4.128659352644864 1.6045952954272669 0.34488057896603835 0.7629856617448667 -0.6768027979991956
Ni 2.9668245990420785 1.7836810138190642 13.806955846939488 1.3016312598136293 0.0775267307325697 -1.4556220843422094
Ni 1.5174762242953872 1.1047549108262615 6.806539673162349 0.18696290857922637 0.4858338535843697 0.09048740465829577
Ni 7.246989012244516 1.0081603661148026 9.233816051498735 -2.2883347782695687 -0.5551567083499084 -0.8635584756636224
Ni 2.710578576186275 1.8160012390987152 8.856348588968316 1.0624860128038929 -0.5227232704115513 1.702803571392861
Ni 6.730991260987141 2.249363194880391 2.6011255062771794 0.03624021327895694 -0.29554316618349097 0.19949626515954674
Ni 4.310956041024795 7.328279275826669 10.264012019521843 0.4026733216047903 0.8204055944252322 1.5390219860261043
Ni 7.189387432611311 6.520584855293754 11.358031050362124 0.9028603585870387 -0.31219285892503007 0.28560251003101134
Ni 7.997475444106282 4.646066708743096 8.32649368986306 -0.6407338201907804 -1.2023347415041357 -0.1209601193258562
Ni 3.4712800665051624 8.923356992594695 12.243836800962713 -1.3194572322514566 -1.1482968379221257 0.8655713923285931
Ni 0.28104957608797543 5.315866993383077 10.189754219571057 0.012868371322235901 -0.67259261657259 0.9162645478080865
Ni 9.056628723003 2.75894449812841 5.868632547791353 -0.9364538782717678 -0.5407271631881397 0.3335625828500578
Ni 3.9650078919326326 3.1742744958809403 11.55189473638745 -0.10291560311931952 -1.5541207893407558 0.5711332862838228
Ni 1.1781184354981409 3.2467226927340813 12.777135163322061 0.20576975687308435 2.146720473028471 0.46461685318712237
Ni 3.4505295848543636 8.635367400985045 8.320291428563289 0.5900890014507192 0.019681280479011267 -1.1300540896618538
Ni 5.686382541130177 8.283872365311327 3.510925660318177 0.22245930171362333 -0.42315292961538087 0.03846241774125634
Ni 3.3053219796897104 8.850597584283182 3.3058620231027667 -0.025957600406026266 0.02310367589699892 0.4345586003491612
Ni 3.3233630909970437 4.443852487027418 8.822977567352753 0.6543804644399376 0.30873292540088765 0.9682849067394357
Ni 5.187611259421457 5.0644630546883995 11.364019124952309 0.8823324138370158 -0.216616212669285 -0.37306218360657684
Ni 7.812377852601012 9.037681437155115 2.504093434868364 1.2319116838303041 -0.33672452551780724 1.1921410888005854
Ni 5.350795902946133 0.6241135272232934 1.2394179395190488 -0.7306838642883674 -1.0708654951168395 2.0519817492929886
Ni 6.2583892016161515 5.812889998958005 0.43967222576405796 0.7041400523615681 1.0899482227799033 -0.1512878237751201
Ni 8.189474607364842 9.329478792490717 11.15450699453783 0.2043170835869578 -0.5788216560670161 0.8174405982596374
Ni 9.806364586053402 5.088856541057777 5.896578421425254 -1.851507693601205 0.5558902440818233 -1.053322858247386
Ni 7.515170909856667 6.353729747215939 2.6761476049566126 0.6529339618013981 -0.2938470094279907 -1.5483082964240367
P 8.858570089584394 1.5226112133585095 3.3375186357138324 0.6962405950088333 1.9771963287509817 0.6429593670871895
P 2.313500215139388 3.7466289809380355 1.141679235034167 -0.8782093928075778 1.1016593405692447 0.0038849368767029865
P 5.042293814918556 1.1231346934265278 8.210478634821431 0.11780151909221646 0.4391197373572825 0.03649989469824681
P 8.73144936211801 1.9529068209474116 12.33774851983745 -1.0130472985567909 -0.6682680210553071 -0.23975588401054196
P 6.591147476840295 7.894226466152596 1.285449775523401 -0.7827409899949229 -1.2775042848584384 -1.25712880652588
P 2.106379836315272 3.3946030551294504 5.987274593672763 0.8796006167281497 -0.2700771607019026 -0.3607399145957981
P 7.050266757441268 4.009172459186758 5.830612576184418 1.0245745824701 0.5157573806166795 0.2118326752377126
P 2.5050600210449514 9.008464173180988 10.289559734270648 0.091649543287197 -0.6100096516340462 -0.8695591733317476
