# total energy = -340871.65823488287 ev
CRYSTAL
PRIMVEC
9.24664653500738 0.00000000000000 0.00000000000000
0.00000000000000 9.24664653500738 0.00000000000000
0.00000000000000 0.00000000000000 13.53340186934192
PRIMCOORD
 96 1
Ni 0.945469629492475 8.074902421257303 12.35074513023116 -0.32481003346840837 0.7974528422838008 1.3701899827196338
Ni 5.287343567524217 3.157739109450462 2.2963880747102503 0.7036682549314721 -0.340115296366911 -1.3216586107781496
Ni 3.653535061174247 1.7113971191721835 8.124168555105086 -0.296890681350321 0.7943232955158835 -0.04758906263287288
Ni 2.8243050278905732 6.567800715229439 2.4000540806776445 -0.7959369198599066 -0.3920700921676473 -2.335848764690132
Ni 7.755042417116434 9.28862651941683 6.939509441653468 -0.7065280929777703 -0.992412910135891 -0.6681032133426688
Ni 7.260910861806426 3.0017944121263485 4.219701693272502 -0.6264382295037146 0.34001605178488536 0.29694493162702407
Ni 5.002408148132425 9.215772189727137 12.206046204676129 -0.5396884375109802 -0.6301668433082116 0.5380992386469894
Ni 7.414118551694552 3.416848644488488 11.514759496836902 0.09605564277469263 2.308503797018276 2.1041820854456272
Ni 8.02217804152756 7.766609972192181 2.9481573883630525 0.3229148733282245 0.10719880387570571 0.4219643086239185
Ni 5.389417300922432 8.614425765429694 7.328675837128661 -1.177715914514191 -0.7001180756863684 -0.12904726720936485
Ni 0.18596116198189794 2.0952624120695 10.98961006502682 1.1950508062482128 -3.922470097761754 -0.27946528678502197
Ni 5.514820324053746 3.7607221902214527 7.127244110480711 -1.9141670203036387 0.3307721645891142 -0.29792220793862884
Ni 2.615145878559328 1.7452398462523053 11.730103728174674 -0.7885416558371 -1.3735349879324668 0.9119654062121002
Ni 0.35700748276701 3.9280957429201644 11.907349925601105 2.046840571411681 1.6384856260410814 1.8507420190797739
Ni 2.0100730556243738 3.5488075401607335 10.1743850029004 -1.0240619044997397 -0.5623293148389477 -0.32437525992383487
Ni 5.3852470632412475 5.616172819005991 8.949760957559985 0.7857085572636792 -0.44838445048866005 1.491112306829019
Ni 3.94020885015376 8.191733802857668 3.4030276816014227 0.6336542876361797 1.6970872377343742 1.2569850818591641
Ni 9.117175195504368 0.16296475153155285 1.3967143125428352 -1.8646917963916465 -2.6340324538202635 -0.9032719922031605
Ni 8.668601868698119 0.9587570608624574 3.4772727069612945 -0.8029925411551073 -0.35819169425264763 0.6016085720545445
Ni 0.15675470357881796 8.218290172304146 8.155363042557955 0.5277058112278072 0.5865637619062801 1.1529973287215887
Ni 8.75100798447354 1.3042025365417667 8.988615367174923 -0.8271316002951562 -0.7989137431000435 -1.1856624230547772
Ni 6.182169312804171 7.728005222039311 5.1566995450188555 0.34917097881127607 -2.05883811009319 -0.26270349394565085
Ni 1.439980297318955 8.510465716095865 3.466242382061328 -0.9388992544884669 0.4510504273565974 0.7700351123924802
Ni 2.6621465839550273 7.806241100133548 8.216750605621403 1.7325430074388226 2.5739100346070707 0.013513461105402535
P 7.960808047092925 7.527806073402228 0.5869900805639472 0.72768184423725 0.3888132757932465 0.22743721454418897
P 4.294244460657505 9.188790474530471 9.26518349592879 -0.20855426159675697 -1.8824928291288097 0.2657844468638197
P 1.717490659375954 5.897141426944948 12.14591711023443 -0.7403028754353702 0.12599768174976367 -0.5313516355105107
P 8.74717062607511 8.799747059456962 10.556609016000799 -0.0920704328746995 0.7632774819536726 -0.328346328756441
P 8.513572589401582 3.5422331743263165 9.681308489983792 0.3491249560646891 0.0033797151055103085 -1.4357878232251013
P 6.80064977351677 6.855140262774463 7.498045740859231 -0.1803592872197797 -0.0009438519705080519 -1.2655486551584592
P 4.003844273040481 3.8332343939816482 9.838269393784982 1.9493165716215786 -0.6533265692541264 -0.48241840014491755
P 1.1378091283978342 0.9400695877944448 13.476047244244137 2.0834913898654954 -0.004632613676004925 -2.4010671103689942
Ni 5.050731124012404 3.18524788351149 4.55707577100967 -1.9461620851529964 0.23673920867140516 2.0125479687773984
Ni 1.8791775243275963 0.6721674163683075 9.5616189698751 0.16418961943845273 -0.1513518442438361 1.404442990365233
Ni 2.9530738304364137 4.335077652675488 7.946218687861499 0.6295886022072383 0.11525561274191118 -0.05362986951031409
Ni 4.203886228682928 6.320203255386701 7.191176350727889 0.08293736022517974 -0.4475490990715583 -1.2485796314042883
Ni 0.756617965738652 3.128824845084467 8.04359142605547 -0.6312369364439386 0.35114121516376945 -0.47511878115971073
Ni 7.897006184564826 5.362685245187833 2.0715577084786254 0.1602190648264789 0.00960255608677056 0.10558749352452783
Ni 4.518161258190901 5.996200753504878 4.2479317057795 1.5540261727444205 -0.3338250924828251 0.25288085142827416
Ni 1.9999387307938237 3.024985002158301 5.98145235194947 1.1101159559770302 0.2490025994197905 -0.20353623955687525
Ni 5.347113892072279 4.400294252155296 12.609368291650492 0.15587390048390576 -0.1555090609453193 -0.2571100590182734
Ni 0.22057598406507722 3.0577736115096976 4.220824236187127 1.8992710770284127 1.0088815972148755 -2.0273305264032118
Ni 6.322977249409662 1.1207860517435981 8.599935345318421 -0.7033275837626015 -0.2032742441447402 0.312906597162603
Ni 8.833451086835936 6.923537708733933 6.307878399942686 -1.2629924643955086 1.6852493645591817 1.6467638068894734
Ni 3.670373204893619 6.384735603007512 12.983742826330587 -0.5831832754698215 0.7306707516622448 0.11509234769116954
Ni 8.562579817140556 5.728778483044714 9.785218607425206 -1.1639147469650406 -0.5264737385929191 0.7942158234037419
Ni 6.2178243826459605 3.2305287126129536 9.633454319093694 -0.7529958975220065 0.6394711514282729 -1.4659496915204624
Ni 7.211052942567077 1.083559051955464 10.964668160101706 -0.5048757007071693 -1.2866563836713518 -0.2192747333380546
Ni 6.876268850582681 7.7936379206225626 9.421765287213509 0.46364703307468536 0.6399246940259237 -0.0007379066072890517
Ni 2.378727614629122 9.015665507557488 1.4558013098965747 1.0312890183757981 -0.5159149892404663 -1.4447519743969246
Ni 1.4125362497851295 4.3641491100361165 0.8021419816494617 -2.1087380802474263 0.9396875547177171 0.7266857988725678
Ni 3.9182018309049376 1.335382229359846 2.677596805998245 -0.36853267116733945 -0.24476233608619785 0.6806931341925373
Ni 1.3756328826330073 5.439987211961006 6.427662235848157 -0.23545905640740095 -1.1839981479784771 0.14835908016409932
Ni 1.177578956040349 1.903977030892866 1.8717913029091262 1.1060255879577403 1.9855997223233286 1.1029040116096231
Ni 5.818988768671399 7.0892283717253815 2.383706009235662 -0.15458140692472733 -0.008753834933230085 0.3208639043364668
Ni 2.701555792374557 3.946496569939138 12.496175465543576 1.954653924674092 0.4311752856992252 -0.10089523025518107
P 2.105378243606564 1.6450154422027314 3.939437679815377 -0.6013283218099644 -0.21803494739368257 0.45581519573509244
P 6.038938754751961 4.906150555535686 3.23134334219103 1.3606607030729598 0.4777307648612611 0.04089699532467796
P 0.9085449950528438 5.293834713537945 2.886052285512332 0.2571349987189378 0.6915732714401509 -0.41934126917877457
P 3.184942744168964 3.5613090065575435 1.4651265531370947 1.7090976319316888 -1.612580476139545 -0.6707159683751674
P 8.663072373945683 8.70362816656137 4.959098704116614 -0.19606101422575267 -1.6762016525346164 0.28491422571473507
P 8.00826183817904 3.9737556845380992 0.31892701748447827 0.6837684306837515 -0.1600704550637566 -1.442089597073413
P 3.649059684150537 4.694337618589143 5.7076036620027795 -0.8776512063112626 -1.4174327177566814 0.9817813985639736
P 1.3331815274349639 0.9586183611613094 7.627601433042918 0.3327398298384463 -0.24652765551673672 -1.6238575917152613
Ni 6.5416419515929185 0.2969264708883762 0.41311890919878685 0.2064618978441025 -0.45413318004697917 1.2770183463609557
Ni 6.192026238232425 0.6309625091512477 4.898563681882888 0.23445375507133814 2.0598120439706844 -1.2248131251123098
Ni 3.2875620297250276 0.907188511975616 5.715277454134964 0.5729597979696004 -0.6020770270505309 -0.40524082522165045
Ni 6.107854012929051 6.583214875350357 0.1332404809108535 -0.7571484862377993 -0.10871241230675471 -0.3771594936044021
Ni 1.5704227429253153 8.431175720272902 5.942395440770857 0.08784353927754548 -0.6306630662183397 0.5531247655215441
Ni 2.5234561294537303 3.952377437267815 3.6173973163724624 0.744771195619369 -0.30709873223157436 -0.29041767203146757
Ni 7.517699488511909 4.833804791416868 7.941603686471967 0.787301869892728 -1.259112155504496 -0.07490086307394841
Ni 8.848680314021989 5.773689446276449 4.534149635074573 1.43369725924466 -1.4483600034631572 -3.0774086524610547
Ni 8.412127627981905 1.6912579225654882 13.149662806161267 -0.34152503223024405 1.0697771471486672 0.10829640781525865
Ni 7.882193056482215 2.544658690435894 1.9730753726754713 0.3071951486001226 0.8595149017218681 -0.9877923806447441
Ni 0.7547649377313141 6.77628485934843 1.1428670441663662 -0.4403057872455836 0.4029497151946286 0.02878658521438913
Ni 0.8532213829235877 7.222121178718691 10.208624411125806 1.9408435011535607 0.023212690671037442 1.1045742002231944
Ni 7.423716571013996 2.4007438805246872 6.880760871570529 0.8391695052962967 0.6858474246999672 -0.5814030436409472
Ni 4.774330359564589 1.4774846965093853 10.543643367937479 -0.6062041618450269 2.214112943540516 0.15877281929825557
Ni 4.407219990565955 1.8546831571048525 0.3191637316411043 -0.3874829870175972 0.4245228133797141 -0.3372857973379159
Ni 7.057197987406928 5.347844377164992 5.734684316319597 -2.2153488728301456 -0.8862420333040673 -0.17208547724676168
Ni 2.333141646185133 6.389775025482558 4.5369374990676485 -1.7180165316878737 0.3436919579745758 1.1066040861690298
Ni 0.29000073247771735 1.277479727453911 5.773416670197524 0.17656279629182497 0.5949100769884464 0.42799020310302416
Ni 4.4888771279551785 5.289266870046803 1.383398216567949 0.2769643747400391 -0.6646520215692747 0.2885639066521804
Ni 7.208602581180129 7.678914774479647 11.885899554486222 0.8190166844975056 1.2488022889380557 -0.2510507401980709
Ni 4.9379220337453305 7.142886662776187 11.085873205611605 0.8895592706027583 -0.8000519704695447 -0.4012782410294767
Ni 2.9678869585190246 8.134469319577015 10.8384690006858 -0.045162198358935125 1.3334252643957745 0.2797691911786859
Ni 3.035766592260875 5.8236305853364865 10.015421275414631 -0.5407893838846428 0.4991578243867856 0.48644114815106543
Ni 8.710017599460922 5.803962967713694 12.480219451923507 -0.9495459355690357 2.077395561380403 1.3373621375563356
P 6.119033208841583 2.1386291852951205 12.501764138835169 -1.9931032297892253 -1.1390213261574706 1.0072957407849943
P 1.387283657529443 6.285842716088959 8.378488327130134 -1.211792544482926 -2.322468486728484 -0.09238590723258927
P 3.8888992073757285 7.809052080743482 5.7127337016159085 -0.7455736369160063 1.3380882170890829 -1.108078356721711
P 6.5599780520846895 5.75475231374637 10.915446410158287 0.23543617358926552 -0.5374436073408615 0.6170328770294148
P 5.254490231645617 1.6201881956972324 6.589373142081331 0.5350180286185043 0.9197054551688354 -0.09179558194675803
P 8.924946656359925 3.9187288897693002 6.029793821122934 -0.5616718837606068 0.5834344722486791 1.043013505901578
P 6.372511536012998 1.1034855756870658 2.616737226463833 -0.4460442323912576 0.18961397304882827 0.4756026627746648
P 4.320856309984443 8.321177610615763 0.6112172196958126 0.6551160570543814 -0.6645854299973974 0.3650197729180746
