# total energy = -340868.3531395183 ev
CRYSTAL
PRIMVEC
9.26634787236395 0.00000000000000 0.00000000000000

0.00000000000000 9.26634787236395 0.00000000000000

0.00000000000000 0.00000000000000 13.56223676800290

PRIMCOORD
 96 1
Ni 6.254089931101243 6.711949452656443 6.782881493408518 1.0266636037886447 -0.25341692643740227 -0.2851787922300314
Ni 5.630168186846832 2.6726186259333744 7.901970002943886 -0.4614261141639666 2.6591256493434656 0.3198794289360104
Ni 8.099853791346538 8.404874168813754 5.668797738433711 -1.010804525269201 0.5119570330339828 -1.2452981324395391
Ni 4.4540647646366125 1.3949374968301944 5.222383083306489 -1.0423285640194113 0.5760860023034079 0.23242129802234163
Ni 4.3958443000855745 8.274292792647396 6.964845695928839 1.9201780023844093 -0.911134939891005 -0.2562813924693909
Ni 0.29370616654618664 5.117933735165021 13.232444109160037 0.622817859142308 -0.0550599170886213 -0.6927066137136457
Ni 7.268161991996891 4.023059119616333 11.995635914497118 0.0902467494023994 -1.155505954076055 0.48902716371068683
Ni 0.28773307861850894 7.001921280954329 8.99202055771822 -0.7127506768487144 0.9500462722442218 -0.7378721545066905
Ni 5.990888582206181 -0.3338396464151981 12.491267850448212 -1.2568994641238935 0.8771030471172766 1.6392217328761576
Ni 7.994078428804745 5.396526488105805 7.877204761250571 -0.9657397717200787 -0.8017404139155612 -0.8264728836652347
Ni 0.46851952830667465 4.696277835287507 9.126368704350915 1.2630225463024958 -1.171545524037421 0.8169448895701414
Ni 1.5352207393637227 0.053551151788461225 0.5032516539202668 0.25930783800054047 -0.7953753909294818 1.3156594557719212
Ni 5.222967789865962 4.502555563776447 -0.03740454037986929 0.39955405924951837 -0.2192716480142611 -1.1667352471329713
Ni 7.278484703680777 6.615106849596934 4.391899615737432 -0.6913493283548029 -1.9871331282487195 0.5300704548052418
Ni 3.786896974216405 8.60158020438425 4.100135675734282 -0.8679141815291569 -0.14531720801398199 -0.3150984626075993
Ni 4.785188444449883 6.268749293654122 4.781678351823441 -0.9198990592368802 -0.7061966777802806 0.5161312190163305
Ni 5.366911239863705 7.258108004405314 0.48638690054084793 0.4311979114070445 -1.4975192387966274 0.03943198074337725
Ni 6.345141066654083 0.7572431795275242 6.320599143947824 0.6487384356628118 0.20068231504784795 0.636194280449214
Ni 2.9741363238525556 7.915045746621743 8.879332499560466 -0.8632779683087263 2.2113122408669272 -0.5372322626610038
Ni 4.938379709762274 4.074181561591197 10.957609417359087 0.660511774148656 0.745117266104878 0.3969970971556195
Ni 1.9265942139423677 3.6241150387129704 0.5750269323413121 1.0762763817197656 1.239665359633794 -0.744805391291414
Ni 4.449941239771864 4.009687779436937 5.891639508568302 -0.6371625578997543 -0.06934753735588702 0.8368161745727718
Ni 7.212675100109001 8.582250602433993 10.670401740672785 1.4197194569083291 -1.3349720400576042 -0.972800535221602
Ni 1.2121958477117771 2.7164021202837887 4.121251829580996 -0.6435473783801755 1.3851543173389498 0.23501656955334363
P 3.821460452296203 2.127627634033847 7.041920398777187 -1.0526363737033224 0.5211384424229347 1.2687792462806151
P 9.373096339752609 3.8334325739259882 11.3150828843755 0.12746475321359338 -0.6615939514692413 0.03455228405357275
P 7.187859820136428 1.724439565741598 0.37095415010233346 -1.3011064976584108 -1.9715381020239402 0.4679857696593553
P 2.7338043218478263 8.855320611960417 6.072545494145804 -3.554989522008013 0.9793187959560941 -0.7970576637279112
P 9.073348514303465 7.150451573217354 12.224078265369357 -0.381058314438176 0.42086593335341715 0.20054064726366108
P 3.4896788617741747 1.4428259833493353 3.329773200693252 -0.20012849942690694 -1.1369060795866806 -2.154619673270889
P 1.8196049598111759 7.907280546988802 2.332460256809701 -0.6481103151605097 -0.40578049977520436 0.7171680891901197
P 2.5833188301545507 5.165627628375938 5.00845276005376 0.4543244701221789 -0.6515779619941359 -2.133743858263145
Ni 1.2093881442645442 2.3890683768068817 9.557715350977988 -0.4032857583778086 0.10003982423342125 1.9656826716844273
Ni 1.1367770412529365 5.777354858648308 2.8268449423185573 0.0873912822314753 -0.1623512806781333 0.39645613705048494
Ni 5.611579892737428 7.710268721933954 8.971026719665247 0.8507451259490381 -0.41013414875820975 0.5848344379199992
Ni 8.444200549771034 -0.07115906627833578 12.932840838739859 0.48535537128605444 0.6773345021329495 -0.6929626955885098
Ni 0.6743501367632773 8.259142313649951 7.014918260674095 2.8042518243925643 -1.131406232814374 0.020572167724396826
Ni 0.830340765809692 0.5025149792534186 4.652172798661122 -1.3100601073072728 0.11702581726845654 0.28811653470211673
Ni 5.820897427950445 0.7636517858117033 3.4701555931504946 1.3092232132282744 -0.00971928417029294 0.14057995043931273
Ni 7.19466131957626 2.847298552282509 3.0084023521612107 0.5350375690025302 -1.8725272332756655 0.7621837346688615
Ni 3.6026541767202596 1.4904828111682094 0.35537371255719347 -2.296093596279381 0.4274052771338317 -1.74597445035338
Ni 8.682605151389545 7.822095009726715 3.0836191522334193 0.8701006476575144 -1.9749664109791985 1.3195703607905531
Ni 1.5033445022070189 7.5840332629846 4.72055381380586 -0.18429153239465035 -1.3308451623734239 -1.1237836832721098
Ni 5.568509907183835 4.7770711235925365 2.8309814400705204 -0.08537836556650456 0.36408286292610204 0.3077291667267216
Ni 1.0134882809709764 4.38623509719851 6.238046176155569 -1.182416148203338 0.10646218281999728 0.7094138991659976
Ni 7.364578343047909 5.833481128548935 13.222950735623105 -0.8680399084737438 3.026950238700187 0.514456659527385
Ni 5.318059053151454 2.3258070189380398 1.5851135369575715 0.4284802553655653 0.6255000339601614 0.7202855517731789
Ni 7.126183007777411 4.04861570742976 1.1656537615585867 -0.09918313266008079 1.8252631580823793 -0.25153462181302483
Ni 4.009919438137203 8.951959355363693 10.902899045434491 0.43654297776904166 0.00904462670077152 -0.09764946962437375
Ni 3.509073328160506 3.4503802798609247 3.680506326166702 0.1618792261377212 1.9311648404132162 -0.5942945548916345
Ni 2.4463158748167992 4.142687672434079 10.719103812547264 -0.9099609741875619 1.6431262101368862 0.34114425185205766
Ni 3.684096109386035 2.2521673512972473 10.190095417696538 0.3386873056711328 -1.6060897262088791 -0.17734518298380425
Ni 0.14705416302492483 -0.04894670346195945 9.917698145035688 -0.2028890928911796 0.3441406154762202 -0.41029869936053204
Ni 3.7198178809671667 6.503975537904972 2.5684843336242693 -0.5938739224144481 0.07497182552119992 1.790484102729981
Ni 1.7964576224805229 1.9225448198617052 1.9777407484220604 -0.028905370180440544 -0.785506468555202 1.0003221376806384
Ni 5.6110609772488305 7.6174199148670425 2.8576722288804537 1.8569571467515504 -0.6956315006699245 1.4501474343808831
P 7.356210830794275 6.385273619888293 2.043733825684448 -0.7540711328640561 0.09594174290464767 -0.5482054738430558
P -0.03985270952428821 4.000866216130779 2.327646389018158 0.2028168448923475 -0.6979773751942818 0.9079192611671848
P 5.864764319432956 0.9330378475423421 10.575004687902942 -0.8169731717049157 1.539946811833219 0.602233350122737
P 5.9768593313180265 6.8230714980003935 11.627001131301856 -0.3681884004540433 -0.1759920113900195 -0.030511538325295837
P 2.331746748012879 5.962811547733852 8.893016115667821 -0.7619865310563909 -2.026914779022032 0.29335130073849475
P 7.99070547812886 1.5560792887357402 4.8087759333110425 0.4178749690458932 -0.3447792775014836 -0.3409151665603871
P 3.2913604816498214 2.9652591624583335 12.294249538949757 0.5094962301983161 -0.12191322726774488 0.5660057352492703
P 7.674417221480672 8.298394563823148 8.448161913545597 0.7033345257411371 0.159553406218022 -0.13294583093282264
Ni 7.527221283331184 3.50386564057851 9.751031756446181 0.7684379431086895 0.1263460662281179 -0.9998197441229233
Ni 8.663766665883854 0.7264288658528432 7.239684651290501 -0.3089362996609454 1.9352356680484801 0.2637350205339587
Ni 8.95111611769472 0.5167786687462423 2.455768476422483 0.6277227526430931 3.345533831642909 -1.0696025692440159
Ni 2.515072177055968 6.147804919418862 0.7854054644015515 -4.025193639474926 1.505960427585445 -1.4568490147707749
Ni 8.237848245921432 1.6959733446528205 11.24367733324008 -0.17913338523247857 0.3522624732524062 0.38629822268087666
Ni 8.85646963911374 2.8593818700884217 0.5812409453172672 3.060231112240504 -1.2501251215145373 -0.8402812503032367
Ni 1.8297701435788802 8.822184151474262 11.754851714709469 -0.7238940950600435 -0.1483580517228348 0.0896289133127424
Ni 4.361354952789862 5.836789214788744 8.065503439270985 0.9982063768892163 -0.8838575922322907 -0.1623980747556687
Ni 6.998576129322479 8.801585059846545 1.4776739383130606 0.9173469822389879 0.8493803843910275 -1.1374658087448926
Ni 4.656358408057542 9.230459444824369 1.5504481290496563 -0.7815436272527121 0.20122456070456315 0.5413879367005903
Ni 5.555416557444759 2.22508181606206 12.662029964858435 -0.0504913238813324 -0.03255042313219555 -1.7965233669455252
Ni 1.3950116276142799 6.534999271044694 10.989575538091495 0.8748301919226997 -0.7887643133708674 0.07101669752819383
Ni 4.009558050564787 6.4759726342167285 10.439043270081587 0.445095238214427 -0.760117339058136 -0.2927244657877733
Ni 8.2499778954674 3.8260009628214307 4.751557160979958 2.0943219048220962 1.329819292212071 -1.910876522477825
Ni 4.743582541881977 0.5804282865967314 8.587622304375778 -0.6656853479297955 0.663560845387625 0.3777765583631107
Ni 2.79141320743016 3.825722972381111 8.105064258832938 -0.2676672657088293 -0.14008655574266196 -0.417764668720274
Ni 2.684998466875629 6.508080530073699 6.573765037947331 -0.5606868941395182 0.4738180600704162 1.2574597075027374
Ni 3.8086636256934683 6.2329533912889055 12.621682432350376 0.18020373547852192 -0.014575840931645864 -0.9023121993930525
Ni 1.2584163915889979 1.8558734459249366 12.542777625769922 0.14083577520386067 0.738840946177863 -0.7827088512054068
Ni 7.651093823537817 2.950229145985028 6.6452929048764915 -0.3505501185469898 -0.3407164202860196 1.9054918611271443
Ni 1.669369659514188 1.6433126889081848 6.662693253170927 0.9410255568028503 0.09070877664048249 0.26706845578256583
Ni 7.653123153752153 5.951951387865346 10.186758605777896 -0.3855492603299941 0.6511035934608786 1.3559620120457099
Ni 9.203244180717032 7.562359274987643 0.8143896743441252 0.10887799135034151 -1.5522485120187073 0.4832781770420515
Ni 7.1372377609541395 1.372753859692651 8.852492522547562 0.8635471628097128 -1.7130383617469918 1.140177808359417
P 0.2142212865802641 2.811650911485462 7.872553054549215 -1.3561023942783161 0.7290216460945961 -2.288431708858749
P 8.812927069811604 6.427481835076893 6.159357275483763 0.5175872347365666 -0.5807587251887288 -0.5567011700188929
P 6.415009330654533 4.628707625593704 5.40562326194788 -0.25742399071426636 1.0719859818745279 0.19224883956851407
P 5.72631581380554 8.284513574503166 5.187473970445893 1.0919030325134294 -0.5489274396107451 -1.1381111556383756
P 3.752694883709023 4.670535920513867 1.355788103119916 0.5347056395844082 -1.5325116957114122 2.154265889475896
P 3.531581287478423 8.370579414826265 13.433531274069978 -0.35043056224999003 0.49065390068083237 -1.4018814002856437
P 2.1435472199161776 0.578734398180381 9.656679021097139 2.28037849953697 -1.8972746154236744 1.056735997693993
P 5.979741165549345 4.799152830901963 9.122868804707284 -0.5034415393638039 0.5606149032510022 -0.7500825805299534
