# total energy = -381159.15921333246 ev
CRYSTAL
PRIMVEC
9.35255678744374 0.00000000000000 0.00000000000000
0.00000000000000 9.35255678744374 0.00000000000000
0.00000000000000 0.00000000000000 13.68841222936048
PRIMCOORD
 96 1
Ni 4.252457935532758 1.9954895762751181 8.877729360693024 -1.1371508486076352 1.6647101069552492 4.315911102135
Ni 2.4275777003824395 7.6109891396737 10.166589313797331 0.148954290545937 1.426011203454312 1.5989870537258268
Ni 4.501553933313589 0.9939897365828169 4.996955125926472 0.54260329716493 -0.6118541610419527 1.3162639221251395
Ni 3.8075942188381937 2.5962136520226804 12.643849666406675 2.116398425006161 0.013058375845854928 -0.8378106772755571
Ni 4.644535821654557 5.937171401938564 3.852877428346913 0.18573212149591883 -0.29367217441302323 -0.21190492323654475
Ni 8.976986175487962 4.055053519179224 7.962727577810657 1.3892259163051623 -0.04679484886635167 1.462529867205636
Ni 7.0878632276862765 1.226559766500063 4.350875825982839 -0.30821099145914665 0.0982279678356631 1.2826912283760168
Ni 5.453232702938364 1.99096293878447 2.7493178125870545 1.4373597956979116 -0.08092727177368644 -0.14354237550174634
Ni 2.8781838869515037 5.384014430070003 11.372675398209012 -0.8514946025205529 0.62303357469754 0.7797153157947218
Ni 5.337737979029245 1.464657157485435 7.257390477989449 2.705686013601508 -0.9521563766086892 -4.128782100291554
Ni 5.974544218906808 7.094597068581456 2.5347103032576985 -0.3526445391821733 2.074460904232111 -0.48822755062752693
Ni 5.4973300082449885 7.478033192221109 0.449219202395793 0.03280290546263383 0.7938543262992651 -1.5547319405621935
Ni 0.474786286916836 4.69118637496727 2.0941627915258083 1.1568642678761625 -1.1525509852127893 0.383287717989327
Ni 6.337114788328205 8.649627982414273 9.71555571538256 0.7166057889287465 -0.9660092233313815 0.26631949343168326
Ni 1.4567448944335997 0.35869019360555 9.45168454837089 0.7317141053250946 -0.7219045754338407 -1.4758546093390001
Ni 3.3304174184035693 2.333893138928261 1.1228006308621528 0.8194303749961565 1.3985441083822945 0.7715392077418326
Ni 2.0586941551218128 0.6545442991022806 11.440241074291013 1.7148831282652142 -0.013696266540169961 2.206868860383593
Ni 8.264976026390768 6.8434902710888705 13.32294536236164 2.249561771266429 -0.19961556434623043 0.7737938081039641
Ni 6.750507151394606 3.5758565664760464 7.246440504489343 0.9414225351309529 0.10893609828178659 1.9586437625597755
Ni 0.6587071221334532 4.089115531040672 10.459384197965155 -2.7413919516435494 1.5443580535270371 0.3547800974679374
Ni 7.761845880839307 5.319528550941865 11.42436230335791 -0.9356514369751305 0.7374417518374912 -0.1127457018358639
Ni 4.77484499553307 6.539251598421961 10.107592450254444 -0.046929060451370797 -0.357162738767501 0.6971088565463994
Ni 8.966735773236412 3.1773067110494355 5.864239228765376 -1.1218612694384162 -0.7792219210980709 0.8426338096958134
Ni 9.245011748229686 2.0439451730500107 0.0417451372717106 2.2634318443803023 -1.4902124207225689 1.2269114024022354
P 7.6327618919014455 0.9267252128297375 7.000076388549459 -1.2601053726557008 0.6959384903873821 -0.3157188698004175
Ni 2.069636646576478 5.154886141054738 0.2490520407638766 0.2830697163068286 0.15926981353933214 0.3827112766605667
P 5.587451245558801 2.042523584416584 11.473682076381015 0.21196508705051884 -0.5701423831254632 -0.16829644251797465
Ni 6.7674352792005426 5.378000736048336 0.12351547661982151 -0.6040842872885467 -0.4066708727999577 0.9800757287267766
P 2.2447632726351276 0.21261728524255857 5.25829362055701 0.08380407910084922 -0.32469381960551824 0.3231943522418563
P 6.988043388972046 -0.015687978774407384 1.6443749536766445 -2.3786108382480067 0.14554912151912996 0.43215127645924933
P 3.7287802226942026 3.5284484560626264 4.681478421010054 0.3443298486688908 -1.020845454444971 -1.0369544441916916
Ni 2.3493716204303743 5.867981186740599 8.822920572084666 0.19390463000438218 -1.1785255548996798 0.4755849221628519
Ni 8.373325396905559 7.954433730441428 3.401063826695116 0.23061252694837703 1.3093648810124612 0.5701431544564116
Ni 7.523121868548412 0.6395727261786659 13.197969951625518 -1.2201504295293182 -0.7510901958588613 -0.33143139543966793
Ni 8.74668881687284 8.800250909659908 8.336530567947484 -1.6860728889017416 2.115807328389382 1.8922784477606633
Ni 3.133948257729922 0.8761998952352572 7.446591766774701 -1.569007219534285 -0.8217132574930621 -1.6921877435502275
Ni 0.967765167318814 7.133054782138367 5.26780704133281 -0.6461231095271518 0.7646895318098508 1.3959202976062024
Ni 7.311875668132566 6.657252807553175 8.818677317065022 0.2820050224877401 0.41705761535092045 0.39187828787181544
Ni 7.743131414684789 3.5096030541129233 9.990775274813966 -1.480677227538624 -0.40119570861799936 -0.18880176156017808
Ni 0.15117753386380905 8.663048901420636 12.643931968906504 1.5794302146398218 0.35280137647501175 -1.266255965638129
Ni 0.3471070520101621 6.2672511890407225 10.849175383949632 0.9563069084419531 2.586523866716339 -0.3841197269723191
Ni 9.221798702254915 1.3148385501245001 11.254160733709538 -0.9829836464021908 0.027369907372520604 1.9334950312082895
Ni 5.774773605683163 5.556382051872989 6.092548233805062 -0.8509801247779796 1.2837806047854536 0.9107107078693929
Ni 9.39015407719119 1.9878111271432544 9.260566920697551 -0.47354783712816506 1.788636507998281 -2.4323857179766173
Ni 0.09477039329852599 0.9043913071940604 4.591750926337473 1.530685955356583 0.42479715008702323 0.5390459188309749
Ni 4.326137377994175 9.130508395341245 1.7880489312207284 0.21471436766088184 0.603357179314535 0.4310814404338382
Ni 1.2668599337463495 3.6066545360146915 4.503857468053148 0.21436135519683727 0.02252029258970315 -2.5727183282918142
Ni 3.485735329162233 6.780136051333393 1.626005596868004 -0.773465735340584 0.1251535885819135 0.018732800522812898
Ni 2.2305193286304643 2.827446266317689 10.375720901120955 2.772209965465671 -2.885183981262257 -2.1687044334987293
Ni 8.306174039089745 8.585394622319704 5.822982294958566 -0.2362465853057028 -0.545524327466467 0.2608322450648669
Ni 4.213831875953467 8.09114940572716 6.266705934979348 -1.7886213384896292 0.20169224436960104 -0.9246075204561431
Ni 2.4108459762692798 2.9491510879412512 6.408367242300318 -1.7581434816157462 -2.323946099715275 -1.9166507059574407
Ni 2.9411452993214278 4.568321836300648 2.6571539768683707 0.2875822594652015 -0.8834662703311431 -0.6385344985466165
Ni 6.716557370214745 1.3563545497546388 9.03901981422344 1.1652018412075804 1.291431179352176 0.6202087036542351
Ni 1.3575797346952896 6.718128599756953 3.184869188476994 0.14313716964352766 -0.5056184924104647 -2.5188909980587133
Ni 6.973967790989763 6.162380969655108 4.242627463081476 0.8853832848481977 -0.4671437333740342 1.9644228311353977
P 8.945627052541385 5.236908064180738 4.11603686578619 2.8044096901266675 2.1584148786472634 0.24053081450335345
Ni 1.4941364165154412 0.09736946883292912 2.774846551625222 -0.43058341775149717 -0.02151216304016295 -0.7192486258682323
P 1.964093043101346 3.4834907155305075 8.273864696372405 -1.060092829981368 0.6949198193148806 2.4185873786409444
Ni 5.763513127297336 3.3508808126794745 5.319919487816057 -0.8868809524396467 -1.5720457492502926 -1.879242440512312
P 8.289694834010154 8.668220865330406 10.825247802635431 -0.2358385512340067 -0.09948163773710608 -0.013598564620041095
P 4.4115636317949605 6.5440214023893795 12.544691053458122 -0.006665584945633681 -0.5243926876941744 -0.6723972127323323
P 6.208937997399832 5.054037521092632 9.501195113552694 -0.20215067206325832 -2.0298854316145816 0.6664422807004781
Ni 2.772107187738836 5.373848200829642 4.896728450991491 -0.13506441993772222 1.5678430240228547 0.03955436525385446
Ni 7.8822881072950235 3.489859806710531 12.906544281773048 0.8194100632811823 0.6043277707579204 -0.9316446298085825
Ni 6.182329973307076 8.153400023780371 7.198872465354663 1.6908237733231655 0.492492753661784 0.5102287374889665
Ni 3.3321569939681575 1.6672335377487377 3.3027675194834205 -2.6361512999354795 0.544458605206114 0.17417347012404194
Ni 1.5560503425238927 5.287093883963419 6.745923463307484 -2.7747245043574083 -0.7952789745609335 0.48636684326970425
Ni 4.4933985037849835 4.671723704268842 0.4280581073826929 -0.7988589786027082 0.25664006136039025 -0.26178638144802013
Ni 2.097619496518667 0.7528003903197417 0.18415932541498806 -0.5771242137599351 -1.0484639874931878 -0.18195671361388663
Ni 4.802088993488149 0.5617117555724784 13.279128633758983 0.22436757447992972 0.10473003062023899 0.0713995347889093
Ni 1.7689425929363378 3.042040682067527 12.517683675190057 -3.1178065966621276 0.842257400193001 1.3980499423546955
Ni 8.9266413622397 8.678499325252353 1.1436166165293749 0.333486992417116 -0.20760063943423604 0.5672077259771715
Ni 3.215642841367962 8.156860469795948 3.7689812528384214 0.7706436925107567 0.07130157575846431 1.0554535314371436
Ni 5.828840736537371 4.186316653851222 12.15904679115826 -0.7485795136218656 -0.39115555077317793 -0.49000521135323993
Ni 4.290354495681737 3.7703149274379384 10.575283887583664 0.9772647416405428 0.1424296020535418 -1.6797034950402878
Ni 8.49339352108932 1.3863294942949844 2.481695335043362 0.9011166364230545 -1.6116031998279408 0.3896650822705805
Ni 4.173765522627152 8.370416751741113 8.736916330273711 0.39843357249182987 0.7363857997691511 -0.40388868206913026
Ni 6.157190300631741 2.4973664792155312 0.5303806902962982 -1.0826714866128322 -0.3873456901087845 -0.8802001979853616
Ni 6.6222555400118415 7.507091586195166 11.983232752174892 -0.7604425836080387 0.3209410374313053 -1.0774719446897638
Ni 7.571502644868914 3.802487722826016 4.096325417076913 -0.8615221619598838 -2.1548945241988307 -1.1323883942219852
Ni 7.96410427417145 6.061270478102634 2.157033484094783 0.6515224261658521 -0.5203156894113233 -1.4689069743765735
Ni 6.150821209451717 4.298248053619975 2.1124227234199022 -1.4890482252111388 1.1224960748089376 1.4240525370660442
Ni 1.9643642672485127 8.27070914370847 7.735143395922883 -1.0241194972105523 -1.939613999621834 -0.9923167508776589
Ni 0.4223642708035471 1.088684374171272 7.103464227682454 1.492451851576049 0.7493485305774062 -1.1587252323443011
Ni 4.299520001344621 3.846987188074991 7.034447970040949 0.7242321951257527 1.109377792259425 1.5001330222703906
Ni 4.630581806910659 8.792338646608075 11.25036920718328 -1.2758410382234027 -0.009459345640686935 -0.282228708462772
Ni 6.199669613612161 8.391011081812202 4.719983832606639 -1.0106276333717046 -0.3044738930142175 -0.06753773784065788
P 0.3641212233386478 5.0474720262198325 12.705447475995324 -0.7209769214132487 -0.6447874214348638 -0.7725352531065146
Ni 2.7063306557724554 7.975215111648494 12.67258165614845 0.09382546789259326 -0.47695480592718503 0.4781945918715571
P 1.5760835191870504 7.973971221594246 0.945552844921522 1.2566433822490293 -0.2810963946305417 0.36063629913839823
Ni 8.291574697926725 5.902286365078817 6.746074039471946 -0.7489034726201876 -0.23051173970445463 -2.2160019330331124
P 1.3514912202192317 2.3843782405285063 2.2069415329405384 -0.3358282389557829 0.22409503754483343 -0.3258240765552195
P 3.4696489314681944 6.172874538383429 6.911662928107119 1.4627872346320807 0.24932270176337062 0.33659417058753
P 0.0198891472884552 6.964531061179714 8.135734914498684 2.92785118111348 -2.7958738847415137 -0.09186860127653855
Ni 8.040982291058077 3.2510796790788414 1.653778949537898 0.06400581342799945 2.0081266997812515 -0.6683862918007263
