# total energy = -381167.3582536359 ev
CRYSTAL
PRIMVEC
9.24896392807208 0.00000000000000 0.00000000000000
0.00000000000000 9.24896392807208 0.00000000000000
0.00000000000000 0.00000000000000 13.53679360833118
PRIMCOORD
 96 1
Ni 1.6248210014555562 7.884640080089744 7.577464412279446 0.8736420851518695 -1.0710135906589295 1.311220189053645
Ni 6.382562080013526 6.2397858225880976 6.001930215137834 -3.0407784028325313 1.4290589891417 3.4817814732554555
Ni 8.954033045840875 8.136877826575866 12.819018798210875 0.6866526942100819 -0.044267454458807635 -0.9323737946651234
Ni 6.573053742767565 3.2871373030084556 5.86836222628096 0.6308209319524426 0.8459654451722075 -0.7995881434592488
Ni 8.273670004286695 5.510218292499664 6.217124935866711 3.505363374340453 -2.4646250376262975 -1.7364035188354932
Ni 5.300165070864055 2.8742080558091523 0.9167536131052287 -0.26627732733983817 -0.23181683166912334 -0.20613691040451598
Ni 5.165962603076081 0.7078620613493012 12.925025799213762 -0.38400531288164186 0.7861209622107493 -0.4577517506361729
Ni 2.4737279141675756 7.9246141025418195 3.496838139115275 -0.537664722212732 0.5742281231590627 0.5518662105240947
Ni 4.233787267380248 0.1623368914105955 10.589170341753405 1.2419281875260417 -0.38271384776372797 0.2856364485927403
Ni 0.7092410818832217 8.659546031756168 5.731721731579897 0.039014176479668296 0.3590291025522785 -0.112144063696123
Ni 2.7408194968540758 5.300211315684106 8.591085200152682 0.9943942022319778 1.4994784194055273 0.5091591585738715
Ni 8.593563922507416 5.90834919728265 11.748881290856923 1.2176610874485612 0.28847391804153544 1.7662835942243773
Ni 7.889930487503576 7.68746141635633 5.073076182418063 0.9783677448967343 -0.12766015705385111 -0.03844801956355314
Ni 3.5693971866716803 3.508391020060414 3.362376700335016 -0.6163358509623902 -2.0533107525170573 -0.2297254963577334
Ni 6.256748422582801 7.360926741976288 8.151870397236396 1.2347373262045573 -0.18978726540189894 -1.0710508716547682
Ni 6.874634712248094 1.4495716313903233 7.300650318625426 -0.028192403273815964 1.0546526328024028 0.6159033914106619
Ni 0.4857666885724149 0.9954105026335571 7.594371518490088 -0.10150612436630262 -0.08509528710844701 -0.007060249280891067
Ni 6.57234157253878 5.453142935592731 4.142827405925555 1.1840415996219027 -1.174966119683196 -3.3004991600007734
Ni 6.291487531405105 3.069037482683975 2.942817795733203 -1.1004254681621437 -0.8472067737784763 1.4340158189263432
Ni 1.5709272881681322 3.6677044251360753 11.03044303916196 -2.081156313974416 1.2881237122454976 -0.9656276716222466
Ni 8.609111431008557 1.7707974004285123 3.2437402389762053 -0.0980500474969021 0.6871196065441715 1.5123370205357503
Ni 0.4273724293976284 2.15919839507277 12.603269139641387 0.44946071427197426 -0.1556674409000545 -0.27234744479331807
Ni 3.3597416704885106 3.412386773634558 9.712635848646524 2.473062112650057 -0.5312719313125109 -0.11952441532059414
Ni 4.239623363670684 7.5069771326613255 2.292875521704965 0.3973693928933737 -0.36649687168423334 -0.10045942826934312
P 2.0642300326160563 3.463709274927147 1.9398360911608974 -1.1337189401079508 -0.34644740923252587 -0.9795545661159839
Ni 8.99673551267596 6.266903785065999 3.105516321636597 0.2443645864271469 0.8216782904900687 0.9314417697691572
P 8.252536121523391 4.419737688805281 13.320800992863349 -0.14988554411095475 0.3955318254640027 -3.017604792929545
Ni 8.252092171250903 4.105143426962403 2.9464998083056626 1.1930026654699324 -0.14415044139939046 1.082503079355768
P 5.171058782245701 7.028491228557738 10.074962163953233 -0.589810808088668 -0.6508961054357629 0.03472171975190149
P 6.59102447983938 2.9262427273305267 9.067011915914648 -0.22172268065791492 -0.300469914061147 0.4396537554838816
P 1.8324694924485132 0.05497954166222141 1.7446357808292663 0.4324675221480875 0.2477813254181797 -1.1880597196423603
Ni 7.183661097756832 0.1979740746382897 9.20274601214271 1.0974728132917226 -2.5723290632731954 -2.1118205758274917
Ni 1.3466121640287982 3.891621843822971 4.260502899923706 -1.4308435918459488 -0.4955086576699725 -0.573800805813657
Ni 0.40801989710268993 1.7211027168017181 10.107585109810001 -1.829500078981862 0.9427391970598474 0.508976353139104
Ni 4.230827598896985 8.27576951911701 8.218864343147866 -1.3751820366175862 -0.3359567941138472 1.2625237522892063
Ni 2.0042042561898707 3.8775171737074188 13.259790201770079 0.6421499838120166 -0.6157678942740622 0.5498455805496401
Ni 0.4505188867295501 4.832657687040573 1.2606541423108195 -0.39526134541143537 0.3348476202100685 -0.559730700873836
Ni 3.3878585210795125 8.15815969276333 0.2966207500818593 -2.3003495433422576 1.9972871859635861 3.0952400242155207
Ni 2.9145890326776773 1.430139558004897 0.06704389031712377 -0.6382529627504556 -0.3335579548643675 2.010177411662693
Ni 4.839326190091927 5.18975093851031 2.3353541636110022 -1.016150877182779 -1.0940326772619222 -0.4046196466978838
Ni 2.423385803060068 1.0882978481879764 9.52643755498602 0.08725321399171425 -1.4343976277457942 -1.7046845904656578
Ni 4.13625694189271 6.033163966600273 4.3703269483736 -1.4127291416334251 0.8865806475904086 0.9761925916222863
Ni 7.045934774680973 0.731482990534946 5.059715129008931 0.5940682978134415 0.8487468645720866 -0.3190422777466957
Ni 0.49710591844891777 4.641407609237698 8.885293820420681 -0.5355157941905293 1.800113398289629 2.8493767417556604
Ni 3.555089039347904 5.2806497568025375 11.209291181123563 -0.5694913798050256 0.31946573843735954 0.3723772417244103
Ni 2.514016401395999 4.184730762270158 6.355876969051302 2.7744884770872025 -1.1253772530114747 -1.9036401526303863
Ni 4.906973112862515 3.871301869892566 7.826108011351205 -0.4971083980569245 0.19662665692123557 0.42152979218966113
Ni 4.650443847075661 1.4328680023879055 8.659541407274164 0.837518599956435 0.7503959980053141 -0.5935188530678747
Ni 7.9695640676313815 7.451030149363637 1.2638126635203022 0.32349979929741707 -1.9857413901075156 -0.39592031915167303
Ni 4.083898556630978 7.634862558030334 12.03885296071185 1.1408329254449128 -1.615325128764218 -2.698721152247901
Ni 6.491080174745179 7.935934834490301 11.513706033176815 0.253756312054692 1.7455731011499034 0.9926944459320517
Ni 5.18643056043065 0.14533544576704943 6.429448778166824 -0.3459365310343784 -0.29255811541323806 0.7351341867502371
Ni 8.798095512628935 0.36531835516400646 1.4303513592807306 1.233924857605591 -0.007414033075884004 -1.4864781504911173
Ni 4.168979776560791 2.267004319575639 6.255771731983324 0.5685930363604723 0.4014952421362892 -0.11081171803794465
Ni 8.515780135181648 3.225853667476883 7.8109332360996735 -0.24881208067553923 -2.08122907619388 -1.3891161302001755
Ni 4.294821180883546 0.7637406023133139 4.324829444614633 0.44601492181521896 -0.0770472199929899 0.36697715375476153
P 6.190026396213232 6.818142040073804 2.3697103653232845 1.5515085485288893 0.2763665932550402 0.26562323869560706
Ni 2.014757324125507 1.854130566160397 5.424883650955973 -1.090940925710476 -0.6172941011106015 1.8533604305392275
P 4.170838818326841 3.562488210556062 12.819926121580275 -0.222266726086843 0.738748643574373 -1.2274392498812472
Ni 1.7897207807933777 3.0389968475788516 8.221720423234213 -0.036112172341524904 -2.0850363657551125 -1.2068449706696636
P 8.375843309707353 0.001850717698440634 10.992661946076703 -0.20485881502304074 0.09441630739905675 0.8731083241355866
P 4.861153745155994 4.106281049535657 4.738635493602104 2.4441125194952424 -0.7798117321632698 2.517062429490407
P 1.2921265170447214 5.554446838396431 7.022767044731827 -1.82552078261914 2.326317685271245 0.28031606482109145
Ni 5.658340451122986 4.496522588017945 10.4851398443595 0.15674293335242037 0.3902986020895214 -1.8423640794287237
Ni 8.09744949300039 2.671803727409978 0.8736515910249036 0.011416212256741628 0.006216670333673164 0.8417686334820406
Ni 2.6224975002716118 7.639163326295076 10.02788123755572 1.178827402410815 -1.1756839716858267 -0.7430164177117914
Ni 7.631190719318285 0.9413225611019189 12.725804039330496 -0.23750539741346835 -0.04245688361263011 1.4539709218920314
Ni 3.2677607234070907 7.947634773963202 5.7210826482789665 -0.00039312167336061327 0.9193614415658554 0.23172092952120735
Ni 6.469715067881622 1.2837747025435127 10.830639519442455 -1.946213764326539 1.7174786569065323 0.29890282668434326
Ni 5.589222943074775 5.851209097627646 12.42011652982944 0.921704230766419 -0.5087048446452723 1.0166265312676168
Ni 2.136455192571693 5.527402867630612 2.596059336648461 1.4835357800333417 1.3201372890376168 0.9530601193698811
Ni 1.737112673503371 6.4984515990613065 12.586876275829711 -0.04165212832314762 0.8384583381618851 1.7446773288085116
Ni 7.189339961659093 8.757529556480206 3.0017429454421745 -1.0571108645349083 0.7473654387091064 -0.08089359032227358
Ni 4.498788584200444 0.6205916116382753 2.0023220920137956 0.3010543258097073 0.5795387367386987 -0.683017668560656
Ni 1.0619105538668814 7.476529543139753 1.2228351284731196 0.25069078575549086 -1.3281946121244543 0.18740796653644498
Ni 2.99972574639155 2.004564965786269 11.465217414456951 1.0192608835666706 0.23856983412224075 1.4756728323454973
Ni 6.770149165824886 4.909248358009023 1.2016383527545476 0.6639861058505017 0.4575900282473281 -0.3352083459835969
Ni 4.3518780398624575 6.222841720521416 6.952280690010108 -0.5605771080345313 -0.6208931313157694 0.15426901789063108
Ni 7.057366494197576 4.930049278067959 8.0981838607428 -0.8422556004207882 0.7312561918520697 0.9159501018914613
Ni 1.5701503751912755 6.27912166652347 4.9913005422254955 -0.5243556638086518 0.1020105748065469 0.083663696868243
Ni 3.4790718041480857 5.683950832467225 0.4479171531534813 0.5754882208184089 -0.15133307519075873 -0.24861821949717824
Ni 0.5747935165489775 8.568018283911249 9.753666102788564 -0.097899895072283 -0.7064635582884221 -1.2117719756576357
Ni 8.090124313504313 3.949677590914984 10.661443596321895 0.1561991450338084 -0.9178915418885482 -0.9042672662368942
Ni 2.320565070158696 1.275015933625855 3.3136577824112976 -0.5793592737380409 1.296020084274439 -1.1696701613915792
Ni 5.898175336871431 8.072458792244836 0.47584255018947236 -0.496615517580906 -0.3634053772431031 0.03447078008335999
Ni 6.4955844202181465 3.130950047768241 12.158098003902534 -0.3756104039497273 0.6804943879181701 2.1658137422144956
Ni 5.607850356591315 8.017057497823748 4.722540446431556 -0.8783227784569906 -0.5566829151864477 -1.3842271775389905
Ni 7.561000331444893 6.646546010792599 9.987094231167147 -0.40996959815588746 -0.5443197656354044 -1.2126170972667503
P 6.726262831596496 1.082757718745868 1.2960046076541976 -1.7858057234177052 -0.7847950443104742 0.4759495045911222
Ni 0.32430012467517905 8.863069484800578 3.598390839050849 -0.6469818579830212 -0.544005062608463 -1.3996753937732604
P 1.435281981994567 5.996084869883389 10.673234175642095 -1.092294611524893 -1.440523538137874 -2.188504756054108
Ni 8.885461226669266 6.559013815400084 8.052984173624962 -0.4368818491656992 2.551663050283412 0.4075327065796207
P 9.02292857875284 2.5170963064113945 5.432206980659247 -0.12411332024285723 -0.032095852093280204 -0.16630075224418459
P 2.8301829871206095 0.4698085260692192 7.4087818066614535 -0.003913219011477132 1.3610695084756044 -1.1853310078572876
P 7.9289241197705715 8.818914930615891 7.015903388539859 0.6052417979317577 -0.489707220496847 -0.11636221554252864
Ni 2.045500880495405 8.941778168527362 11.815915007313636 -0.6334977074536574 1.0489126449948323 0.7638991746980714
