# total energy = -340863.43345492333 ev
CRYSTAL
PRIMVEC
9.28804595960663 0.00000000000000 0.00000000000000
0.00000000000000 9.28804595960663 0.00000000000000
0.00000000000000 0.00000000000000 13.59399411195954
PRIMCOORD
 96 1
Ni 0.6006616412266579 5.46608000713428 12.323173057397115 -1.26290736088087 0.31896951552723135 -0.902590906975736
Ni 7.938641408475657 7.989651356359338 2.1467906231072535 -0.8962863049139467 0.9172526227529686 0.4383052118757871
Ni 8.832365045622677 3.4032328849343707 3.9754136623244443 0.7565468480980584 1.3427467989070165 -0.7877248163627595
Ni 1.8623182120016806 4.656125255632365 9.146147743060466 -1.1656397000759475 0.33491112645815224 0.1099336863083655
Ni 8.131275479689704 2.406458378929112 13.490326547922304 1.8457458514167633 -0.4726150409012506 -0.7328531040255444
Ni 2.079695637396741 2.384464286323767 10.118880142347425 -0.7693303730159718 -0.5549862442103152 -0.29503434486787256
Ni 3.957877831733696 3.5499468573980675 9.18232189528599 -0.025998223835974582 0.6435638334404078 0.28695850983827353
Ni 7.998075613957753 5.257554089447368 2.6379285563132306 1.386002524271858 1.0719489579890056 -1.4205319255072955
Ni 6.850296058299747 5.841716446001671 12.10002775552067 -2.027124323929677 0.6307774803090169 -0.22660726244372584
Ni 0.47006892996866073 3.1017243401055192 7.224962825178964 -1.4596358334872928 0.9436313698568135 1.5807126808966712
Ni 3.4493015924185397 3.959754016998172 1.915787634430081 -0.6302820287298371 -0.008519093214604683 -1.2059270868410845
Ni 5.887107126137787 3.2703673888535154 6.042094889856907 -0.09655675078082725 -0.6279616081267766 -0.7355687031844945
Ni 4.4597666780269565 8.15573090444894 4.151415629810285 1.5068009212088695 0.939383393213737 0.44665306961985013
Ni 7.788323674216827 4.327300567918242 10.930645133988184 1.3112847237429934 -1.8090302411632846 -1.133323247331429
Ni 0.3078485649354432 4.804251011067351 5.383819500137447 0.2657505083020907 1.855744614500688 0.6908093966909329
Ni 3.7772810679590614 7.969839954531972 10.610723967039046 0.1572826079059743 1.289293821294199 -0.7111841036925429
Ni 5.533093258041191 1.7027774482001532 8.52302667813069 1.78738669475158 1.0662827608421637 -0.014692569015168246
Ni 2.0435279868033223 8.918892480889316 8.129058423142027 0.7172184828120809 0.3176811357331109 1.2280054067973627
Ni 6.075162190741008 6.565413115566998 3.4522895567729064 2.0629526464821955 -0.01178979354607647 0.755774488708408
Ni 0.3081625008856377 1.1634020488008225 8.706748869338474 0.10919937924550226 1.0887349191980928 -1.4671012886264023
Ni 8.559138600448925 7.272159101430992 7.092149342154945 -0.06940513006669982 -0.33137097451537767 0.9748304211674373
Ni 0.38230432699297273 8.679688147714456 4.622026052852802 1.0955527134508745 -0.30384525829128317 -0.7241103248359078
Ni 8.111993496476572 1.8688012680145738 5.356672399686897 -3.1666616704916173 -1.0818464196083755 2.3862105049721354
Ni 7.592550243500835 4.488318131012105 6.9306125772973 1.115274360249518 0.8910487106640912 0.10606880403632056
P 3.195719364246606 0.9793036917355564 11.28411565140175 -1.4507261897024886 -0.6097479133322273 0.9756117794181521
P 2.8872447850199467 9.190456365853455 5.009210319142586 -1.3729480050807452 0.3246028025536087 0.1925324322472039
P 7.570964824913494 2.3267762334640536 7.460017259461901 -0.3021578432865312 0.7615931522727142 0.7191005303261422
P 0.4152388088212219 6.302784330723778 3.7411217766069202 0.8606685557103372 0.850871110003941 -0.8347744615523945
P 5.892271279638028 1.5344780571491152 4.635198359496763 0.3162166353724425 -1.2133511472192975 -0.5391266514702393
P 4.011841378202047 0.5327195857333719 8.049887120199475 -2.742208534007574 -1.7837287862840183 -1.2745804263434242
P 6.8384723759152015 0.7923130371883204 9.9599663216417 0.4278940438447921 -1.1748648182186412 -1.177589673348972
P 0.06027848885111097 8.82703370729689 12.917855983501282 -0.3194163732566628 -0.6669413318240837 -2.3867283251488187
Ni 6.103992285102069 2.847064698613391 0.23872971403122084 -1.3335679606212258 1.3921361479734218 -2.082814418403129
Ni 1.1560366284308736 1.5180475040161525 12.6463970534554 1.1077343431187308 -0.7015103280482047 -0.6941484883664949
Ni 0.7220471126199257 7.0951103711763075 9.310553585285424 1.130480378565995 -1.0442198675048533 -0.7074454625857172
Ni 1.153203774442432 -0.030910616634539406 10.542291502724154 1.0491029066287674 -0.7801184647704112 1.1161133112110455
Ni 2.1250677414411294 4.737358504756668 6.700791956858582 1.287318956956015 0.6911287277035646 0.036149196227047424
Ni 2.317803981159677 5.614428675669996 0.2574321231824554 1.7807123680551975 0.5409655044511908 1.0484508748670653
Ni 4.226590286617668 6.343252346552109 12.27182873986234 0.048114081898407456 -0.28804325826202004 -0.648178963614916
Ni 3.8619137418694947 1.8664328163193191 5.489758022454722 -0.7891108980770087 -1.4450977877721178 1.0851348605516602
Ni 7.639399146837558 6.1993062117558075 9.153352480236972 -0.13991943403717838 -0.2889405732653088 0.27007510381937355
Ni 4.003101327044265 7.823172422297594 6.682983986524026 0.5378948359456671 0.748024412449344 -0.4070812208644989
Ni 7.529168618526646 0.3895842973409751 12.498059530574722 -2.203326394447973 -0.22360678505450524 1.182710539515305
Ni 5.248953358977541 8.504784956054296 1.5315402482424132 -1.0092983730373197 -0.807170840902513 0.7506801049046362
Ni 3.9240321926062136 8.827423805223166 12.958352792271791 -0.6697821437069885 1.1105553575072937 0.3177464417534076
Ni 6.1691386387903675 3.898750131765103 8.933062323659042 1.4690576410218248 1.1361404050652497 0.024776178503415396
Ni 8.906232874377032 7.33228991035287 11.405238271097074 0.912594298045351 0.37595673154555254 -1.3945169895007725
Ni 8.026459882117354 6.75086752732837 4.965315014390532 -0.23170653134350416 -2.8011053083437822 -0.5431303733129936
Ni 1.7712860744911274 7.533255358706694 6.304419026795797 -1.7415449538271168 -0.2515294796067023 0.7168330744482042
Ni 5.715222549383344 6.231619323315773 0.811462201345601 0.3667609239788974 0.0949536679597655 -0.5323286547117994
Ni 0.27458900150196297 2.6274488541651686 1.838668989623416 2.043032510519501 -1.3788186049289093 -0.7627660895348928
Ni 5.2834770254530765 1.2599234214168482 11.12446807507279 -0.9356146701999241 0.28995513057275224 1.5388674627261112
Ni 5.537124269946057 3.658199031940002 11.38533677522483 -0.879269715751292 0.667259891505767 0.27073767710403696
Ni 5.688482265341626 5.88160860298645 7.4376544314357655 -0.2081076609776416 -0.5676838942826417 0.1734363348477013
Ni 6.849692335318604 8.09514498127974 10.97307199868918 -2.44292518405536 -0.1976126749835887 -0.23309955503628887
Ni 5.476389738043035 8.353882074906052 8.539013262671366 0.9928697951676515 -0.52543167048165 0.9903740253289911
P -0.01981140182736555 3.1073064556696286 9.914113096821568 2.1984186727337107 3.353650547212773 -1.7489402178499234
P 2.483902105341008 1.744369317577998 1.259012264117615 -0.49554413889359816 0.9609922297327642 -2.1202579079615678
P 6.7967133217118105 4.342690859914466 4.222675375286101 -0.5276389625456139 0.49082256504821276 0.26591274491156786
P 2.2789892374950917 6.422247176623251 10.822327943125202 -0.7442052958135699 -1.0867790810233025 -0.7913706406454628
P 6.731455511473146 0.6098688810913871 1.5112848778227606 1.6673696560652833 1.7260167762845307 -0.31765876713560776
P 2.5579185428291824 3.917929946473734 4.026445901518199 -0.0018861612791193324 2.459039830229036 0.9813463679090841
P 2.9531806226066637 7.580949474217018 1.2303437817545833 -0.37779301342334287 0.6018188882931377 -0.5342310139408347
P 8.603944133695625 4.377864689600464 0.4525117368724258 0.08637261115897382 1.5327461803197215 0.4174790191590552
Ni 2.115287429146607 2.015663849212091 3.350756354608804 -0.45969190508167923 -0.1931027029283771 1.0487632639011615
Ni 5.8087717473229725 4.470485082953717 2.178356046975187 -1.2857498126966824 -0.03340917158806504 0.7146057277795822
Ni 8.188248353017908 6.891711454806182 13.543465315917956 0.050397478615945464 0.10825501305436194 1.8258491124928362
Ni 5.023513909772751 2.1175072721080417 1.9159102366354823 -0.8444153270762683 -3.3401252590328285 -0.4652334037251987
Ni 4.053386807350574 6.436207109556458 2.7325830317106434 -1.6881652526543958 -1.5255941426559727 -2.2632048159711604
Ni 7.158891382122636 0.09249593353867913 7.119365174144888 0.6561920637273795 0.6261448666330119 -0.836708959570946
Ni 1.2800691928953085 3.674081590367004 13.414716281763912 0.225595790460076 -1.9065773808818387 1.1221047529077903
Ni 8.563671166830433 1.544490570590231 10.790042695702828 0.2603455352364355 -1.7824694599556203 2.5042279967299
Ni 2.54300194117201 6.694061838825713 4.422289412966751 -2.2297853599704505 0.33620979066491774 -1.3106252357821233
Ni 3.0746218222751143 0.12152386327663768 2.4372129563931404 0.6861253609517022 -1.5954510155481103 0.31107340060860617
Ni 7.407030815418415 2.866235225276158 2.2982275668926646 -1.6690048776758613 -1.8290043702923664 -0.29144225664123996
Ni 7.353782448481573 8.704970208555567 4.490028060255621 -2.6459497740831397 2.8661457336838834 -0.20039949370010646
Ni 3.6894718823632275 6.486399709404129 8.642857330646367 -0.6307026612070235 -0.7042269556484194 1.0734407120431837
Ni 0.8258270930784672 0.10124898796067129 1.020438589256905 1.2365054738485737 0.8686088936033364 3.116458310164349
Ni 8.212685201685419 8.637910517419337 9.173240972845008 0.21924773675486112 -0.3359251695449634 -0.041493234147780146
Ni 2.5926465463137203 4.232107385860732 11.422353353210195 0.9468087391435307 0.8871961696872204 0.6494424037083718
Ni 1.1092806055527873 1.6717646630611127 5.6617624150008075 1.7779502319290286 -1.6351156811275838 -0.9931708713478379
Ni 2.7927017661728986 2.2792957430085954 7.59181091505008 -0.6512756002623687 -0.05792155490713251 0.24993745252923408
Ni 1.8689127245649388 7.554868641431627 12.69044189574586 -0.2489331796344358 0.7349326122623925 -0.3661088922171953
Ni 4.057965813961399 5.394998592139048 5.288702480056019 1.5994737635542584 -0.496781353734809 -0.7813237979324221
Ni 4.555600735249065 3.071333854039349 3.760628530529955 1.2736710271552776 1.6995398130399246 1.5679831491451448
Ni 0.7345488223525249 7.070896435609527 1.5463166004070432 0.8514174694257142 -0.4426282647311732 0.5137295515533733
Ni 1.206127059774044 4.779201151372834 2.197102109941981 -0.7300290043131878 0.11099889434808627 1.211614624144165
Ni 3.7345281928482486 2.525271061618123 13.16122879165979 -0.43354147193855663 -0.5165909322615684 -0.2126124908265306
P 4.278389718399767 4.647218019649034 13.502574694002822 1.066661484337821 -1.3804319721626161 0.22807767634166526
P 9.149626116236439 1.3432000406311753 3.6504500152758803 1.0678799301259545 -1.555354918858173 -1.7422183257450574
P 6.14927150868782 7.587098160578817 6.2724727930474495 0.7730767274322815 0.40595662034175245 -1.2264840850568295
P 5.64793065710052 6.455210451393677 10.049808660477106 -0.7622906925603711 -0.8495685891424337 -0.5356304653915227
P 4.170927027756251 4.104991190169534 6.9140687100048 -0.32984913855421255 -0.6046332178134812 2.6269925162543464
P 0.20322151469412825 9.207713555068292 6.808117184423315 -0.09226480827369271 0.34740565938073714 0.4162682866804057
P 5.783721887628454 7.857064501654396 12.993655725795296 1.6063674053502979 0.2057327329875618 -0.4033955444827956
P 0.15909772401382688 5.315214278169489 7.702968390338194 0.4928470516774092 0.8648527689950137 0.4991706799025919
