# total energy = -340867.90649812215 ev
CRYSTAL
PRIMVEC
9.21507750056819 0.00000000000000 0.00000000000000
0.00000000000000 9.21507750056819 0.00000000000000
0.00000000000000 0.00000000000000 13.48719739638635
PRIMCOORD
 96 1
Ni 6.423664736448023 6.679926829940443 9.163107345238979 1.4037171679428018 -1.1353099387441543 -0.2249663844061932
Ni 3.3672262221045064 5.494895493436264 6.879846095857928 -0.6379110060300046 -1.0604540699755285 0.3616346584959256
Ni 1.2155977489646907 7.391174165767889 3.3137373040680167 -1.7946240930402835 -0.5250233792996377 4.482743815623254
Ni 4.998414756585205 1.4682751772635205 5.110056343440899 -0.28934757889574036 -1.0789462152424452 -0.380730498785112
Ni 4.74442878726455 9.091300695912466 1.7492087980639075 -1.192675621147817 0.5983445565912922 -1.2154306554561454
Ni 5.757737152348281 8.626648837155651 3.6880334837600732 0.06771385840720597 -1.3884345307521186 2.6700739208248536
Ni 1.7368762596870906 4.921385922772298 4.750284969091096 -2.6548745873765953 1.97749997603433 0.5982977625137567
Ni 0.024333333959368698 3.3044438982897755 5.565640565821127 0.32671573513155344 -0.6956579830324858 -0.32326840001290136
Ni 6.393190474763697 2.5152830811980476 0.7800710645288552 -0.15678509944426547 -0.9145185116512573 0.40986006916121676
Ni 4.945584716598437 7.114869278455267 10.810217690828893 -0.38505637985397556 -0.37662907502222875 2.808311596284234
Ni 8.281452029567241 3.027530815854333 2.0093633403423747 0.8720778259885432 -0.4754003169558716 -0.26730808259719774
Ni 2.111874628293676 9.359846487870325 2.451136004388019 0.8685353600529236 1.150735015049973 -0.2477522719524572
Ni 6.999155548799965 8.946651622535123 8.837337764285857 -2.1848157372382953 1.1171389242620826 0.9474108915039038
Ni 5.444461373630301 6.538189721090542 6.973771695992088 0.0965868326878143 0.9838958738038152 -0.4124923645777412
Ni 2.9600395873765564 3.3344297608603224 5.37015743826918 2.9865605220292304 -0.7454515095158453 2.28377081304797
Ni 8.915495445107029 8.84201441617724 7.8056480838765365 2.3635863398147166 0.7176967080000801 -1.2722517782102476
Ni 7.613487913313815 0.31581914014068163 13.23986966325718 -0.26049003123409975 -0.451289539950597 0.7210388849994357
Ni 2.9945776982906342 9.128557254723997 11.50480877386093 -0.25064990521522645 -0.8073161082311258 0.8373856739229966
Ni 3.182740368182458 1.3710653234661334 9.653893164121815 -0.8705811868383588 -0.19656572177631307 -2.458094178486315
Ni 2.042964277862653 4.630981966703394 9.834163120033406 1.7830448728431163 -1.1442992867269584 0.26338612183497223
Ni 1.6295666808198448 6.256503228448725 8.331932224761298 -0.5821538057640426 1.6713144996456444 -0.7005042553811937
Ni 6.790498546284633 5.828287786595394 11.662487966990808 1.443908909670339 -0.5347845724514596 -0.17773984731906164
Ni 2.2119688013856487 8.372837954309746 6.754591074836448 0.006816251590885035 -1.8595832715204879 1.052005424987543
Ni 8.519422193986971 5.495946012284771 4.943031218590354 -0.3874760450390617 0.43797945310525216 -0.8866606088987246
P 8.110945448392433 5.328766074130235 9.938378275836365 0.4647163548794642 1.3139938951440404 -1.4884077634136623
P 4.198002329721308 5.077111519447057 4.850009617570568 0.03029222322563815 -0.41938420660156805 0.5250143804385733
P 4.832451208676308 9.240787685039512 6.991641574509853 0.07748687863356978 -0.2773549253102385 -0.41871417711773695
P 0.8062916463844896 1.7289973683232864 1.5770038780840125 -0.5601659886390418 1.098613354654069 0.9886927809718262
P 7.201380427137594 3.624621770144 3.775848565925416 0.4881519601945851 0.7554505297100861 0.6562892514268762
P 1.7924431777265484 8.583356402504013 8.925409025608994 -0.3678227895845085 0.384155465306261 0.9125763003232219
P 0.023987768548675552 5.994177613883343 1.985086218356479 -0.039006463170184434 -0.49934680046914004 -0.4433947105835525
P 8.201382220140236 4.759983838284551 7.109816651397052 1.566438173255528 -2.546835032767149 -0.6263690668286761
Ni 4.587707962206994 8.089455887386128 13.034742956977487 0.041327140883561084 -0.04546764541449589 0.29122345576221453
Ni 2.3791395244625657 7.076893943589495 10.534768884227027 -0.22423927643218156 -0.17888013157109195 -0.3826763096575732
Ni 8.092201980516437 2.0566855284365757 7.637408411795875 -2.9562279324839604 0.818755974636951 -0.9031766042758769
Ni 7.937388676525907 6.809546111722038 6.874815584985998 1.1926303697321783 0.8687323065550782 2.728258242475069
Ni 9.20232395105996 2.158355479801309 13.003303876666505 -1.3263565304744511 0.6271859063030166 -0.8877512708597421
Ni 5.431228522170159 4.026436014620374 12.708783545425426 -2.377730749635899 -1.282237942888682 -0.11407341950835193
Ni 7.051322103198202 6.726850005173764 0.5795021356392668 -0.10279450416042298 1.2061793120612068 0.004763482826914377
Ni 6.3925177740975485 1.91387947058293 11.882733851119147 -0.7472433113089454 -1.4213166261921197 0.30617004976971784
Ni 6.435119077927799 4.451850072877685 8.195562898624162 0.5449571421090872 0.1455833171911751 0.056496649535147866
Ni 3.7906774688290805 5.166414836647785 11.351850464995 0.9212694572218455 -0.921682119279232 -1.153462184173149
Ni 5.084925905267531 0.18672143175229272 10.849789998645948 1.740963370292034 1.1829540229846789 -0.8858959628185582
Ni 6.177364141861185 4.531919882304692 5.717465420139982 0.47887850531245907 -0.10560960501171487 -0.9438519705080519
Ni 2.319905005530951 5.620469356143345 12.948154401643166 0.1887084305154234 -0.6185403148128767 0.7365968873386927
Ni 6.420015565711104 1.6065197716960165 3.196074585496404 -0.17976459105857429 0.8614938798251098 -1.2697051005289939
Ni 7.879103310588995 7.217294866184717 2.994292952392223 -0.9364024562085422 0.6712520433842956 1.0634972276772263
Ni 2.0656149386488867 3.1830628958991047 13.390723248395046 -0.8302827443296281 -0.12588969541698966 0.07895960652435434
Ni 8.787258424968208 7.476736161455514 9.571500233627189 0.6238997793525771 -1.0763002929791656 1.5522012037205395
Ni 0.07963577927117638 4.720506445766966 13.609796053142551 -1.1518773561845324 0.05920684937745933 0.7242249960369012
Ni 7.216354928267631 3.6213412025118195 10.717237557658391 -0.09665239581842709 0.2514952839346572 -1.6934776660062447
Ni 3.925365043300842 2.2620066728540165 1.1833237826214744 0.620686414621602 0.13298979679688064 -0.5696613297239866
Ni 4.994461488286875 3.5983311536984655 3.305671346628557 -0.780307697963082 0.43089400701338054 -0.01810262313798173
Ni 8.95622608818073 0.8868249742157062 3.4134075835895388 -0.34404265644577525 0.5316084887163232 0.6158046610492685
Ni 8.528738637459258 7.342675212261809 12.308592076117668 0.7333007330859241 1.484541595590037 -0.14241648942741925
Ni 7.405660267784146 1.9943823886580057 5.237604997281621 -0.262259978650329 -0.044500139294904005 0.7931493298124405
P 3.284189157684348 3.175644758416225 7.958701308041936 -0.34098998566238053 0.19631349655619093 0.30514983603531964
P 7.178057065685211 8.785544420531169 11.15628624476001 0.9205184379884341 -0.1069758892316222 -0.07718297423990578
P 3.3690323773177293 7.593279248096479 3.0008070907607296 1.244715520463192 0.42573251741709905 -0.5178847113723274
P 1.6697536343140533 7.600863256976492 12.551954903959734 -1.0720574585424119 0.4898907972625627 0.3349419796960877
P 6.803648462046209 7.191787531336753 5.251955637656886 -1.0056587194022035 0.3610793002130879 -2.7922527430491586
P 3.9571570610846116 1.5522061042126722 3.149098884320659 0.005429655656003552 -0.5295215242803074 1.6548514689936145
P 6.938243885741786 9.178401609562377 1.993030536771374 2.1557959529671775 -0.8675542270865769 -1.546611625447904
P 5.148509940835071 6.041911715947089 12.914692611794926 -0.962949096348819 1.3060664127668475 0.8031293238432878
Ni 2.9903756228966056 -0.004644399119715907 4.657385928603635 -0.46916899133417905 2.08026079874334 -0.7944873318975737
Ni 0.8817723471574914 9.67279052379404 11.244128050650447 -1.8724310740174335 -0.41065454003805407 -0.7164628355929791
Ni 2.982561237076131 5.29403444658617 2.996896211819445 1.683781264654087 1.6800711627923517 0.5793896127553441
Ni 3.3805972997289264 2.3962150632896164 11.650592223293108 1.1248488913118306 1.7817948024860992 -0.23079019017682187
Ni 4.4303052214056695 7.968950317369214 8.902562083669487 -1.2622167625717486 2.5765078772412333 -2.7680046691350717
Ni 5.332175652849075 2.6587526246402238 6.988661418408035 -0.2972094981423204 -0.4084955847135223 1.9361116428955298
Ni 1.2251261392222033 4.042783562315564 2.262059198796442 -0.6307923927073523 -0.588345022176419 0.19884089096373497
Ni 1.9701651646766298 6.977960870277451 1.385283266723692 0.801741956577458 -0.017133317246176945 -3.588749134956961
Ni 0.45875697360427165 5.52293697462931 11.419623674847902 0.03208685323221571 -0.022581484844941754 -0.6990646947211896
Ni 4.932176778663542 3.579228297795348 9.714652778399287 -2.2708949855265663 -0.16287141484766143 0.2822058256446366
Ni 7.078184054456083 9.121074611697788 6.3608317297063905 -2.050506707409359 0.20529641678109162 -0.018122934852955887
Ni 4.642648254968395 6.387016372759312 1.5313367179300916 -0.8348945320700265 0.18326077713729083 -1.7278378886536696
Ni 1.16016905708951 3.9712745599961288 7.460375712651656 1.5040292720010033 0.6847919868522594 -1.09416431774378
Ni 1.8228252886346903 2.1993441450483253 3.9215380215658855 -0.9973550846325147 -0.9363548908000584 -0.9870860986063388
Ni 0.8930875409652279 1.6033221397624027 8.171029597480473 3.235813032676298 -1.4679633795163816 -0.16990106800093321
Ni 6.774796054022736 4.968815927274634 2.020625086699924 1.0242143709172038 -1.6013473264278872 -0.738545012203999
Ni 3.0425882526829358 1.3536396116895801 6.723475443749875 0.9322305842190396 0.6591987117641873 1.1475015957143397
Ni 9.196988421118858 8.649889262909467 1.576733876309791 -1.3523326428232385 -0.6943004405633268 -1.0181581374207949
Ni 9.049620899844063 8.422092544180543 5.306321831082656 0.6066692744069035 -1.1209582980081727 -0.6132518127204277
Ni 1.5485385033205157 0.39828855577954186 13.630701378227844 1.3713788608214124 -0.7066029120797638 -1.6538495100916615
Ni 8.205556650301409 1.5479026629648402 10.039141463563439 -0.20870210002853087 -1.4147883381552988 0.33500651438543594
Ni 5.6838506600032765 6.183151210605592 3.475610279022067 -0.6633757259600124 0.24200739904888002 3.2373577514555993
Ni 9.39191495798265 3.3917106833368185 9.34888054550433 -1.8912515491580462 1.2802378817395177 1.790874396189864
Ni 3.775131632886698 7.213599620059704 5.061192472861126 0.836912848051636 -1.6212468935652917 0.6932876830280963
P 1.3257179265055739 2.5486048018664853 11.050289814453398 -0.4851813076020353 0.5617153354040326 -0.021125469124705552
P 4.148517362910049 1.000029438235496 12.97628895512016 1.5601947634489777 -0.7983838387385025 0.5065515457476953
P 4.162994249848688 5.883338660288217 9.03340144172777 -0.34832354320931624 -1.5045442639642088 0.07350089740262826
P 1.144862813165208 0.7816136685221895 5.8188764278236365 -1.0135275806273192 1.881496526653811 -0.9330733918353092
P 3.2500288649526277 4.281011748908611 1.2634885073479518 0.3958958936716408 0.880221281031284 -1.1702782272892231
P 6.121760363511252 1.921933448421485 9.15949319179701 1.066601063413531 -0.3747282584550901 -0.07463603944833598
P 1.0915904494527524 6.529859290923432 6.157513021655447 -0.10940635304998576 -0.3273443698544879 -0.3532173809665078
P 7.436235895322276 3.749255694933995 12.788681954408728 2.6340141989878183 -0.31992930833733935 1.4645350705611229
