# total energy = -340854.18805037806 ev
CRYSTAL
PRIMVEC
9.42236437779837 0.00000000000000 0.00000000000000
0.00000000000000 9.42236437779837 0.00000000000000
0.00000000000000 0.00000000000000 13.79058269409039
PRIMCOORD
 96 1
Ni 4.102186464551151 1.0656128645991725 1.798912132752889 0.6658876937485887 -1.7230978028655226 0.5233570473408083
Ni 2.7831685353107942 3.142075812668099 6.794647783520465 -0.7727381131459402 -0.5056614298332581 0.20303693132295356
Ni 8.567567382201846 3.9129100111224266 10.370517940280278 -1.790694418968574 0.3041702457308697 -0.2358768606711099
Ni 4.0923400938904075 7.666553799011792 4.262062314752394 -0.34973636439644284 -0.6005199669760561 -2.954698897433943
Ni 6.288919341656137 8.099294722778271 5.002299269717121 1.0193231042631736 2.959292430341897 -0.7882004704475973
Ni 5.448095821414247 6.359568228942506 0.4968949753624647 -0.5226579643912548 0.8816384730937848 0.06611334668930549
Ni 5.509652127181365 0.22076693705099357 9.476267730162267 -1.1103720378518942 1.881370285488592 2.2928205819550644
Ni 8.342768615480296 3.0719357330522374 7.973038810524013 0.7840157429422885 0.5292304754024499 -0.9318544318265435
Ni 5.254192987129613 8.576490361164261 12.505024536716968 -0.5088349424652334 -0.12772854839794132 -0.9924507053523617
Ni 8.232640021908265 0.6139951762568716 1.2102763076886733 3.246965706859008 1.3325816854485566 -0.9316150621222278
Ni 3.283222829412538 4.636453363312379 0.45063493574908026 -0.3940025333036698 4.2155622313015915 -3.288372551940569
Ni 5.318472356170371 1.8974003375074233 11.617862771238265 -2.7195707420034 0.5616808826216713 -0.10842393453205844
Ni 7.672226062301522 8.534852933461078 8.936931599424502 0.3367744049191361 -0.9830540946288101 0.6619860447013374
Ni 0.5676277216908244 6.2032323609969975 3.9225792413349194 0.4576687040040634 -1.3543522443564286 0.3393092555258479
Ni 6.28722331608778 0.38176593307306017 7.328453928668956 -0.41590756090687725 -1.04635259757714 0.829116749045985
Ni 3.298901643555579 2.9791537120988 1.5618247185521594 -1.9053039134860543 -1.3220144514556718 -0.3285473890236535
Ni 7.356218809459399 6.050005873260143 5.069155655385356 1.3871896026014239 1.7187382403452465 0.20958784506759387
Ni 3.297478866551012 2.534955193381638 12.755889331951325 -0.06899041112678442 1.7314343477556762 -0.14653539669179924
Ni 1.4482927670062922 5.972949778271089 13.185920383754139 -1.105879292187863 -0.10163622218626367 0.6552764938916457
Ni 5.209568669953267 4.263016800252809 10.984089110145062 0.36469170015469454 0.7683219863561155 0.9193784108467199
Ni 2.0179877554176593 0.7062702740126554 12.314011541553533 -1.0821184423228396 -0.9532727496013194 -0.1080593521037881
Ni 1.7496482434106577 5.71229891550731 8.34317848832598 -0.46032902444504586 1.9309146720756232 -1.2400654232856902
Ni 6.846855219460224 7.106545001068602 7.05694473332198 1.1551621975833912 0.5597962640044488 1.8120111781684793
Ni 1.134876664338049 5.349971319920483 1.6263509535367568 0.9177478172218323 1.1056424935867089 -0.37752330470172396
P 3.2042351497484107 6.757399293093622 6.413972017993288 -2.119226895593892 0.7376050168882328 -2.5196810980601766e-05
P 0.9625510442286332 3.1976489171246216 0.7226067691816479 0.14373597956979117 0.8864338375998991 -0.43136529022284426
P 8.927115380329418 6.480598497973369 0.3530390288907874 0.561372350242317 0.015469299280192713 -2.303235863751117
P 2.2361154882370027 0.6912566787869818 7.432034921310697 -0.8209894919531603 0.2446175829782174 0.06690858889709123
P 2.792656856129329 6.716129337596917 2.051404170296441 0.4925238640100356 -0.03083395466172109 0.08459803575705431
P 7.599881149446796 0.8842672151753741 5.961558139870286 3.7781929009765123 -0.3800514704402164 -2.0554190571093116
P 7.622089662028013 4.596210445520957 3.780357132827427 0.9587348011571553 -2.6235132994564947 -0.9862132090830821
P 4.826134978404656 2.784638424136704 3.0131043750316153 1.160338599578008 1.6293065306449745 0.45348423360907064
Ni 8.30995994309684 2.8321459847792583 5.1533058484322805 0.8521741450860808 1.010890400114788 -0.45850045587673943
Ni 7.95627265554437 3.2972056179872213 0.7792116225255877 2.1449950056969316 -0.32529391508336236 1.974995464444921
Ni 7.97944224928099 5.505817224924023 1.8801395084036758 -1.4674730701435243 -0.10178431772835374 0.6650076051364805
Ni 1.380216185165266 4.273673494240657 11.498863963943723 -0.4824317698813563 -1.89630196709776 2.0243192503807137
Ni 1.141689033704286 1.8185728380358628 2.3540938534812486 -0.8488862183634283 -0.21014885977738648 -0.8912649404399553
Ni 6.529641903991713 6.4623944902063295 10.660148226588731 -0.43957996482315265 -0.159179567818371 1.2900232432610557
Ni 8.78232190861301 6.075323766050017 11.847834415943307 -0.4796446940545223 -0.31359205326540185 0.6185084331336768
Ni 4.201969302156199 5.391335499059875 7.767531392406105 -2.057677257015869 -0.6691540232046862 -0.4996090529915912
Ni 6.488164656481098 1.084203189301227 2.614556268959655 -2.4260600328689055 0.8820994718906034 0.49057753891694217
Ni 6.589926190582563 1.1439032893074197 13.694048701797694 -2.5259648741863594 0.6672346946947864 0.38712020436153977
Ni 7.891644659025671 1.411432477987317 9.342678391797715 0.942338619187319 -1.4050983645610444 0.1054954480313538
Ni 4.107406454355986 6.921772437760294 9.92210385578932 1.4972662422455567 -0.29262085033037344 0.2631380103799081
Ni 6.04989280488892 5.378634152025729 8.834288132027492 0.5631662089179461 -0.17571124692480708 0.2930599947503211
Ni 1.2540789947007926 3.499908940498778 8.923472694303157 -0.012195513624927384 -1.0570697268843279 0.5545848950068384
Ni -0.09896497638652826 0.7832962174360493 7.497291389526116 -0.3036202867646707 -0.28609153385228797 0.7673966463283687
Ni 2.880925564598081 7.89696829483746 12.862131200262533 0.5558851018755007 0.7970995727094401 0.59491316231224
Ni 5.670887624546575 3.588639344816694 0.8422500661921647 -0.910204971877568 -0.08644897292286402 -0.17445706280273182
Ni 4.2181286568769405 1.1816775476604542 6.668118622702416 -0.27838105258190765 0.5837895415952526 -0.2450616124941715
Ni 8.31983458085039 5.429260515241207 8.436499468515585 2.3981183121533154 1.521467779192425 0.25549977710835997
Ni 5.852343515632316 7.390440836483151 2.7275699904707467 0.974004325721716 -1.9740415851720838 0.8140266874820818
Ni 2.8672725587728007 5.042312281820388 5.077609400607193 0.5418648763370087 2.103162643042178 2.8071175759761333
Ni 2.9340865438018278 7.9815057470558255 8.195605419150318 -0.11860216061664089 1.2472704256745617 -0.5814665498890308
Ni 2.6210190686115244 3.741733919453787 3.491099972144013 0.2491848906339257 -0.5048330203946918 -1.986745663002314
Ni 2.3680191656338923 0.7220960770382868 9.814785011242204 -0.08389869569718454 -0.3684743071255783 -1.0918454398026163
P 6.477328937572146 5.0704851509836635 13.129062068811372 1.0357200575639582 -1.7256789333291376 -1.5571678036971957
P 9.379200417939446 6.742983075762582 6.651735957948507 -0.9496032711695321 -1.2672155013379207 0.3035444392214127
P 1.282487422970785 9.075517617560722 3.762042883398444 -0.6704562869558774 -0.6382449923306556 -0.19177909902094714
P 7.891098161898088 7.908680293623398 11.129331086400658 0.3114873482175732 2.04969372458976 0.08936049014270417
P 4.030774365759021 0.6188844410758763 13.424829140967999 -0.2091183616303431 0.1661130617134107 0.9381600623295971
P 7.466027042646294 8.48940887059336 2.29133242732417 -0.07990422982581077 -0.5385607516644402 0.6582029235098213
P 2.8578313497756094 2.719850247425438 10.40190572013202 0.33863228406348134 0.8771616682693538 1.0468195099112294
P 4.5665771098960395 0.6874076429832366 4.2279580672820005 0.11433772891333212 -1.7351135963794764 0.39136766678398405
Ni 9.589140116209329 2.209714023556234 11.311794228226718 0.36520643500758393 -1.6040503271813473 1.217251767825284
Ni 6.986909241949499 0.620370347921043 11.405790791934384 3.0534009766925476 -2.1797095263599817 0.1804994123420698
Ni 2.9655949299162074 5.021225030587139 10.155591926839424 1.3200377873452749 -1.2541622676983886 -0.9524394550667468
Ni 1.6305872485119437 7.830898676585657 10.438202551767729 1.2947378751279057 -1.8197052043786275 0.07536854673898633
Ni 1.3209118244583566 9.267272152792103 1.343859050398237 1.7330425727830603 -0.17229965014009682 -0.6188002533424827
Ni 2.4872780301822477 1.4667794457013914 4.012494036841406 2.686554177868064 -0.6077380819910502 0.9392903192792985
Ni 9.489451502246967 -0.08965285377981737 10.72202583497741 -1.5412470187018812 0.6372756864388508 0.18837881509014653
Ni 7.029846955921757 4.675763467041204 6.821331919129294 -1.7898104737017237 -1.6745440623265355 -1.5241358129428912
Ni 9.608267515674696 3.8222009103080934 2.8286691323641246 -2.233149391346677 -0.5220820372831266 1.8692022826674906
Ni 8.975329618292122 7.980346796250781 4.913598074728437 -0.3606748656858175 1.558075917333762 0.5127121660324525
Ni 5.082809603447062 6.407697665626792 5.791575861754485 1.177911575464765 -1.864400747513789 -0.20269651726439933
Ni 0.7318623576027469 1.1808012677834694 5.400364950738526 -0.5035405268355134 -0.0531344179311343 0.39147488178580964
Ni 4.283783691100923 8.296909968584755 1.556556674689555 -1.8479968522344692 -0.8214654031483143 -1.431715967148573
Ni 5.531088005892553 4.545386212655837 4.385501882326752 -0.5991307999380133 -1.218230586798786 0.18414677928666995
Ni 0.4243182723467292 8.152342633610793 13.025370834507687 -0.6803501490308218 0.44916066653305226 -0.34180245426134687
Ni 4.462488251820218 5.372123298316089 2.391052135088617 -0.3337628717863219 -0.12876778829573307 0.9219184036597542
Ni 8.503843932652938 0.6315207737965682 3.471572122197227 1.4751262158134077 -0.024703159173634876 2.318801836510174
Ni 6.016999331227048 2.130047933664763 5.249647638606414 0.06150644404491343 -0.5789137015601901 -1.6023572557496404
Ni 4.795908033830813 3.3046021739381146 8.815767532821026 -0.43234488052729414 -1.2507848665857235 -0.37238238393073286
Ni 7.129724017169491 8.337689961139489 13.66797042421134 1.7099502097399715 -2.0502297995988883 0.42826274003812054
Ni 7.251903814641129 2.9752245861987716 12.582996485512936 -0.27550681635790614 1.66963454084006 -2.7213412036402618
Ni 2.9334646677600964 8.790359185334173 5.652111679268428 -2.229768390689586 1.7591125303972348 1.2259351545318953
Ni 0.7882005580378837 4.4578995604213825 6.667222555860468 -1.4797685996814256 0.7150883238429555 -0.46009556827800113
Ni 9.446768192109964 7.609623874100584 2.0317528873777357 -0.5804067411659488 0.20427903126017075 1.2935981050965075
P 4.851424604101723 3.3827512631823327 6.374875801933362 -0.44049347777635756 1.6306766715196237 1.6906383967852365
P 9.065812582364007 0.7597421912372677 13.035285988427592 0.3996021388786343 0.7011182348161087 -1.5423309957946794
P 6.636161732048849 2.791705197338195 10.054603026607989 -1.4781369776152737 1.5030879911336565 0.779585989305709
P 5.421034791234672 7.921852758870976 8.463748945980534 0.2796995142830151 -1.9153960076147334 -1.2347213853649572
P 3.6954135767090825 8.725712344086936 10.911701796651126 -0.5952103818376846 1.0189112135367355 -0.02149570797993072
P 1.0807828710717056 3.3978458907407165 4.8517063327933565 -0.23101207637964088 -0.7252542086323639 0.5287789896873281
P 3.150150778846336 5.937964539741576 12.095320351350923 2.173204378251612 -1.2631791264850183 -0.7611442376607537
P 0.5206713693579865 5.523804518312883 10.103201697032853 0.4438860483976742 1.4652863469048505 -1.5222290828384817
