# total energy = -340867.6991239753 ev
CRYSTAL
PRIMVEC
9.26025690033365 0.00000000000000 0.00000000000000

0.00000000000000 9.26025690033365 0.00000000000000

0.00000000000000 0.00000000000000 13.55332201474813

PRIMCOORD
 96 1
Ni 3.3746968111110385 4.439052190158424 3.0134588292516975 0.3678266462392504 0.8159925529592011 -1.6244882833207248
Ni 4.81754666028844 7.510021843346276 11.989919173544568 0.15703346800964568 -0.07105269297245183 -1.3402579710468918
Ni 2.547681810049911 7.98788812760702 5.008413514241852 1.6594146628842645 0.9229962101049652 -0.2461584451027761
Ni 5.878586867454473 3.2585176311572503 8.285959120767272 0.4934407193973502 0.38469822518360847 0.007226342545110136
Ni 3.801928011999606 4.567843839671997 7.510396883740675 0.6895827233726833 -1.3824582585640257 -0.9851400306235615
Ni 8.90684821696411 1.2724055652439228 6.583756337516561 -0.2226891583362423 0.16493909600996756 1.403103702728519
Ni 8.092686452135716 7.820370084775517 8.410188241828491 -1.743456826137849 0.43329233204222795 0.17995151025839976
Ni 5.365346402783761 8.012650053893998 4.3503315232286255 0.41149091989642034 1.0333595277515815 -1.41821381889708
Ni 8.501026729454562 3.185917219006948 5.332852162192509 2.4577241967414056 -0.25735277115669875 -2.373146986919958
Ni 8.118003993821803 8.620798888989258 4.905001450133934 1.1434739626121855 -0.12945478706042865 -1.2319242822357945
Ni 6.5487423810903485 0.6293400064172944 5.9935770304541665 -0.21731015341251605 1.4293603224322027 -0.3873932555172683
Ni 4.524042825708868 1.3150768278955294 8.787188106534902 -0.4111222237030919 2.506177407146787 1.4817059259134544
Ni 1.431172665539451 6.059374858068039 2.049262386150444 1.0243863777186941 -0.14476982015094422 -1.493049890171364
Ni 1.0980997542866333 7.642739841680223 12.280610668178982 3.3685084381612116 0.10094382410492939 -0.7600402059632976
Ni 6.663967754608998 1.333069506570024 10.156913413035507 0.04284074931461009 -0.11715462953683695 0.6496542626088618
Ni 2.6567213321251426 7.559554956176885 10.30171697232575 0.007911541537592826 0.470404406403177 -0.41846837965551803
Ni 6.696489775970205 7.853077311269761 10.31334600262911 -0.44216443772087727 -0.23501579822239527 -0.08716759625644342
Ni 3.905633626243387 1.055474792918286 4.445516775327063 -0.5930300863569141 0.751847642850176 -1.3484690461027744
Ni 1.073597115185906 1.3363291169114662 4.364914575403919 0.004763739937230505 -1.3065870611570078 -1.196366953956475
Ni 4.309945691918689 2.1758454644525567 6.517982586569983 0.16786475429719477 0.29514618785538843 -0.18667211681168497
Ni 8.515824619584176 8.551032115374413 0.5986154008722064 -1.5928701421948117 1.2560869955249272 2.0499490351336758
Ni 3.978021052490698 9.153587755451971 2.256858819771042 -0.8330340818225201 -0.5157427253286602 -0.022150825065426368
Ni 0.7432670919533587 5.744452049852797 4.160029544930975 -0.690118027050863 -0.8336130942544417 1.162075636873773
Ni 1.3272077641094193 3.461493196708588 2.3045250648606426 -0.1335901493850409 -0.8659485731623539 0.07201479977540501
P 3.322404141798187 6.821568062566397 3.352413855529754 -0.5473274421134768 -0.22695050471575753 -0.029327802429839817
P 7.538089681257956 1.5838557772147306 4.050396440404361 0.49667979515993815 0.2524139390941847 2.143458257337431
P 9.324985845820587 6.744809795179425 0.2556617957718922 -0.4072416577017632 -2.0382052643341866 1.7733063053991136
P 0.8236516758451852 8.90862618624126 5.942846566438477 0.013200043630041782 -1.217844921324593 -0.30424377928128243
P 5.684677093165271 7.893748358484573 1.2472269274076124 -0.24998090417265983 0.21299429964598157 -1.0431472032659648
P 0.15953847967462517 8.534234009808003 9.949114179794234 -0.25468010942054203 0.26795162971846753 1.5601353709659518
P 2.843121038269715 5.415398089986871 9.068554522720929 -2.2499626062492735 0.8144264940236619 1.8458810914430468
P 4.951987066359626 2.895339625529352 10.756539107908429 0.25092398481221945 -0.2689463895315691 -0.12449744305515333
Ni 3.334470256215514 8.701196437240396 13.243099519953637 -0.3697842841862535 1.0299741562191165 -0.22100791397907743
Ni 5.6211054312504976 2.6842798559209715 13.108962850300632 -0.8888180215613595 1.851413848335818 -1.2239412640303178
Ni 7.581844393937826 2.484536119941121 2.174684228268418 0.44383771165824204 1.3101349264092663 -1.0915726457572041
Ni 2.88025466744353 5.315276195067347 5.264517024256036 -0.09676115348214948 -1.0945389274743793 -0.4469544029103529
Ni 5.5521628204776645 0.7765651228219888 0.521372822062344 -0.5051605789374397 -2.203362389892231 -1.4954502720827407
Ni 4.6675860640687965 6.489967532121219 6.403510997942791 -1.7048653390178963 2.3620786449209383 1.6414195118584247
Ni 7.573380519358059 5.520483482471774 4.582622283262643 0.8048275374813171 1.06436831742827 0.5092807717534004
Ni 8.333091975073728 4.422041098689022 7.2634008361435605 -0.486908060485155 0.6121035580485974 -0.005794752304906149
Ni 8.32290569275672 2.6977813101193315 8.991910156490773 0.024274813386964647 1.003438057601801 0.48099400899356515
Ni 1.9347361620090064 2.6295054378254306 5.943985578006651 0.38047544535151245 1.6071140537083355 1.0098514173273125
Ni 2.1088012062933488 6.8034642608120794 6.857303392985786 1.7670778079908986 -2.273977223996316 0.8251366813523144
Ni 0.9631500340995973 1.5013746712169311 9.570637304151857 -0.21721090883049043 -0.5817036056005014 -1.5140414048213666
Ni 4.8866003941410945 0.9319151884129938 11.70902595647345 0.04677042338631945 -1.2566891478853002 0.2832473795352735
Ni 1.1338443449626752 8.20463369479962 8.132033282649317 -1.118693670343712 2.0795169785987797 0.6898544889768312
Ni 9.07480149185825 1.573132400011918 0.35141470160308613 0.7492032632487936 0.5119850580584409 0.42456575080250747
Ni 8.39727481392752 5.529651136557079 2.164451644668152 0.37126832493094764 0.30905919839205487 0.2600794260592424
Ni 2.834360835477089 3.3187648609340195 10.180903033917724 0.04667529256935187 0.2967490135661341 -0.37131589033943146
Ni 6.04130809734033 5.693372474161333 2.0161106673369127 -0.6348189973682421 2.4016049851503345 0.9972861790677922
Ni 1.203435173701135 3.327913994506022 12.577102787580097 0.07697677176637065 0.0006080658976441141 0.3067950849482265
Ni 3.2634163069260653 8.763453142710611 8.052610839423615 0.06564257770047405 -0.0819135469463557 -1.0946392004976695
Ni 7.229519409105865 3.4846808793647566 11.400851097280393 -0.8627159251576689 0.7697332648813453 -0.6786766179831409
Ni 1.8920556391007481 5.536161096983312 11.216580324140073 0.33333015512427755 -1.999252280109757 0.06626684154803425
Ni 1.6540948239188182 8.527909254514809 1.3167964575557731 -0.5597371286317392 0.777602383216777 -0.16327070716860914
Ni 3.0331692855351053 2.0743808323185178 0.10333242590071222 0.38722767647368145 -1.1139571840999913 0.6812495209166396
P 0.9078542635545587 4.616534269147289 6.007753557362444 -0.4250005243470809 0.24829477471948852 0.683117941583946
P 4.372933957664398 3.656764228725608 4.68722614240165 -0.6454042290832562 -1.9919878852378599 1.6637032629572897
P 4.580252583585442 9.028342784236047 5.9589890458339365 -1.5347290150777053 -0.14573269828484578 2.171106615182319
P 2.1382488224461498 1.314197103513606 2.2133522819694407 0.06837154659586289 -0.43990212404926177 0.677225230248595
P 4.619803139745383 8.699807398742623 9.936523008824748 -0.11843066803578313 -0.6528614566922498 1.011750177011922
P 4.964877343618965 4.213027845800696 1.058393625814941 -2.295991523483878 -1.9006062509000687 0.7474896229917966
P 0.19262352464026317 3.982373373117055 10.754533336317643 0.35518607465710444 -1.6252084493162011 -2.9279491401439253
P 6.630417844759438 5.814737397840144 11.36218304357937 0.5420790492303439 -0.203069841443418 -1.8684790313482207
Ni 5.626698626268198 8.781019849579122 7.9319321007627055 1.9942964787663782 -1.2204576763570916 -0.3612813889215649
Ni 3.646800192568245 6.72955815247387 1.186018482990384 1.3831786816698177 -0.059730840201729384 0.6904484138070883
Ni 2.787855826571627 4.398520046793389 0.3486338465305433 1.0253479703010149 1.4913303363770962 0.5600184073175838
Ni 5.166806500168646 5.231452351855032 12.728819128460925 -1.3909740093445206 -0.4063620833102873 0.18935609140175128
Ni 7.197469660833902 5.150508448461436 9.280962585697813 -0.2715442321657323 0.9509286748491752 0.26319123221534674
Ni 8.781797711137875 5.253454721659767 12.189573085034894 -0.9245447855390078 1.4291659470332099 1.8155536441040991
Ni 7.0618254213979785 4.2034156993961025 0.5992654708891645 1.157125491957349 0.6572156198958875 -1.2594258300901728
Ni 6.3086239261085435 0.5795355680667875 2.5342136927754977 0.3511468715907243 -1.947641240801684 2.4021140635762697
Ni 8.925452072577626 1.8074354138163773 11.552322967385612 0.9663686635533293 -0.486612126511291 -1.4220463052692929
Ni 6.960305227724028 7.108941607242461 12.961380287989176 -0.24954227397334441 -0.5950859404446784 1.8913142840751813
Ni 6.193167046173597 3.993402338789378 3.6958684405149316 0.8713165223424866 -1.7996827385101135 -2.8916983853420066
Ni 0.2974348135282717 6.14546746416005 9.607624621270574 0.14466929001733794 0.1095315657739404 -0.7999141593400998
Ni 8.452632628192127 8.4659396170008 11.95566918829213 -1.9161897071606224 2.4467723257155924 -3.019084977019497
Ni 4.735000732494078 2.313517700095229 2.2568717841303547 -0.6186472727043862 1.1970837775178416 0.058739165712421416
Ni 1.1382614873855954 3.921968718977205 8.36028471873181 0.9167384021207114 -0.038217391609985794 0.1506854143044308
Ni 5.063443515420984 5.814376247830723 4.430838342508256 0.33552433456211894 -1.1395255194873988 -2.316852168982971
Ni 4.803258084274676 4.946745761094693 10.035692949360465 0.5534109293033952 -1.9520167441615606 1.7355296008709722
Ni 6.871879036955758 7.185857298992515 6.202623620266441 0.20174083821934932 1.9207665278980277 -0.438782922843154
Ni 0.8689435911292579 7.907583181922399 3.383139387100507 -0.32202012942809705 0.2491650931395838 0.8769022439603801
Ni 6.427044088172073 3.3262101072820864 5.806405944930497 -2.081156828195048 0.19321557435715755 2.0645423595668184
Ni 8.811837983716392 0.4236697061802759 2.7084824627061796 0.1527402399509305 0.0764340118890232 -0.7487692610351686
Ni 2.8313142110386385 0.9824669294753028 10.581634158345766 1.0315178465571526 -1.4511085127425718 -0.01063433978539459
Ni 9.120019325089107 6.749671429921633 6.735743077891623 0.004082140489173615 -0.7668060639322214 -1.840949201359068
Ni 4.562778479283449 6.697739910618201 8.786225039843112 0.4457542119546646 1.9228414081491856 -0.8208182564826186
P 9.138095346073468 3.830671848646869 0.8009501566632377 0.26157966475385275 -0.4934620595535889 -0.5081839391447958
P 1.7466696096671062 0.8362465509173314 12.374454109088568 -1.0616262359067588 0.25445822321772305 0.7692318997648946
P 6.366824639165259 5.549014333216045 7.186201780539962 0.004468577294314885 -3.0557856748746404 2.1472352078813604
P 2.978413387952868 6.470169103399618 12.751344702766488 0.5709011156683587 -0.19142660077753484 -0.43664016546853834
P 2.4794337185259656 1.7779600168936205 7.879101410538382 -0.028252052867157797 0.12937713974495782 0.657712614136964
P 7.199571739093866 1.059317799428793 12.432462208806927 -1.039798855619022 -0.419668056390574 1.2575772069172084
P 7.007939987941013 1.2858236771324163 8.05004945243372 0.2135296033241613 0.14200099915655545 -1.3189237283454898
P 7.190450386291818 7.6008742213573255 2.9457598709472053 1.1521748328202932 -0.3196482867618108 0.9283878134341819
