# total energy = -340862.38834512624 ev
CRYSTAL
PRIMVEC
9.38483404486382 0.00000000000000 0.00000000000000

0.00000000000000 9.38483404486382 0.00000000000000

0.00000000000000 0.00000000000000 13.73565325822481

PRIMCOORD
 96 1
Ni 7.495188259463056 0.6382785120198278 4.708032406572159 1.2966237792967088 0.40841176675046437 -1.6208648276355246
Ni 8.311499887205173 3.6105802462933325 9.35697414458168 -2.297230795207618 -0.04898080077407694 2.7818963395154994
Ni 2.788975572196261 0.9740800714887878 0.565409030233177 -0.9267567055886619 -1.590727641930512 1.3786453125758384
Ni 5.584811458019242 6.841187335105544 2.252852854827033 1.0030778460489047 -0.8729833685219481 -0.4809143047955653
Ni 1.1315106612128 6.032571271212826 7.863414420273086 0.4781002323855379 -1.370831987179007 -1.3689381125904037
Ni 4.18832000987008 7.269961629192618 3.97535935758887 0.3653478456814547 0.2693536522723168 0.7655662779878493
Ni 2.1488172779337074 8.458898089423078 4.40075229599919 -1.14667010095198 -0.4192314830737876 2.5172223521070394
Ni 3.1283311682868886 3.46888802312474 13.389321967925547 -0.5677250319332222 0.9966588298964383 -0.7464691521470822
Ni 2.179327373146391 7.320592808421295 2.2188028002436253 -0.1998960717011267 -1.8374758980984873 -0.23308644241016632
Ni 5.868008207677174 6.236053241191725 6.132172514058784 -1.0813908201281957 -0.7442142946746344 -0.69513039266379
Ni 3.696113623029228 4.9515697863871875 2.509929734600024 -0.8744249860644812 0.4114466969220462 -0.6655596209852086
Ni 6.0665443701577395 8.941935493482386 8.759528106650091 0.1763321683382576 0.11753078192933307 -0.9998963629971296
Ni 1.599156937573309 3.1648194027338015 1.4633414974321488 0.5651606136401557 0.5485492303357198 -0.006896470009517155
Ni 4.028749678002575 0.8613935546486606 4.5939025022685716 -0.20356375036070104 -0.5578275703138521 0.9869606287720681
Ni 8.35111327136166 0.5958750167262359 7.049027621976713 2.2496743855848935 0.8241990000293934 1.1630680826940294
Ni 2.9646972033135426 8.91200725797539 9.077563236944293 -0.1631570644088803 -3.818666949831159 -2.120178460873884
Ni 7.136856529099882 8.216994609200954 6.255724791660905 -1.356352048395277 -0.38603828415127067 -1.482806358066485
Ni 8.197708775407639 7.257995965890198 1.9534569432661142 0.46445795901175496 -1.9003249722142237 0.13983021675748175
Ni 8.559071807140759 8.550203139046024 12.892764772059596 -1.0925108413007572 -0.3732920402291959 0.5725386512717816
Ni 4.648458419060441 2.0857511937044757 8.854688446064905 0.20173106802733642 -0.31124720718230914 -0.2893450077925791
Ni 1.0833758478181976 5.961218378594545 5.272031834744141 -0.46147830755814073 0.12190062886225457 -1.4999450746293006
Ni 5.698414873137524 0.1399428901179483 2.7561690081129084 0.13362408794676986 -0.4063859945696872 -1.0319513345501454
Ni 3.183861230844086 4.964671014599093 10.820686342955355 -0.25948370145677246 1.578860972399913 0.2663567744275219
Ni 0.5155661770573661 1.2758212530569815 13.475829490426769 0.4743088836639057 -0.29248818140725114 -1.143822861311172
P 1.5542974312316828 2.575845992903723 11.757169831106236 0.801794149971632 0.5032672185694689 0.5378408427792801
P 2.5135870043952817 7.494484396915854 6.557153458258141 0.09264635998282754 -0.36227743428624704 -0.21654525022203355
P 2.581429969111519 6.532548300574779 9.41022744641953 -0.19218379065853355 -0.13269951924997148 1.3384913660647721
P 1.623932899234793 4.865501474115418 3.2496357781549476 0.39029783075857294 -0.006790797669588304 0.23661810971250857
P 6.5832639433091185 7.848536642992045 12.110628955675985 -0.9134877563938978 -0.8920534977795218 0.19639320075419078
P 3.834774544827874 1.6357765596956995 6.802225258426068 -0.891075964357601 -0.42091581275474604 -0.4608123918393677
P 9.173008875311575 6.307593830489259 13.853505240553826 1.0878412037392298 -0.21918937271309996 -0.5111419933318552
P 4.938327785665841 4.8662334911645075 4.358968199747135 0.1822899285835893 0.6441703566761551 0.5965121313682437
Ni 2.043003275004453 2.080139062994791 3.5986314756920446 0.952295730400031 0.8763633407377747 -0.8141516430957204
Ni 1.727682238692257 2.3296911828965023 8.056785170140591 0.3870803522625398 -0.961537303602957 -2.0845951644526357
Ni 0.9104508972217951 8.892880966359442 10.998659395740283 0.8084160261635238 0.45451473175611395 1.499915506942946
Ni 0.31781740214626997 6.553870643337995 11.517276582318917 -0.35159887152647834 0.7772488565321002 0.03294277347460778
Ni 0.7528391802023029 1.1376295729564696 4.986481368728368 -2.0467369559542816 -0.5321695034261157 1.2520837879028048
Ni 7.956678084744044 8.477451906167303 10.605792414877833 -1.2158122071652804 0.08748872704128803 -0.2938282403749133
Ni 0.4302298818346868 4.48004757360009 12.43832108011779 -0.08490888212925377 -1.2964546007086961 0.17016692006781015
Ni 5.887181423462936 4.117351895444268 9.98871799671329 -0.2158088862766412 0.3097238285592473 -0.43994377592047457
Ni 2.112995366698145 0.19936672028626268 6.670060518696392 -1.0166841239784299 0.8289467991270241 0.619174863073082
Ni 3.0924998722173638 4.354816349202044 8.031951022508538 0.11276292822704449 0.9828808022757396 1.2726513276415115
Ni 3.8311613837522414 7.616299541751483 0.3708642376369411 -1.0965662423170535 -2.553194399326274 2.872579662234685
Ni 6.172001749396411 1.0237539976532706 6.501854262616426 -1.8309087864039306 1.9689520864643186 0.7949269905381535
Ni 4.314489717664394 6.991748226368872 8.237422577287525 0.6772383428747175 -1.1867733967307692 -0.9781474013558122
Ni 7.251999056988042 4.751532050472593 13.548518783401338 0.48800360754217886 0.9971283133336892 0.8962143140254308
Ni 7.81029344459411 5.393435923852205 4.723842097865695 -0.1157754898011232 0.6153619170848951 -1.1022416954352758
Ni 5.738769659177062 5.670785921951384 12.016058922317422 -0.9156127731567005 2.04821739715455 -0.5651703838321686
Ni 1.1881950583474072 8.06690295963576 -0.0064548887995335745 1.3101930333407112 0.15849668281873347 0.5129260818154714
Ni 9.403040540570906 3.95014230873114 5.548997993134247 0.09728154476199376 -1.5919980240025033 1.964424373797294
Ni 4.149438642762683 1.7802091543813954 2.4779527898389735 -0.21355737123830318 1.3970502974455876 -1.6195584501192752
Ni 7.949301605249375 -0.05104880434001581 1.484274369585914 -0.24830968711782397 2.888567295912193 -0.4646158247458579
Ni 2.0292732629170476 5.680452300932949 0.21729363012178032 -0.31192906374068213 0.3404189436502589 0.2663719439361735
Ni 0.1646118646722576 7.932953224486381 6.147089707642469 0.3151768812540185 0.6136577899095949 0.8480051013100557
Ni 7.464490467571118 6.414318162312894 9.604463477978394 -1.0004082696365415 -1.8153500127337252 1.3072732885907552
Ni 9.366524151622105 3.4367449668025505 3.212219383629126 -1.6808802889572085 0.3882967411681442 0.05783182340680363
P 0.6148333198142525 0.25404088598606306 8.746836057198957 2.315575873373709 0.1698532454821333 -2.071793384702277
P 7.5883045820407995 5.238436006124528 2.444616921120126 2.0298373519854658 0.4960557884226941 0.5113949898829258
P 6.3240923685956565 8.252140812391202 4.229963333612694 -1.1511651606088562 -1.808795499444659 0.13434811059698798
P 7.657574041519364 2.7785771761656073 4.87585482294305 -0.0007013969423987921 0.41130142959343363 -0.11889038128102104
P 5.72725446790485 4.940795996998027 7.915142686592 -0.7766503037161527 1.924320306687557 0.8773359890636889
P 9.29613789690198 1.6566015062588937 1.8485307456297297 -0.21606419682055691 0.48643086373842026 0.27091739721501085
P 7.034824614257589 1.4898799309118247 8.656744466607387 -0.17945194491416191 0.49124653995950884 0.018864183894354607
P 7.996770095432628 7.450478910464832 7.896104612415301 0.5457930077468214 1.2213130823788514 1.3481147480871492
Ni 4.73963208100791 3.5224660402176995 6.567688872864649 0.30780218605650217 0.7086983611562117 -1.3244256320003256
Ni 3.838566017748798 2.867629865637509 11.072942233521715 -0.24622400823338886 -1.4700727125499007 -0.6278379380647188
Ni 1.2623540163205307 3.7521035424505973 9.854437915408425 0.6394166440412536 0.4075062242170595 1.0657610840107385
Ni 3.307938120664722 5.70906665968517 5.657440688056449 1.087881570058862 -0.6072757976426509 0.4426043534717732
Ni 8.074626677987048 5.489433390456492 7.260487639307289 0.16494372399565785 -1.2116143670338488 -0.6811248224133174
Ni 5.201985311013466 7.662303997836556 10.461609456775543 -0.8109804444565903 -0.19838143482881318 0.8751862897105379
Ni 2.44681391075079 3.396746804453594 5.904338776913514 -0.4679256058453812 -0.7418110845497805 -0.7302568040532778
Ni 2.819279201061765 7.280650955076115 12.03027600728749 -0.399037524624416 -0.25751680753838874 -1.3148978950155483
Ni 6.199743318590103 8.214338701189513 0.44177416609218356 0.2047066057158926 -0.6083536040878619 0.12427709951423113
Ni 6.3906402262250435 1.7147123981558285 10.791168224692527 -0.3412452962062962 -0.4479635609011575 -0.4382985270075677
Ni 5.594900154529127 3.3999845721707196 12.360782643434703 0.3025957021548982 -0.4103534638578675 1.4566536109305173
Ni 6.9425998509063 3.3206170313483065 7.443308897317341 1.098990792598146 -1.3911020502819527 -0.9320927730895948
Ni 4.458988006187829 8.924592320319348 12.660014320401277 4.153254117290989 0.12912851406926149 -1.4485145267631505
Ni 2.858939509388065 0.6166183152339548 12.008820399882003 -3.7954982250241796 1.6217947956489618 0.9497711642059644
Ni 5.947741757024131 4.128632465867414 2.2495700399068865 -2.3378030602030253 1.0113827663701744 -0.8932655158097519
Ni 8.768897924878432 1.186224243215244 10.079373615826018 -0.5070241145087397 2.6400490923279887 -0.5703935799043209
Ni 4.400407872592759 8.89252434266886 6.68404392130079 0.3139394093024916 -1.2798259910130796 -0.04271193704622967
Ni 0.2975874540563098 7.619950242162967 9.256635253786254 0.44149389401641387 -0.841739322906002 -0.36177786894200925
Ni 8.731658903714505 3.247969031643175 0.49584488696818335 -0.042096929170050076 -0.3518356701276327 0.7506605645206105
Ni 5.5112437445857685 2.8004626089665847 4.194538400853753 0.3753836326509019 -0.597942436056867 0.9827087954742495
Ni 2.2836398026416154 1.3226609593647336 9.968472094405593 -1.9612835141754674 2.87168209012108 0.46994880692299706
Ni 0.6299982730145525 9.258842566734277 2.757954003532611 0.06517977913144259 -0.5132037609568904 0.005344295031048861
Ni 7.066967670579779 2.3154450049411492 2.3418877131144056 1.6100852205215173 -2.4966393857493645 0.3427635326230355
Ni 6.185440831630975 1.056009671983013 13.366672609640005 1.6917599119841895 0.1801587411731994 -0.07295273820864209
P 0.225571053676867 3.811087223906062 7.892121688881538 1.3916928897884162 1.4595736127907897 -3.0218527695726216
P 7.677854667712723 4.643390608720592 11.386458566262887 0.08351354444362391 0.07539502910154758 -0.4174669349741971
P 8.899497274303133 7.603883406418854 4.126836208646956 0.509618100488161 0.02314584198884401 -0.17231533386938064
P 4.226891677456708 0.3902063804340314 10.431623973781374 2.676083874464359 0.734645934259909 0.3814270106315044
P 3.0295370211617216 9.16246032193752 2.687669105019283 1.5192291196698933 1.9093341176913698 -1.0024335275966865
P 5.1258179985723284 5.230430742754359 0.4478273839981143 -0.9427515383550215 0.4594170541537378 -0.04344007346150583
P 8.151047380945178 1.1379017331413874 12.095479018210025 -0.7547013102488874 0.21073764240132092 1.014348790977034
P 4.503368885997358 2.0514683952387935 0.27719139440521023 1.262956468951251 0.33571279642384116 0.3554395854288072
