# total energy = -340882.0183906396 ev
CRYSTAL
PRIMVEC
9.13466265169829 0.00000000000000 0.00000000000000
0.00000000000000 9.13466265169829 0.00000000000000
0.00000000000000 0.00000000000000 13.36950213661542
PRIMCOORD
 96 1
Ni 6.48432259454556 2.2310957135216714 11.484067917147089 2.697900456118818 2.1577798161664257 0.4492696813070907
Ni 4.480250655382234 0.6287141763527201 6.069058997109223 -0.026670824422966966 -0.9433472629574915 -1.2518495604048119
Ni 2.383014290407908 1.898000234827869 4.803100696289036 0.5881894704351611 0.4510301156416232 0.2697938251335289
Ni 3.028204658037744 4.6572438816312705 4.707268035476625 0.5502119627501233 -0.17400789108045514 -0.5888605283602568
Ni 3.7658743517692126 3.1289965272796856 2.8647097229957783 -0.8595529540486553 -0.8469154677903027 -0.6937234850139343
Ni 5.682984301157 4.410434427666431 2.982615382977685 0.9185962812650568 0.5110041822024103 -0.16883020353425762
Ni 6.062374250878369 2.8878322949200235 0.45353052680268946 0.04330123389079639 0.47854966121813064 0.19264530367598434
Ni 5.871870858360633 7.7063303788104935 12.10814351173426 -0.17076290178059625 2.4160653835500394 2.3149032727867165
Ni 2.2304288831378885 6.603703502568302 0.03503965300209945 -0.2555787099754115 0.27889013100784227 0.08314716224314067
Ni 0.3117833969348414 0.6183856131343166 0.2652349822816705 1.8347474434237308 -2.452468347659105 -0.03222569280292514
Ni 8.268660220258194 9.0472532032958 6.5467242164734625 -0.41278701300002457 0.840300019356314 0.9882194408798335
Ni 9.211667998880873 2.6310843278379807 0.9446017772798041 -1.433531423090757 2.721446104649242 0.14884296177905335
Ni 7.252118406163554 0.7315147579425236 4.470574307087147 -1.2142872858803215 0.7143468176912408 -0.12740407517898703
Ni 0.9550381295191479 7.369352668430282 2.26170505506987 -0.5988353801847817 0.42291844500707165 0.37098910312763206
Ni 7.600459637056449 3.6323712550707365 4.49232667959266 -0.0547171890372219 -0.21011903498071557 -0.8319621889145801
Ni 7.821125686111879 4.334150858694213 12.383380949772677 0.5430658386236454 -0.9460224957968095 0.6642501581451656
Ni 8.714112051288039 7.541440580760257 9.141503740512714 -2.094243229065361 0.8692149026184515 0.533471510066991
Ni 7.087904573159894 0.6011147061943367 0.2122448034278998 -0.7498252131035087 1.0095786232819 -0.5473153579286186
Ni 2.1890305913665924 6.601584260800663 9.065217431141658 0.16016867120451772 1.5897755624298877 0.9421172472051322
Ni 0.4500008931000352 5.174567239505015 1.1993848783953853 -1.80477480832104 0.14099132694511848 0.1658374394545208
Ni 6.590777954718261 1.9260527842607136 6.505666647624291 0.4175368689801841 0.5744633790983203 0.7859466414164141
Ni 4.250504751512007 4.396577144211652 0.6608142948684994 -0.9212383468735942 -0.1548194910774624 1.1602830637497243
Ni 7.048853889726026 6.002816249477475 4.866378332378648 -1.0287431120254926 -1.2098385060803487 -1.4498679554672513
Ni 5.254111883093816 3.049789866214172 9.531626005547873 -0.3009255135413269 -0.27326815683537453 -0.06541940594607443
P 0.36346457861058323 5.740048539615801 12.439159027710428 0.5251208241094504 1.021443493040286 -1.0044994089867798
P 4.278201049095981 6.036002479399169 12.69991711175796 -2.09808060053358 0.700772935661548 -0.14970633822061316
P 2.2135845649502737 8.638093387536776 1.0658726470341178 0.011858699110798931 1.0246023503842419 0.15589909729488635
P 6.493795239860394 8.095814130916521 5.5428750163276765 -0.16258730794833937 -0.20905768359573676 -0.30908285254113865
P 4.887145074768953 1.3583882997427468 12.811178218025296 -0.8234582652086271 -0.5516715780147855 0.5721869243593178
P 4.5823670507289505 6.702147763472817 7.7786705138556 -1.7555487243053767 -0.33884157186081 -0.42792541130335976
P 4.647040463293111 1.152958868223621 3.8033292096133975 0.00557595142588072 0.41469322888380195 -0.6707720184240834
P -0.012638719438385983 5.607130061335985 3.6056879915903455 0.7951432203140176 0.7065008392842608 0.9936866346419919
Ni 1.125061608058233 0.03294872868911408 4.155254882185697 -0.5437875472810183 0.14099055561417007 0.6531224236631202
Ni 2.0687910250414445 6.840547039427562 4.529681056146138 -0.9767716040542083 0.19484385398919993 -1.0857516682000528
Ni 6.062355981552785 5.429122887517086 8.600159873362314 1.6453419868412826 -0.619836665026797 0.22687311451060285
Ni 0.2727930022753974 2.571142670599842 10.110418336278503 -0.28068733211758107 -0.7562645409709491 0.04941017500201168
Ni 2.5005591312095494 5.988694060801741 6.740261230504272 1.460610024475104 -0.5549199097487539 0.989454084617883
Ni 1.3636864041618448 8.933106457052615 8.892978796875623 -1.554676918954542 1.1813866784975589 0.6310402470521003
Ni 1.2644748315828405 0.823552879831325 11.556785313765488 0.8885046040859987 0.2893478360060565 -1.2428278165221758
Ni 4.228782523393705 7.5529776598659835 1.1277015256049905 0.2606998332520607 -0.5106102891981013 -0.040309498252324126
Ni 6.069956020995353 8.381948308198975 7.802802466018312 -0.8506721066192575 -0.20901011818725293 -0.8593562646568167
Ni 4.755697277198576 2.9088602886661676 5.072295554890842 0.7832744939008898 0.38436680998611866 0.04006447212105358
Ni 0.6749063391570207 7.427348642493822 6.335138935699113 1.0139091323364537 0.14064371379771262 0.6278168550187961
Ni 5.020109226362728 5.129843930477595 6.29600604030012 0.2956701786796585 0.060299054000373574 -0.2714321320679003
Ni 0.9493380999372218 7.603976482231197 11.245248552726018 -0.5137092398383991 -0.1748221594516344 0.05987302220654849
Ni 5.13577232662931 0.7432135205796593 10.791461341898886 -0.8936421824228804 -2.728410708892534 -0.848713697341306
Ni 8.434673581831792 7.844629173474531 4.284791708300082 -0.1345165178540522 -1.367815054729554 0.14110856924927312
Ni 7.637646849280842 6.613057397266847 6.932488333890773 0.48212606571547933 -0.549087362227377 1.5322738686689932
Ni 2.651491164514299 5.677530907470446 2.3228442665999807 0.7783945401007691 -0.4330455061387445 0.33625555630118864
Ni 2.2443775132205825 5.469196653183608 11.20903052822381 0.8993582589710511 -0.2700373086029027 0.3032518476816584
Ni 1.2281097390096876 3.7588954693964696 3.373673950948977 -0.9522193686361408 0.45200944883575706 0.7743802767350534
Ni 1.640302262815505 1.5717648878905195 2.366615743764521 0.12291981415538832 -0.9030282516234707 0.29652095671572803
Ni 1.4463551024253554 3.9244155591793217 8.486785919591295 0.6429141156715509 0.7904321879915935 -0.9339537375577335
Ni 3.846862272079078 3.231679271719478 7.500531906914588 0.308561689930346 0.928028373212234 0.39612909272836944
Ni 4.248148008511787 7.405005257305694 5.245711647190708 0.8497796767119752 0.7862130077039233 1.6412752729710767
Ni 8.24820771026792 7.681931694494267 0.038258708169841005 1.1303587653864664 -1.467562544533537 -0.15596131799138946
P 0.4650950098967893 5.977485829556512 8.171373321129371 -0.7489685215301681 -1.3047728907664047 -2.431511285791464
P 8.910836149166819 1.4404084369480574 8.087198316971532 1.155245758436133 0.03624535548527951 0.5817066909242948
P 2.658533989526583 3.392814723362387 10.266521502189548 -0.27367773356896735 0.1750090786514599 0.4183719632869698
P 4.355480296312478 6.045657817969835 3.6869609133793078 0.5161376467742337 -0.12239736599301503 -1.3022802062515377
P 7.087721879904063 4.1064602539520845 10.234714606349376 0.4638457793490528 -0.7554032214119184 -0.44427017120997037
P 6.338551645718034 7.970532230730439 9.91396736481719 0.9820822176338442 -0.037466629486890314 0.8286570358007471
P 2.4175981237367097 8.931708853645508 5.944561764456935 -0.4794338635952969 -0.4395905063461139 -0.1333050140444543
P 7.3008152935052975 4.427954710900621 1.3339704326346595 0.7810584600861774 -0.4829745297587037 0.8254549839236817
Ni 2.9297695317960213 2.09071421574116 0.42668466632460866 0.4870363585329031 -1.4001011684567695 -0.33446221184619174
Ni 1.9392889106456666 1.659201880131218 7.354161724207938 0.11607553754004525 -0.8332382274135264 -0.10673086310035168
Ni 7.168718934876719 0.8379765123791795 9.137092611850676 -0.7210172877328808 1.3720290928109016 -0.3072524842006192
Ni 3.2523875522679178 1.347709878939427 9.567136093683736 -0.6752737629491791 1.6813443730778204 -0.421403551024442
Ni 7.106000340149951 1.8989867784093561 2.346347753962634 -0.06825713250518566 1.962397830285569 0.8680741041457889
Ni 4.305952154656704 7.067625621762657 10.713356321166032 -0.6703112767375811 -0.8295929173514551 -1.5901612279040807
Ni 7.522979427258538 6.578208658717092 11.226705187259174 2.482573908795234 0.3036418840312255 -0.7612931045337922
Ni 8.043837899632614 3.6520381840609395 8.386836266258733 -0.18665643308240112 -0.30768957173803785 -1.411677046219827
Ni 3.305322923144939 8.83319151543866 12.43954633741279 1.1166316456083607 0.3986001799766813 3.053939108584205
Ni -0.08295278627632767 5.135872807920016 10.183028857342238 0.737584962283575 -0.31688460797374457 -0.0016992420792938476
Ni 9.024727124851841 2.2800757754099523 6.110638155203792 0.2432142748727876 0.7452666471985487 -0.8421203603945044
Ni 4.07238796173961 3.204741151147203 12.014422784959256 0.2569735334404091 0.5369674390353915 -1.568888948788866
Ni 1.4870226211733273 3.3842372750011234 12.231597565895754 -0.6809080784168209 -0.16007816837324046 0.09731085533803241
Ni 3.4399221793784007 8.590821507590514 8.189181346241494 2.049322457293271 -0.5774247757194894 -1.584372903357078
Ni 5.7982363415979625 7.867611985058066 3.215298080935395 -0.7457484719309737 0.5571410857697888 0.9468722453916144
Ni 3.21086137521754 8.646049678828215 3.1194791221171716 0.42370700234663805 0.19194287829232104 -0.008051666659882908
Ni 3.848214202172227 5.148177198700232 9.301363079763645 0.29684311594183715 -1.7868907289517677 -0.08990710667479354
Ni 5.760866436117739 5.23873824561564 11.324463434988044 -2.05815933885861 -0.8976721295178799 -0.1704278870386807
Ni 8.554374203052237 0.16055631402192477 2.3386737237514548 0.027454753776843036 -0.5083474613058535 0.19342846169891204
Ni 5.073355175774662 0.8360783294510958 1.6017329761107513 -0.7006209834647159 -0.4470317931155075 0.4148387533227307
Ni 6.165157476608869 5.954320324717146 0.32620611601641675 0.8976075948285316 -0.39941753367165406 0.3506614473138735
Ni 7.885616405420207 0.13465589114276919 11.218202643132802 0.5771116153544448 -1.1989174882924707 0.4095399668176366
Ni 0.5624677748558549 4.934709263924544 5.772617266332787 -1.5535443480119953 0.2506681600476715 -0.0901683307559802
Ni 7.60600437737092 6.507606850001216 2.394517571261305 -0.13339834508920898 -1.1426072437365162 -1.00873915809974
P 8.921834283167843 2.073933840193086 3.805334268096142 1.029359148342937 -1.4467787750189665 -0.9615427029195954
P 2.0071959938380357 3.7500439811514594 1.3363783297465115 1.3267342255288441 -0.4470585325883849 -0.30686167652010377
P 4.966689718357753 1.4527310970538558 7.913568473562345 0.38415803640942225 -0.4404981057620478 2.2145492597469865
P 8.619915408581594 1.9656606821248659 12.155123995937473 0.017437992970789323 0.9480804067671025 0.3986688284310876
P 6.425093441005161 7.940470055483455 1.1387115346676435 -0.2668661099637727 0.8053448434373679 0.5381192932516473
P 2.1399226441992294 3.5849166818686444 6.259066377437378 -0.49161060816714686 -0.8222264496840549 0.5769488645243355
P 7.061742898924899 4.167233165504254 6.443231227444059 -0.7143604445379955 0.825209700682095 0.7465372863808563
P 2.8666033385924656 8.525618284584445 10.541585381634924 -2.3863922819656382 0.7770714504139713 -3.3191399150304126
