# total energy = -381164.972320042 ev
CRYSTAL
PRIMVEC
9.26339230045602 0.00000000000000 0.00000000000000

0.00000000000000 9.26339230045602 0.00000000000000

0.00000000000000 0.00000000000000 13.55791098975893

PRIMCOORD
 96 1
Ni 3.9228519921103895 8.885584582971452 0.5075810817332012 -1.87701175140958 1.1591157829145005 0.6366560505769809
Ni 6.4078773273915 3.0683040776395814 12.845143692327175 -0.5166575238334457 -1.5801807196526012 -0.0838984385868684
Ni 1.794189348099653 4.318130193285282 10.593148246871838 1.7661452688743002 0.6241782298249443 -0.006043120870286366
Ni 7.227854262818351 0.7981588681861671 9.347473983532542 1.6266500668587338 1.5216068758734504 0.4733382922205203
Ni 7.655063376309568 4.5895012627099145 11.692016273370664 -0.894827203869917 0.5150156173546485 0.5934507188341005
Ni 6.626780544376429 7.305379590690505 4.028136926869206 1.3837252982019073 1.1507717818251795 -0.9235605672488676
Ni 6.850065345790027 5.224858795042964 4.593094532477104 1.0341853660869866 -1.994430690351397 0.263289705466424
Ni 3.5404313790686723 2.763251314805563 10.141872840895038 1.5320388698400518 2.378823211369129 2.8947721391713244
Ni 3.2845857546809296 3.388724807846034 7.645712908397733 0.8423856982407493 3.2657956950813176 0.9651165363137829
Ni 8.856608692711673 3.1015318648396546 13.2325480102793 0.9875530109404281 1.534144346218829 0.3222471578372386
Ni 0.9762318321346406 7.099889765360359 7.115082654623487 1.561855181870536 0.18471447886468187 -1.377630755268395
Ni 0.9106006996248772 0.04441611209002311 11.484052196030165 -1.8765708072174196 0.13015104179650488 0.7800014795765727
Ni 2.6386031116931594 5.740709306838475 8.378015543647885 1.4623360060272752 -0.7496064122244832 1.1396949551857274
Ni 4.8533226676327175 6.217570201593253 7.934604757501823 0.635830469351892 0.10803055574838169 1.4502855026206443
Ni 2.8934575531340365 1.4778723005610652 8.707351362340914 -1.2201853965323115 -3.860435292017197 -1.0116794716749866
Ni 3.582552022614459 4.496515333545059 12.406491510665273 -0.5565016524135771 -1.2298121209887982 0.26412068600815153
Ni 5.38506916014619 3.264447140414702 1.5871979269219654 1.9832661890941459 -0.6233642185640813 -0.4260649610558533
Ni 8.72769006587492 6.399317953158752 10.795784947457733 0.28572206632801117 0.8577701511166195 -0.09430626418375371
Ni 9.080375190510662 2.6903854731228813 5.772158522769406 -0.025437209126181998 0.4305926737228778 0.27389087802103795
Ni 1.9223669035742608 7.399643867955057 10.553680638802522 1.4410763253175503 -1.3006061609832247 0.6009112888772038
Ni 2.9756886841557963 3.7782133890041867 4.934035528701289 -0.05996763880288382 -0.21668537534432358 1.5843289374930198
Ni 0.171859080576907 7.758313143840101 1.4871125341077822 0.42701755477710973 0.12540581380203564 1.0468732459673002
Ni 8.637409047181887 7.552082247147812 5.145972674882075 -1.3404896274417237 -0.022988490475373314 1.0675950518956838
Ni 1.8621641187921927 1.9151044042252623 4.211399243031084 -0.5908227942929503 0.15271195781615635 -0.7375199133735942
P 9.068721843340967 5.029966290191458 5.4411960524364735 0.3343380275635016 0.3573532575117523 -0.201950126016678
Ni 9.00906559868848 4.076105549801501 9.998118891727392 -0.7411037740701107 0.012370862860527082 -1.7390556117463598
P 4.902326011454404 1.7557647979725537 11.825874140836097 0.43373096224154334 1.6305229195505788 0.3610263354879653
Ni 8.018753410673128 6.7147179248866875 7.529874191102801 -0.5424857977504594 -0.8368645113122039 0.3757800967583722
P 7.875819271699853 8.683420315378921 11.227224652087584 -0.4349272965424897 -0.3167905055980415 -0.20978633423164517
P 7.298487627022578 3.6087303684821497 3.02626124658682 -0.2226703892831649 0.564753350899408 1.0673402555724005
P 0.7225714419260164 6.021269661153677 8.900700586080758 -2.3481247538440075 -0.4461491334002381 2.269909995905478
Ni 3.9085585782130616 6.797819814758965 12.421377781652314 -0.7102736760631316 0.05951023955049106 -0.08444402667769328
Ni 1.3140028956072596 5.852926037850934 12.420619109845319 -0.10027019507667247 -0.39489804853474575 1.1047942866538005
Ni 2.510759038331516 5.109668515189908 3.154464739559103 -0.3714755558457473 1.1346715338292073 -1.226164754044198
Ni 3.604987958103329 1.9059984898629336 0.06636571949748739 -0.20920295092434937 1.3018675441941514 0.26668896095596006
Ni 4.872683156968696 1.5160374757114148 7.712471395717156 0.5348660764216724 0.09550234137438392 -1.1000986809503441
Ni 1.155598891949256 6.620435120838081 4.417506010270214 2.620491481911035 -0.2566002092613903 0.4420471954167226
Ni 6.332417735941319 6.771169035897909 11.530324691882354 -0.3236934033654619 -0.15984059844113763 -0.7550754057588545
Ni 8.913078330506947 5.6795709194617015 2.9708504145002075 -0.3478527742204848 -1.078794263045613 0.31382525232213054
Ni 6.977798258447348 6.423828888461622 1.8461125130881817 0.35734940085701034 -1.7366092070883963 0.2995358322826519
Ni 2.9770781929598136 8.265696915323131 6.162802248913299 -0.04085354368125222 0.3107314438881552 0.642560588986874
Ni 5.08650077173092 8.022616245148297 2.611579018133423 -1.7216957803116735 0.9948870827079961 0.8038559175966672
Ni 4.582970571331032 5.076496308341994 10.159200015681135 -1.1832134472936526 1.4806576871545982 1.7438998272125388
Ni 6.44238346269127 1.068309948880872 3.046259057294241 -1.7078110519097813 0.38410121502955785 1.774634023071602
Ni 7.732116271188356 0.38237336974238023 5.504768859237886 -1.3379108109709537 -0.5238879801436138 -2.3608411729694114
Ni 3.161132529139982 0.5685619914455192 11.331078392778261 -0.31344421483362794 -1.0628331117306664 0.2417052944274289
Ni 0.12470748882137463 8.234840556481915 9.500028155125632 -0.45785202365946315 0.44295762304613395 0.6594298539383869
Ni 7.550294412486643 4.463769242730378 6.961675324624731 -0.09848507815179168 -1.0845627900982742 -0.088524367394654
Ni 8.325103048390895 2.0143523864002244 11.138135831948395 0.6992523852519635 0.020595564763164532 -0.005864429200576997
Ni 6.637470498775338 7.955938349339506 9.138587272346173 -0.5957821951807546 -1.8742082205225141 0.07080946661339418
Ni 0.555269950226287 3.3988404319392815 2.3259404723091386 -0.8391023995037872 -0.10252042456342988 1.240901288923424
Ni 5.728490892755147 5.137866280519437 13.324376015440809 1.3044995825003598 0.745926906490367 -1.3286000750929892
Ni 0.695552906401496 0.39851297767064575 5.876282754507267 2.1502287432920455 0.33897346945298396 -2.917745717248362
Ni 5.4038553191765075 7.410787728563279 0.5361947733647338 1.926557680658508 -1.199627884095934 -1.611153770995348
Ni 5.2480913822461375 8.81015278169735 5.115602644122265 -0.24475102323228817 0.8780584690520103 0.2969585584737789
Ni 5.6174969294902235 9.000737809256401 12.243931949344054 0.6606770960819266 -1.695931783973692 -2.016780004580875
P 2.675536255703947 5.8556124215387015 0.8889484471014727 -0.9718566832510941 0.004533626204295418 -1.2060654121911616
Ni 3.2315898888956998 5.921651143297643 6.123932129629712 -0.27551118723328033 0.14944202881563293 -1.442039203451452
P 8.39969188099056 2.7117653819206984 8.481015199593696 -0.059067495586117624 -0.4110656594335437 -0.4765187468310309
Ni 2.674313487956411 1.8209142340969242 6.392460264041324 -0.8166695244215677 -2.1357346634409287 -1.0417752626191026
P 3.5992446550467228 7.05858430031293 4.01480875842107 0.15495935908943637 -1.8676984444284543 1.4776083588053133
P 5.287896177785227 3.9695672781014606 8.599443961299315 -0.4965229578670997 -1.282424090757559 -1.3358446724705446
P 8.38546331083742 5.336269610949093 13.520450529114934 0.6412267006667989 0.22282851212758398 0.5164664908685622
Ni 5.045686266460911 4.404622484639363 6.41916940227215 0.9597668419660955 -0.5663906293925149 -0.7936612364518524
Ni 1.1020842762105258 4.272091134912166 7.201473975004476 -0.9176974235998712 0.28854642315068374 -0.1981009274739169
Ni 6.39756717206569 3.0920646781882817 10.411471823424945 -1.527855942106956 -0.5857222398415913 -1.1446340443585576
Ni 4.407799828104549 1.6450765266445135 4.589284499336488 -0.5271795064106921 1.0471563244253577 -0.42636115214003345
Ni 3.3632319529883246 3.077706420546767 2.3039630747255937 -2.414779060638448 -0.7317979232881525 0.8460271516480784
Ni 4.631890544624478 5.373990143282157 1.5932172790609695 -1.4563857019811113 1.5981607011697896 1.2018716858247882
Ni 1.8908343171150885 8.05641836265403 13.421002457672191 -0.36737978850981895 -0.112529986280632 -0.6372576887167218
Ni 7.713793281759377 7.415206366560054 13.454897209098192 0.5051196983971752 0.26190362375217474 -1.9180074770956517
Ni 3.444675695687808 8.012287563038432 8.511493612040217 -1.5087426183162724 1.2158345757627835 -1.9090623520872219
Ni 1.7086326593402774 2.1105063956382404 12.356029182599368 -0.984627095542885 0.9787099587275014 -0.764757923153941
Ni 2.9604133507036297 9.054910125829032 4.068498452269106 -0.46189148383615936 1.5740193280368957 -0.5617528735101874
Ni 6.860495925212184 5.220884799863474 9.242238144751466 0.8772071767953085 1.0542908785876102 0.48718162586151575
Ni 7.056314769266368 1.6225109036672682 7.103328336480701 1.1242035444183478 0.7755722401606255 2.1209425927334187
Ni 4.785727696013276 4.393747262399919 3.6738140345231303 1.2410696961804886 -0.1788446503474662 1.1073232237232413
Ni 0.8551092760276314 1.7659637925940426 9.564183629285527 -0.8544038057475479 0.042728906327094154 0.19436460035993625
Ni 2.030211313550078 0.7871817486344282 1.9908168862777744 -0.6496414070930554 0.19864625845442563 -0.47345244920088136
Ni 8.844594073252933 1.6451228436046474 3.5868131829467793 -1.1433400081374825 1.2490504003931198 0.10997919483432027
Ni 8.799045974657236 8.889280676390138 7.541872136455891 -3.114795063529313 1.3079762281950507 -0.1885014567109399
Ni 5.973841093976543 6.866980299630934 6.164795730877462 0.5229076185082157 -0.507034913142017 0.03645978548893076
Ni 1.7701693725742025 3.758065511345932 0.5763626938712738 1.345811039654637 1.2136550516129616 -1.2238613027220018
Ni 7.403339961373744 8.730941516476323 1.8331789651403858 -0.2172412478477936 0.6085559499066552 0.03641144874949858
Ni 7.498039618063555 2.2886414243132935 1.4296137334583325 1.6282320666338732 0.2409645596066624 -0.04374654895833111
Ni 2.402386615010172 7.619575321454959 2.3035434430667805 0.1692930021032891 -0.8999382998442373 -1.2560885381868236
Ni 5.0249640584969955 0.758489318170668 9.954922768367295 0.346757484273777 -0.07907402061503156 -0.7138271977423448
Ni 7.967851071485951 0.999316205065386 13.148990361519305 -0.34488186451761893 -2.626923096468992 -0.6777026841056458
P 4.22199471083132 1.0506261335017417 2.357924185960015 0.5770306256048644 -0.2773608388475094 0.01858701897356799
Ni 6.391953556497459 2.657176212706861 5.3026481295878805 0.3958118185982667 1.0554301343983759 -2.1004951235123444
P 5.8554734706583 8.82570601691032 7.2746732988001215 0.14879102549519538 0.27222788849631824 0.17958204273412298
Ni 4.2594095512275 7.89584672526176 10.40511343113776 1.7185585202342726 -1.3050683105196363 1.8317623926534776
P 0.6747834551382439 0.7731931003347821 0.23539761282781996 1.2250632934499033 -0.3971403076017031 -0.27177048924392555
P 1.5978147005238625 0.061960050249549 7.774864972713558 1.13923986992618 -0.4127453611288117 0.3942146493144759
P 0.11706889575608868 8.965731450787185 3.586053584800583 0.3781406265707487 -2.1404395251157653 -0.6514789745224264
Ni 5.783672919058698 1.0598154183923112 0.3527860956088327 -0.12904521032683583 0.6136577899095949 2.87249430160973
