# total energy = -340872.6904576407 ev
CRYSTAL
PRIMVEC
9.22486265206354 0.00000000000000 0.00000000000000
0.00000000000000 9.22486265206354 0.00000000000000
0.00000000000000 0.00000000000000 13.50151895470209
PRIMCOORD
 96 1
Ni 0.7907026432903469 3.488427929452392 1.1184149658855878 -0.22042967287810425 -0.9806912508235885 -1.4413113241464919
Ni -0.029831360786616985 1.274811442014027 1.3421769238868544 1.1868456447296012 -0.08584913455533602 1.5486875341403263
Ni 1.5943606836642255 1.9691391779056409 3.723178543823569 0.14140218923029194 -0.005512702288113087 0.13676777578207414
Ni 1.383415749806977 7.710278562640322 4.163612230405423 -0.039520683802441614 -0.9280785097238791 -0.7631478983543438
Ni 0.29729518303134933 7.609727559927066 6.305182540670345 -1.044045546710518 1.4243273879939857 -0.10557952310472783
Ni 7.688018969103892 2.187196480853891 6.362091640747257 -0.9874954182296154 0.747980446585286 -0.36343931580483213
Ni 2.4721986119388473 8.875323364169484 7.171398986998347 0.674418099817103 -1.0876591696354108 -0.6243715767826731
Ni 4.585411694466105 7.292300036682744 7.95120614503139 -0.4393171980800692 0.4112116980931047 0.22323808886117683
Ni 4.164785632932499 5.60010045991973 2.110058179506346 0.8617034247327546 1.086480318835961 -1.3453387280039089
Ni 5.612830770354987 4.276332671905773 0.7584396087133433 -0.13980244884333987 -0.8598303760797579 -0.06039058527291536
Ni 6.9682398372044005 6.112117235570787 0.757364912216454 0.0193398379791925 1.219216861971455 -0.2580467118999298
Ni 3.4593234878413535 7.112359866139188 5.177184787480305 0.28361633283891796 1.7804274898249273 2.3817609538412143
Ni 6.7330242897564565 5.828378910666723 3.23279038110476 -0.4222247613741567 -1.0352608585393526 -0.4760225239209028
Ni 2.6957447081544728 7.59541057311872 12.356995004228555 0.1646537035590648 1.9906411414019782 0.6125812690159643
Ni 9.132484859824293 5.737384865642543 7.758593780687172 -0.28295890176057725 -0.03624535548527951 0.4826024911312656
Ni 8.468755993290465 6.394038262535907 10.26957925005796 -1.211842938104887 -0.7201909351768436 -1.088445670092448
Ni 4.042177983660767 2.092069697369571 4.477941122290903 0.8744864354300358 0.731664740144398 0.134404160645904
Ni 0.9462402847075382 4.238326237852689 3.5185637107059384 -1.435202897255909 0.13378092523960833 -0.29092392224392477
Ni 6.8137233880808195 2.076857898885703 0.6497688819094268 1.7429140662605018 -0.16058390436506537 0.9460245526793385
Ni 2.554890280592207 5.510932937697132 9.243018086394065 0.49380195939151084 0.37726645149591154 -1.3677908863598378
Ni 7.938104995118237 3.440597016693839 2.4026763571821337 -0.7908404791736058 -0.5404613111212628 1.0857377842429818
Ni 5.290098951095974 3.9569033534698193 10.613638951727346 -3.4557770787718933 0.5167120312204649 -1.0958648453746545
Ni 5.845906149671786 7.600050679023744 5.895141086523271 -1.3157121633867277 0.11038337225127443 1.2217571118948056
Ni 2.300376320513426 0.9241282889732563 0.13862108831851527 0.7077843339823746 -0.030287852350263968 0.616559536937422
P 7.772730882674152 1.6519146016392716 10.644988724903559 0.26803776167437066 -0.09903375156641007 -0.5803722883835877
P 4.1991759208329595 4.28545606105104 12.558599764668633 0.4474601389021778 -0.8589775411611593 0.5989518511579878
P 7.928059119709546 9.302628226250281 0.30280703845530993 -1.8691989402333808 -1.7755315951852069 1.1223019565202605
P 4.389752357993798 9.108463317524723 13.088034925945669 -1.0745627414627685 0.17984918035258057 -0.01794887116893683
P 7.839666485948222 4.056854740111849 0.14390416714914658 0.5390932271291424 0.30849381280688803 -0.19615923036651378
P 2.100473547229367 6.574043007117902 7.414075603344867 0.660347994877282 1.4947064519381805 0.11228007505335502
P 5.06555656971585 5.593836778191079 5.408641203404795 0.5746006760071329 -0.8576940464630454 -0.45337444750408373
P 4.1215671514910674 3.183214124335808 8.736158008955549 0.22658206563274527 2.139769238521618 -0.9452056563224689
Ni 6.7216869335789715 8.036598853464055 3.974671361389636 2.1926696860650754 0.9032827908364379 -0.8830896037180146
Ni 0.4761246801137422 7.952412757063948 8.884296388053814 0.28843972236949034 0.8507536105894704 -0.550875050255419
Ni 9.007340373328145 0.25333502263412483 4.217145030758203 -1.201051503916338 0.09355113118528405 -0.3512666849980402
Ni 6.3337168857705874 3.6949080297946666 4.530691654292299 -0.6251426506207428 -0.374290142476407 -0.47903637104656205
Ni 9.22910607105536 0.8910110321163216 12.301422586747346 -1.0336132956336006 -1.3505691231649126 -0.6910968460243646
Ni 7.577136120240283 5.412946446796196 5.5482465845663835 -0.8288951199534822 1.1049022729865745 0.8306452698753695
Ni 5.867925896779725 1.8523062926429454 9.391589111549873 0.19176007285755362 0.10088288896000691 -0.35467776756211816
Ni 7.1783176339740296 7.521823843885359 7.762697922073147 1.1102085156908366 -0.07041737338129808 0.4809423298200233
Ni 2.962167965894062 8.072133024331162 9.482778723661898 -0.5957996786822514 -0.7828183802000777 1.2559571548152821
Ni 4.5933174017436516 6.796546693855857 13.298496477000883 0.9801168663773571 -0.46892447942354076 1.6125948743172487
Ni 6.400800086846807 1.2537695303453174 4.451274811874096 0.31925773619161146 -0.41077178234220874 -0.2735134400769612
Ni 4.606877949815989 8.717089295404303 3.7017787074846513 -0.855517864747333 -0.6211669538024462 0.30596770395092465
Ni 3.549441170915279 4.568843841175004 6.7644229547046315 -0.021221628382937643 0.9376761807146431 -0.09146313830800376
Ni 4.629617236209399 2.1273086726323815 0.24312771212933426 -1.7790655764803942 -0.3765123469387064 -0.40344593810475676
Ni 2.1263031626052493 0.5567259948941823 11.133730249642156 0.5108452880270428 -0.9417014998239523 0.08903935935785956
Ni 2.8506117020581545 2.1273732466708215 6.434796473112786 0.21156039541293242 -0.9508003768014269 0.9805932917931435
Ni 3.2565148828275077 7.988149874909007 1.8617783815957867 -1.0270772942872957 -0.3293212910752006 -0.6149829364789214
Ni 1.8515129544564004 3.5905287090882 8.09067684319852 -0.755126570711764 -1.2191602977019067 0.6409271671485092
Ni 0.7016033850512416 1.0952956151516464 6.252742886539725 -0.7920753800219714 0.35564373101981334 0.8581545310392317
Ni 9.081093150088922 4.04044370948553 11.502119604023095 0.06336252341704572 0.18431235833025678 0.9872743033577448
Ni 5.6920077663447 5.234030236005041 7.709542418602109 0.10564380068375999 -0.3304942283373792 0.15875790689992014
Ni 7.716422321154728 7.553557371347158 12.434831627677513 1.877687437320366 1.4917509688542827 0.9067746060397803
Ni 3.4346654300200203 1.2238348510971968 8.94641661303281 -0.5502322744650975 0.003220306709510583 0.07154480211752194
Ni 0.13571894653378225 3.856057155152268 6.219380248336718 -0.9895034497985797 -3.062790131216932 -0.2278696740959172
P 7.5842761639191885 9.284824241366191 6.3598905885227275 0.026367948470567493 -1.4351589313918511 0.2605447957314352
P 1.3557503867668803 2.463462667024219 12.420748952380078 1.57393602429447 1.8660773638852635 0.23595322243500008
P 8.523505553024702 6.639687129623179 4.188198334298209 1.9073409985207408 1.4265606481998785 -1.236146290736942
P 2.1515700613604425 3.736770456428864 5.211343531328646 1.6892132343029358 -1.7846713527029456 -0.3843359567481832
P 1.3314151991377459 1.053774508434916 8.453220402128135 -1.210051136311787 -0.2455588638455642 -0.5773733536562637
P 4.20715542701158 0.09457052426747521 5.599012848615153 -0.9842666268796725 0.7601625904737748 1.9493068014295654
P 0.49499505911835096 4.646895403923338 9.517017723815158 0.466217622015339 -0.524907936767696 0.8900259258265317
P 1.5100638889125075 0.11705797191097085 2.7095524825454085 0.39641885605464633 -0.8048928435016138 -1.6233377146560495
Ni 2.962278664245673 3.4452002231483263 10.750813581584811 -0.6383252107492877 -0.3635359892836965 0.2670859392840626
Ni 2.1159528667296277 4.701322093465375 13.035257641842636 0.6903111168982757 0.017173940676125262 -0.4043075147741037
Ni 6.59266800477644 2.9065604939348417 11.932318305512252 1.3356623812564092 -1.5302100441614293 1.59885335636144
Ni 3.7746016180918973 1.1680152072973888 2.4793377331314885 -1.3056846039473966 0.8930233178919588 -2.0034691464045817
Ni 9.043455710541208 5.4390804826390085 1.711654812058633 -0.3159225011707914 1.7588880730912548 1.4420536016291552
Ni 7.216683837669849 8.534621512498966 10.008284093456746 0.5022724587563672 1.3190440559734378 -0.6674110723716506
Ni 7.1862786904273825 3.914856429582937 9.552608166344333 2.6773208321952535 0.3433116918170217 -1.2363375808121417
Ni 2.8434901081045187 3.6097717725432323 2.1133929673486254 1.0958905564062675 -0.6161399329015002 -0.003969269060393164
Ni 8.073516753726299 1.3013236972248432 8.48434139871102 1.0785577215547748 -0.5530152365268735 0.4343745093628132
Ni 4.555698411921206 1.4138946959505179 11.312504397548741 -1.916374569477919 0.40118105332998 0.04772558821073716
Ni 1.2948755182435068 5.539659159940166 5.689458936798858 0.8347484934104655 3.6618556251346486 -0.47509255590746563
Ni 3.835679433593224 5.815731623995175 11.114477038838224 0.7286506359084226 0.9430356452543437 0.48989131148319504
Ni 2.9420946648019486 5.472935728506682 3.898172343022644 -0.6678311906282046 -1.506118293319548 -0.12002140956167072
Ni 1.4440507719018603 6.307112381933429 11.15560332143421 -0.34204362373787545 -1.2425506516013891 -0.9594634517930637
Ni 0.8427834502644961 2.281142481921028 10.252216213607788 -1.2793367100814872 0.34075318706122604 -1.3306713557997214
Ni 5.264426158384874 2.837945965661338 6.621981850769276 0.3583156214250216 0.26208694340757444 0.7064396470290222
Ni 5.902915800751411 0.24029475681435808 1.967292360406265 1.3654331847609387 0.713871420716719 -1.0880353220279069
Ni 8.353002416955976 7.875634225359139 2.2594926518047216 0.23048397179031277 0.307282051886974 -0.7736829935577128
Ni 5.374202023732374 0.529837365287889 7.420732264221737 0.5362704129683667 -0.9592585348711091 -0.5272635814840662
Ni 0.11481909774963993 6.045569076527355 13.016962894266403 -0.519055591751977 -0.18180399008610626 -0.13804304295007194
Ni 5.835620427834604 7.34711417045542 11.396443267630252 -2.6242568624907388 0.2914255444706917 -0.815536439258389
Ni 6.332508428765502 0.44685788092034096 12.272893776564684 1.510033054992922 -0.6461789024657516 0.45702130022805165
Ni 7.005517507109379 5.209362953321074 11.769909063918814 -0.3213187324856982 1.1161891587543036 1.2900389269903396
Ni 0.9738871980223662 8.079180819383723 0.5906199851849202 -0.31322875638871217 -0.1860825628568021 0.7475852680293964
P 5.503442349238126 7.385849368656608 2.071403237610075 0.07299747540364847 -1.4578419748116636 -0.3962933862203756
P 6.0292318448021085 5.91750030857615 9.834479379051228 -0.04043651074849165 0.2631408385933855 -0.8211512143420052
P 4.91975761578163 9.045189984716446 9.712844030301143 0.8997853192061407 -1.0645143560878312 0.18541818979992586
P 8.686222905030125 2.4735638916087157 4.435087022923525 -0.19348862551288615 0.48357668211907684 -0.8353061656861486
P 5.53260214002497 2.8214980355844816 2.554325718998992 -0.5904612971884734 -0.6191661213223337 0.09847093708440462
P 1.9292324221499026 5.899299654598788 1.4710851543377745 0.65807616812397 0.07457664696531027 -0.14968448384374222
P 0.2669942767366493 8.112445674042807 11.086502642899882 0.6367115864052647 0.867846304405699 0.2235191104367054
P 7.499112232079852 4.231739685931839 7.295154209181779 0.055681866943336364 -1.716717867481108 1.2348491691920733
