# total energy = -340895.3568825655 ev
CRYSTAL
PRIMVEC
9.04705173981194 0.00000000000000 0.00000000000000

0.00000000000000 9.04705173981194 0.00000000000000

0.00000000000000 0.00000000000000 13.24127471122544

PRIMCOORD
 96 1
Ni 6.604637234795688 1.8563645349898734 11.200952940405635 -0.7987404507469728 0.19685574221290614 0.6673370246006056
Ni 4.5990777704889965 0.4392334545411806 5.946312234334159 -0.8206981859649867 -0.41715300327820415 0.4049698309484509
Ni 2.7059007821979204 1.774841552267549 4.801616830648745 -0.18218348491271202 -0.4516430666352738 0.34308954850388657
Ni 3.450979770665321 4.433616242244785 5.058683376011658 -0.545524327466467 -0.4259366630081051 -0.8711717692345061
Ni 4.906559916064808 4.767343884755173 2.547568330680508 0.20214912940136154 -0.6258335060401802 0.34441752328669073
Ni 7.15427276573891 6.31159418370715 2.7530332073547834 0.29862463332229217 -0.8851410869304046 -0.36020821046204415
Ni 5.30675624729575 4.643933052737058 11.742335750802933 -0.229524693200837 -0.28520656014417334 -1.690910419499701
Ni 5.4397569540986455 7.743389630230044 12.278025251575645 0.7583414781046359 0.07744059877666663 0.8396184199082571
Ni 1.8737801094811035 6.544546717512182 0.3502158942040328 -0.7002656570078262 -0.19829967374828428 -0.3644441029202627
Ni 2.9432682772246235 1.7061382417811066 0.24681623580521825 -0.17380940191640387 -0.10166399010040555 0.7621731931459003
Ni 0.7239296957462849 -0.07480283273163055 4.434397002805093 -0.1604854311139881 0.05517407406898239 0.8214836579807595
Ni 8.499931233180764 2.1815155725040607 1.320494997888654 0.5009686523432793 0.7150533568399621 0.42677484263868437
Ni 6.81697153781344 0.776556395390693 4.669575111324327 -0.09226172294989918 -0.053766652198494504 1.6351974422081128
Ni 0.7578489019190224 7.458154184744588 2.3451088845755765 -0.3952849995605192 -0.502720087816747 0.9395191474606529
Ni 7.270020744980884 3.80243963447587 3.827893514388118 1.2324066211888518 0.620718553411118 0.049789669828617475
Ni 7.658175450420747 3.834954738227289 12.688411277118004 -0.032402584700421615 0.29505439947253054 -0.4000433401811111
Ni 8.34990397510904 9.027835745979603 6.7846572786094 -1.4941804042313815 -0.5000440836464807 -0.8591444057563268
Ni 6.88648908295142 0.6304935553667906 0.35664201501500464 0.5457832375548085 -0.5709383966641973 -0.4828297766507233
Ni 1.9883700661075558 6.309811914525451 9.313329937143216 -0.4576512205025667 -0.06826047493929534 -0.3103144109553946
Ni 0.04393067356598191 5.018001498705313 1.4257673959860062 -1.0809190226980996 -0.9361157782060588 -0.039812761121563685
Ni 6.3930809782227405 1.9054809785809843 6.930946294925396 0.6658159599703888 0.24934121370613183 -0.35009400484617775
Ni 3.4164652684917924 4.263323588401447 0.5000712582937655 -0.04934846852614082 0.010694760709684807 0.14847066604129913
Ni 5.917739835706521 5.731433900382936 4.821995314566405 0.3503457158456676 -0.37690546861206703 -0.024012560864513484
Ni 5.543409025239438 2.8306415308135464 9.04721995891722 -0.17433364985099006 0.5254365555776563 0.6913652691944029
P 0.17421545545341388 5.634114765420774 12.537898192370863 -0.1029693391753904 -0.954557272740698 -0.7602158123092133
P 3.8395958757410558 6.058448630543977 12.60802369938199 0.7669639296663243 0.899298095157077 0.1579616362508699
P 2.5039253533580696 8.509837754774477 1.576996102521333 -0.23016798321179066 0.2560818748640751 -1.8363422987146758
P 6.257293779501248 7.984466416447087 5.94048593304982 1.045049305384684 -0.7980112858904321 -0.05591275200721984
P 4.951143786762358 1.0673530635461537 12.585076757491311 -0.5849827905724054 -1.0057373951589388 -0.790612936543832
P 3.9658746231429207 6.115236973962912 8.246109865256813 -0.48529880701650613 -0.5964121154552696 0.10181594229723755
P 4.590419742027642 1.149138410767307 3.8146522495437725 0.7064406754702867 -1.2670877175108048 -1.4968659214833446
P 0.0711351579790359 5.627419947174795 3.6083134276768463 0.49297972060053163 0.44058423771795086 0.8798975791432783
Ni 1.5460054269786272 1.1832277015116994 2.446299252953218 -0.49748789288353035 0.6987037118373451 0.28973812946593974
Ni 1.8731468158632407 6.46107861867785 4.9533621238352135 0.16513707095338656 0.5688905129962332 -1.1533554833919555
Ni 5.998493819035726 5.449256358366589 9.012620414457864 -0.07103238125747767 0.0008602911177662603 1.4788322039100852
Ni 8.784886220064024 2.162272493572712 10.27305746444907 0.5625548005861924 0.6432164774033181 -0.8768935022096318
Ni 2.3619680653882553 5.271816533693085 7.054289274055882 -0.36560495599758325 -0.26538386899129135 -0.029696241512852082
Ni 0.7539315285399563 9.129108442527567 9.019704255926245 -1.0260493672434137 -0.7876571963496176 0.5546872249126577
Ni 1.5643980830517028 0.9125399151337227 11.542657368385589 0.16207925796366926 1.0593598084700853 -0.5802689300365038
Ni 3.9931243428143937 6.842846105628981 1.4684441481886197 0.8028971532278236 0.37999490617066817 0.6225946873879084
Ni 5.463396900148299 7.627080733783678 8.054269848418274 0.2606982905901639 1.6288267627950785 0.15931609339623531
Ni 5.169611990821695 2.8399780881511827 4.87788709516348 0.4051865749449473 0.7048288508984765 0.27416547183866335
Ni 0.7721622423878927 7.2642758671616985 6.995868842513197 0.1889830243330487 -0.06454265976807594 0.6075007691692634
Ni 4.957241499597209 4.5730041675364115 6.931449310999013 0.5629517789142949 0.3284841398858859 0.2905719382211447
Ni 7.920440431681147 7.33531331698255 8.8395964557112 1.0940990117234834 -0.48174939910235104 0.3320317480278282
Ni 4.5952327735234 0.1697199754717556 10.45887214486623 0.015901758831921 0.46698972429467317 -0.05344860673744343
Ni 8.115178219173993 7.269152228019243 4.923423620403328 -0.05244690494580645 -0.08463685941478973 -0.2540640731030979
Ni 7.14220399879278 6.08213381185205 6.955708075383836 0.04677119471726784 -0.1041204220606981 -0.3276996963113776
Ni 2.1291874255652163 5.4349167814478365 2.490961833000416 1.058021806384952 -0.6968723150555611 1.5421535896765506
Ni 2.2485904136874266 5.102265738087816 11.542776789467814 -0.5023081970903092 -0.2568411216276028 -0.3361491126303114
Ni 0.8695229937878002 3.1768360105441498 3.776027671790313 0.36937830699708646 1.5805311610134845 -0.25411395250442687
Ni 3.5600148375579472 2.599760771844096 2.5548512072859313 0.5882360074023805 0.7058063843203973 -0.08074395211828675
Ni 1.4366989485354884 3.5649997630356967 8.487431826574486 -1.4852471062974937 -1.1167943964384701 -0.4199051121020445
Ni 3.595633080036894 2.7636662071987015 7.280330765079691 -0.6652019805354737 -0.7197178521951669 -0.5772612535584316
Ni 4.173522553388486 6.957481297513852 6.0660400116118165 -0.5948393716515111 0.4529201335754845 0.09965313031796386
Ni 0.6428626844288218 7.266248124428758 11.160223113725365 0.6205699436483957 -0.2994972657352326 0.39061099112361763
P 0.1804859669754251 5.468951789882126 8.295076127789974 -0.1092034930105603 0.9366503105532902 -1.0142076374134792
P 8.639662946436372 1.7047269017184408 7.947757099535079 -0.33530681923467415 0.7350943346512372 1.1206304823551088
P 1.929500900801356 3.117224986999882 10.628175051255363 -0.31364656065242114 -0.5157116149804086 -0.2682192815575574
P 3.9695929613849446 6.213515096403553 3.950905371426978 -0.836110920975631 0.44619155660239923 -1.3469292124194803
P 6.956214710278127 3.935141788573202 10.420803960791321 -0.12713848022242621 -0.13676803289239028 -0.23921363835382672
P 6.243958425319392 7.786435502141354 10.139757300235445 0.5979357511886476 -0.5552343556653793 0.9342674121434104
P 2.4013136931609105 8.552766015013898 5.8633688644974855 -0.35455075506595063 -0.4351869779617795 0.2988400917672079
P 6.90055724831966 4.0319542886410735 1.654126741651194 -0.23684590945259856 -0.455206615616816 -0.39381432855226367
Ni 5.415574184947967 2.9352978246912347 0.2016316408758678 0.5978773871468864 0.1998788453099461 1.3760837224962494
Ni 1.5168105911951468 1.1524586787352455 7.0241653060644795 0.5623835651156508 1.0603147161841868 -0.6276654170425965
Ni 7.012677359836447 0.5624570125894411 8.986125218896815 -0.8878908817614 0.49831681654272886 0.010759038288716955
Ni 2.885548087482261 1.4345005149763357 9.332052810602748 -0.22760742157346606 1.3115364347424832 0.23606789363599345
Ni 6.467076813944179 1.9323326279783717 2.6109673547647643 -1.1934384674557705 0.013591622641505624 -0.9014259401333573
Ni 4.090651559965282 6.70366626252608 10.475648997508587 0.478252441692686 0.277501992411064 -0.14536400209151737
Ni 8.05459011404788 7.172140692814328 0.34761939037079487 0.23297125698854074 0.5954608072855939 -0.1464919450483735
Ni 7.6993576296852035 3.8033443396442457 8.044193242252907 0.7321133976460423 -0.1646465044702132 0.5443004823616948
Ni 3.015129008748697 8.418046368391089 12.62574054069429 1.0318957987218615 -0.1948644228144902 -0.376993400340183
Ni 9.061074613865722 4.625866090524597 10.351035812321701 0.5620848029283094 0.028664200703911926 0.254042218726227
Ni 8.581689439246865 2.5564796765890074 5.89390356863533 0.2934551733062107 -0.1796630324837035 -0.6620510936113178
Ni 3.9101809729777193 2.7074387809841585 11.478093084044465 -0.1320423452819468 -0.21945779588313816 -0.7778772341447184
Ni 0.9658813318611476 3.2109886306503284 12.848962065708273 0.7470376230560425 0.5323649072663735 -1.2879051684767884
Ni 2.9508044712771926 8.421683283167958 8.18792737117341 1.1173875499377788 -0.8341982773339504 -1.2870533619994544
Ni 5.496934320739983 8.022500221725597 3.7484594958995725 -0.5391819301882069 -0.2065140912382766 -0.5216392933187532
Ni 2.982387728705184 8.473459559954094 3.6360933045769874 1.0994376503275776 -0.39209066099293766 0.7962950745302738
Ni 3.5387361719977535 4.181194453216311 9.36851966652963 0.7599317054098912 0.5635151076169327 0.3905343722494113
Ni 7.419215674297702 6.154673072252405 11.22362213780962 -0.959847831715676 0.2880136905756653 0.2447854760146494
Ni 0.5587359602319123 9.002133072146053 0.518655711862537 0.1407758685002027 0.26089652264389906 -0.7589508295538606
Ni 4.730775701849431 0.30856507766235736 1.4356585375918565 -0.8395518283363799 -0.2707633881356498 0.8782353609495068
Ni 6.078867826194214 5.628740816720623 0.407190606887654 -0.25352619832175693 0.49423210495039405 0.7438777372708222
Ni 8.114363984522454 8.89402080452517 11.044004687795836 -0.6621840196447564 -0.18895397086732618 0.3510985348512921
Ni 0.04140473673587726 5.075377900483693 5.888752177406599 0.05043990181810668 -0.9223220668560761 -0.23414265158882258
Ni 7.893027865079366 8.748245660744812 2.7490470763829205 -0.5338301789579903 0.19705525981822192 -1.136798607474539
P 8.51155669459439 1.5996725375666672 3.671646408283811 -0.13745760276024716 -0.07925296939505706 -0.49633603866727416
P 1.7114036258610525 3.431383856718306 1.6136212818526823 0.17131903139438234 -0.9737248468080844 0.45543647223943495
P 4.810235956787859 1.0291925995440714 8.12047617264 -0.7612560806482696 -0.7060781499245453 0.8496943160870204
P 8.728839734883154 1.4767411992877921 12.375242154853781 -1.8708650150818942 -0.08788390559717768 1.3029175827252206
P 6.164036770745092 7.654538535643876 1.3144217120933488 0.36999100088042086 0.721433549334693 0.6582977972164726
P 1.677178629341404 3.3424875268737204 5.966545060719711 0.5533600214608019 0.16433257277422023 0.6478280080334003
P 6.818410019031156 3.941402348338361 5.976171123711227 0.04077898168957493 0.8806419135084704 0.19092626410234861
P 2.370074223696901 8.360027625943163 10.32641968939537 0.7539690600685531 -0.34906350669913433 0.11895877262511124
