# total energy = -381167.7256037806 ev
CRYSTAL
PRIMVEC
9.22122387405500 0.00000000000000 0.00000000000000

0.00000000000000 9.22122387405500 0.00000000000000

0.00000000000000 0.00000000000000 13.49619323527002

PRIMCOORD
 96 1
Ni 5.3680802311014135 4.964467256106724 10.707772001960226 0.1486015351922086 0.8293265510639459 0.23179420596130404
Ni 3.4898644394903 1.3930134265603806 8.442327506178517 -1.327173884169424 0.05371111637021072 0.9595956064955538
Ni 5.18698461273448 3.25725906379368 3.868387386071395 -0.30583246392464103 0.021952850122007355 0.16126524670280615
Ni 7.441924290121994 0.9967128822070154 12.856378978900945 -1.8606716194886601 0.5633929802167716 1.681301435655027
Ni 0.24186625097162956 4.483792512045764 0.055865863552840546 -1.284207407910227 1.9934639555627538 1.4888011421973393
Ni 3.10653815732148 2.10147084615981 2.5843725158196102 0.31489585967848993 0.1393944147716438 -0.33663813645158797
Ni 2.63158057214781 1.4947511910821172 11.247242192442563 0.5825937215149386 -0.10234276133498502 2.2281498812495566
Ni 7.970586283940148 8.05525556281612 5.0525834285182905 -2.344085293667311 0.5116338453666092 1.9468498552486406
Ni 6.041054380703595 7.153060226729633 9.342402882864699 0.00925597138062922 0.5658321857858835 0.5106709672327077
Ni 5.3173266141406925 1.6075636456419764 1.9462859451435177 -1.0549639933952348 2.3429797193079582 -1.758994516762132
Ni 5.183102477425529 2.7452229368687275 13.242181159716925 -1.3761739682172107 -1.5245857559961162 -1.0845869584679901
Ni 8.642361674420801 3.8680544998845705 7.26670166932815 0.4106488836110992 -0.9002923407495462 0.8679152099704214
Ni 3.597734317979856 7.045798949024853 9.195051411646395 1.276781033539169 2.030292180134697 1.530175591379068
Ni 6.410705587662978 5.6561789329008 4.309024497595699 -1.8051576455817557 -1.4238908146771994 0.2719746348349316
Ni 2.827162733437218 3.277527314171526 4.63205596231883 0.1678462423544335 0.9405501598283286 0.45292141912706513
Ni 7.616233087616274 3.463196659648293 9.493425323362084 1.0056142393175131 -0.9966164066942771 -0.2804739305551944
Ni 6.2479048777353725 2.133099644520144 10.941782692196238 -0.027100969981850097 0.08339527369820475 0.20472151811422806
Ni 1.5204599636269014 2.709702781975432 9.928069561401143 -2.2822461488733277 1.8436370326038765 -1.7894332928679633
Ni 5.422559222562886 7.804290730112086 5.110131243330875 0.8433403488445346 0.48129045718806146 -2.4619983986367275
Ni 2.1826452811353247 2.8267569995807005 -0.09244369284028485 0.9642385045842038 -0.3416170777234181 -0.36349125208869015
Ni 0.6896286022898193 7.577651486351074 3.904664603456056 1.5467278393107942 -0.2538136476551887 -0.2134133894612712
Ni 1.8108178653091678 8.926190949502741 7.3901102323999215 0.7187973972634266 -0.2436603612712707 0.5365552911986372
Ni 4.110867770562208 6.881771816303684 1.1279170680583277 1.8267204593541961 -0.6293752006448515 -2.069709505590055
Ni 1.0019044313256356 2.1047628231320084 3.868238924364806 1.2056218968958397 -1.054554673771958 -2.488324952346398
P -0.02423153245810022 1.8594782644192198 8.157719959789983 1.5337147148805779 0.7630771930174084 1.0085401547150568
Ni 6.644832465321537 3.451743899425688 6.147044051617154 -1.1675731696532343 -0.08602294112903895 -0.7121359260828509
P 3.7204595883523566 3.289680887419024 7.020854615950643 -0.4579067881567985 -1.7402622304599515 1.2136355112289356
Ni 6.39153466294253 4.874689419128239 1.7068227451493523 0.7711941656975879 1.5524624278017263 0.9999359579858134
P 3.5047198313732433 3.9814847764532173 12.070576698658085 0.1916135199773603 -1.4350074934156511 2.545022662148759
P 1.8929697500299283 5.347627556243333 4.201540066269834 -0.5086457092725627 -0.40513540999203773 -2.0701648479599184
P 5.010499606373425 9.047136523640972 8.765224341031077 0.031927444836215985 -0.09166779811964212 -0.19457517370884553
Ni 2.24542337420738 5.531019259389194 -0.15031240624847947 1.5194142390975058 -0.8986681748825619 -0.055127537101763116
Ni 2.595350383005609 6.5282577513648805 7.35083703933384 -1.8249170875968699 0.24070307841515964 -1.1474925968532752
Ni 7.635846631089285 5.566862157122903 10.318986755176445 0.04492205732367102 1.1352849990434901 0.48998824207237546
Ni 2.7605762748483067 5.0692480245523415 10.591421363747056 -1.855858514370733 1.9563477674367469 -1.0721451331602114
Ni 8.542947658350029 5.549627689444925 4.867442459177398 2.1015369345132964 -0.867080629884268 0.8483023208355004
Ni 8.428244852867756 7.81233163745034 10.06550176195 -0.603021136131355 -0.7082147366515739 0.9551643101970776
Ni 1.1217987859265257 0.2005044506668847 9.528042720424628 0.6420150008960491 2.2082829671223 0.23048731422442242
Ni 1.3547269044635573 7.220476595479602 9.681440548227442 0.4736766493965455 -1.7825928729073623 -0.013514746656983176
Ni 8.85566702826081 4.759461003877298 2.654688037398877 1.042695717550843 2.0678891645518642 -1.276381226997589
Ni 1.6552742586788174 9.420679087133317 2.0748915900683165 -1.246693470125169 -0.2360774067176902 0.9023844473918845
Ni 1.6683683967755152 3.984463231809016 1.8595732430265408 0.8191910052918409 0.03383623182315463 1.3769548122472932
Ni 5.063447874648945 1.2078973545243192 6.792552785500312 2.2203406696177823 2.2672985264245598 -0.9128758338415116
Ni 0.3415329285803252 6.179234422519803 11.877096054320956 0.7721393032196766 -1.4689231723264895 -1.5273854302284404
Ni 8.725509451334831 1.0055652572583038 11.01100457660771 0.9269731924748422 0.1550658027603136 -0.9551666241899227
Ni 4.599113139536821 0.8234451609036632 4.199597154370556 -0.28756914683907897 0.6737503843261171 1.495483182203205
Ni 6.453796367469927 8.442777501910289 7.122508467333873 0.05746569831663652 -1.076696757086636 0.7629841190829698
Ni 6.203357144534565 5.105607310830706 8.089429419003698 3.3779513287416663 -0.19332664601372512 -0.7170099663457006
Ni 6.609542841028536 7.108761466577143 0.8640213129226061 -0.3732573303365184 0.4251097962314356 0.11217311716184551
Ni 7.8039311023756275 1.0923369752089558 6.79556259301775 -0.6045884806184749 1.3662631368614018 -4.408553348352768
Ni 4.186555577250726 4.9602715991813735 8.627509048905061 -2.3597553961044 -1.5099533507949223 -1.1516858089990165
Ni 2.889415216740603 7.033064438664614 5.029356087355071 0.5533229975752793 0.208422364004583 -0.519525075189228
Ni 7.1057830112213445 4.375461572355619 12.415836845983963 0.6307484268432944 -0.21331800153398747 -0.23739741108069437
Ni 3.854573070379379 8.736713238509118 6.393632491405206 -2.0336667530338843 -0.1528662240058335 0.13950471509726298
Ni 1.685252457941046 4.801445236802837 8.453948092678134 -0.5403484396924823 -0.8904491294068793 0.7224591623857299
Ni 0.7959373275541849 0.737259912800159 13.268944840288652 1.1275598624850902 -1.294126723906468 0.21978175488146015
P 2.472781873441309 9.14217045830616 4.301048138825527 -0.39549583001974464 0.2928211392666376 -0.25235094706673317
Ni 7.096709326793774 2.917318640600185 0.8720594538936564 2.650463088572461 -0.8618085828520512 0.8215795601286754
P 6.697716185028975 1.514355513331117 4.54453271461122 0.4051811756283086 0.318351165216942 0.5859479826991523
Ni 5.632895342271108 2.6891486736532215 8.580420868489014 -0.21520056326868098 0.305848404764241 -0.5225566629267
P 9.150405011348662 2.0197246952955674 1.6323650497440034 0.16014038906974354 -0.15945956095263505 0.17997824973127713
P 7.2024214388645795 6.253041099509923 6.392080559404027 -0.5402180847622051 0.39617434414400804 0.8441515318919203
P 9.133428737943014 4.126414754246033 10.997777652885244 0.6395739955547243 -0.18622937284731153 0.7250333508708093
Ni 8.806278152453828 2.944733339587145 5.1537107480104485 -0.20135311586262744 0.18642349113598863 2.2361578391556973
Ni 3.5396774916018217 7.0194354695752335 11.799749349432723 -0.2801237463046272 0.22324271684686714 0.4248791682778682
Ni 8.158275077475489 8.907213670486541 1.1333797211628938 1.1068588824923131 0.42282845639642663 1.1690736654581608
Ni 1.3049415160240707 7.644053520459751 0.04042123545554545 1.6193383636886691 0.9531511364217907 -0.06924880699449364
Ni 0.6372520499030284 0.3792200711163841 5.571242238528488 -0.6374682620656311 -0.559120578093663 -1.4015507564191023
Ni 7.508224890766542 3.32037834215417 3.431757818502602 -1.5985584508288404 -1.5357929375658455 -0.5019510708612066
Ni 7.781993810451653 7.071618376257778 3.0372240606698893 0.38143472394098826 0.06270920610376297 -2.3869718086181924
Ni 8.775193406310189 8.532702878472962 8.035174503285711 0.5262837340693001 -0.9875249859159703 -1.6580884878736735
Ni 3.479472120029047 0.5344621437215499 0.6538179788401532 0.10451791460943291 0.6329336074200712 -2.326908010557076
Ni 9.106742515652982 2.5923534852017878 12.650670069401825 -1.1195367350702976 0.9895682415982442 -1.333799874126374
Ni 6.4042876157507935 9.296838048655394 2.75670520500817 0.8881716462266123 -2.9533989476755975 1.4635356827623311
Ni 4.068440918884105 3.1464752785164074 10.229048468900155 -0.32828179406709274 -1.9845383709383502 -0.5862968813981386
Ni 3.932842819791189 8.63711479795811 2.49883367551933 -0.2113606206973005 0.1312167640568579 1.729922281986524
Ni 8.756317560758118 5.9232901288494215 8.238832612564618 -0.33509033234849384 1.2671355400296047 -0.26087543959797654
Ni 8.588694150672364 0.2886741061777192 3.4150231411660616 0.4505801725883982 1.734071271157891 -0.39394314082064413
Ni 8.406704073576288 7.919666684947215 12.584633195764015 -1.3807448754173446 0.7408698036824337 -0.7894407706126016
Ni 1.2984774379918276 4.77204797465335 6.138095775836143 0.28391226681278203 -0.2121484067059185 -0.1018683928017278
Ni 4.273493277233589 9.128587595336839 10.933279801534995 0.942520653291138 -0.06773596989439302 -0.24925122509548686
Ni 0.4615259502781412 7.338665023638318 6.264784328288898 1.330703494589237 -1.7934670966177046 0.9188140537028175
Ni 4.0892624427026565 5.463390802486955 3.1862353522103097 -0.5198590614898788 -0.40610754409732 0.2644107064447446
Ni 6.821843081451262 8.981758045397601 11.108487668370422 -2.538105109093319 -0.30279136310547206 -0.6543244143910215
Ni 4.736177413247606 6.631959636601122 6.804376238928189 1.5660069992553804 0.002232488874944542 2.2041208653248106
Ni 6.188796831819998 6.863725880912672 12.107786181790335 -0.2934932256329978 0.22205126764192729 -0.8912819097208198
Ni 4.406435663811118 4.733752231332514 5.774467872401242 0.1955614488815148 -0.04396637827862106 -1.276255500053002
Ni 1.7369927458710255 2.0556044779253213 6.515502954311816 0.5445393378453783 1.6484933879860708 1.2798324187709829
P 5.309737546779015 9.302278570822333 13.038416084239481 0.7608840420208315 -0.202583902945935 -0.8383819763979947
Ni 4.97760750032348 5.045835336786484 13.212462998971827 -0.6120853032161523 1.527872140056872 0.3383751737473527
P 8.858995890129053 6.6475527264050065 0.9317309165961499 -0.3868723500167918 -0.7445343970182144 0.612518534098829
Ni 7.382438174022137 0.8590169546514246 8.88534000500825 -1.8712388534815447 0.36259727951951104 3.243310369494608
P 1.8749883632069984 8.781768139030573 11.496246592921695 -0.062372391589634514 -1.7366719420055317 0.46840948746033517
P 4.6045536617037595 3.8217916190175756 1.7027875375218067 -1.2571159510100736 -1.1822055748544285 0.22095212104047754
P 5.545413590071551 7.207659094103258 3.0384790692578902 -0.17767068464402305 -0.47655114273086313 -1.6322794972303698
Ni 2.1958131890241166 6.90969368261129 2.1257586280843825 -1.9230980042446817 -0.9574636477542156 1.1193302754864465
