# total energy = -340858.9804469222 ev
CRYSTAL
PRIMVEC
9.36071183035539 0.00000000000000 0.00000000000000
0.00000000000000 9.36071183035539 0.00000000000000
0.00000000000000 0.00000000000000 13.70034795898057
PRIMCOORD
 96 1
Ni 0.8893228633381808 7.941150621067558 6.815759027020948 0.6831480234909332 0.4168521842083337 -1.5910282038900665
Ni 4.26330817495318 3.8747918255175016 12.965981731264101 0.19468316004161954 0.4983078176816644 0.46366760189997563
Ni 3.8936442993824203 2.1782376704898816 9.659211011797586 -0.781575508931912 0.35911831983197506 0.7067486936290086
Ni 4.730023912009283 6.731400290938203 6.421106730902818 0.4741669587694027 -2.3010871928392307 -0.809327996454832
Ni 4.505535318052736 1.7601508320078876 0.9886091267657056 0.4481864755452411 1.859519765272404 1.1115300627157372
Ni 9.089728698611388 6.5597061123729885 12.929525502508236 0.4114333271856075 -0.5598610558041133 -0.06890710738435875
Ni 6.776144494053551 3.0164613433706613 13.266444671610836 1.5630602579222306 -3.8832376346236925 2.4423304878941554
Ni 9.198228710810135 1.611512086972611 8.43668799021407 -1.6076799535141344 -0.7666741663400473 -1.16757214121197
Ni 4.792937257017287 7.308104393392913 8.807282320552542 0.12469927465331428 1.1167925966662573 -0.9947436151515965
Ni 9.27783220522288 7.745839366255476 3.7243165087978674 0.5904862368891379 -0.8081308908229372 -0.5664718762524115
Ni 3.663464392560993 7.328005266996099 4.0144901545704625 -0.6122634806652294 -0.19695164436082208 0.9714345081120108
Ni 5.145302536906632 0.7860348955525363 12.651312038392645 -1.5265642198787257 0.5187786839415065 -0.959887940924992
Ni 1.794991401881387 4.763881607128157 13.676769607744871 0.23757430297819088 2.09601317648159 -0.43155195231235355
Ni 7.233705454823711 0.3103094732456969 11.812467750309658 0.8363204658832758 1.5304643262640805 0.31677713586160283
Ni 6.662046776109412 7.938651310977224 10.162150831953223 0.2755566957592351 0.8949439319534395 -1.5338941778812356
Ni 5.687821319324261 4.093607828033064 1.3434709085318004 -1.7159812464253996 -2.228767460228897 1.317478254148215
Ni 5.812758741705131 8.62290999372385 0.5682644845616565 1.4178852319130677 2.1304399907008924 1.7929965847391893
Ni 3.3642773172528813 6.479756271618136 13.418984025315186 -3.0305940061003613 -1.1658641573819275 0.8376507546589251
Ni 4.789960550617563 5.673415183635029 2.7671415888274864 -0.05563764396896224 -0.3601195074029798 1.6313343597082806
Ni 1.8492086454889392 0.9793551269331043 8.793321754752077 0.42861935204659085 0.7891036989881571 0.38953447022998716
Ni 1.278757498616039 5.48165163865155 7.28727025680843 1.0507651248225385 -0.6188154228511342 -1.011584597968335
Ni 0.5953272388768833 0.7888749355578076 6.1052997115295815 -0.13610365983551398 1.4337972751576338 0.551712715665366
Ni 7.754385696264747 7.449713243754628 5.502196529236815 -0.34622680858128757 1.1334579731370802 -0.385239185288743
Ni 1.6691647118653792 2.581946455418492 13.424929949545072 0.6507204990898471 -0.5471685479381093 -1.707632874460704
P 7.950436447320785 8.909525632884698 8.654167283063341 1.380445856119687 0.6682916752043909 -0.053085824081386
P 5.627360480846847 1.4605238032381813 10.644184438042371 0.8954872060514191 -0.3583066225639571 -0.13422804007935593
P 1.581773105111217 9.16462375491388 4.536719593839028 -1.798614188036283 -2.5328693146156764 1.347812643465698
P 2.16170665318827 1.6458003748411303 1.587514029749427 0.44009727077920335 -0.5995208362875803 0.0005221910520571652
P 2.067556612407061 3.3261698589092443 7.998688109203355 -0.07523793469839299 -0.5900391220493904 -0.8164383822473681
P 3.147417703534621 2.562663388803928 11.721675396904491 -0.11043967941050659 -0.40567431321464326 -0.47760812324046775
P 7.268798763919828 5.110349638489747 0.6346768636961284 2.663331717005013 0.6975102057498761 -3.122842616424138
P 6.704946918970844 3.3417835264398725 7.96828732500718 -1.977740117069594 0.4398090501148232 -2.85203526242443
Ni 8.32805692804804 0.38930452138176963 4.437186207616055 -0.04364653304535709 0.16280688015831316 0.7958492452421068
Ni 5.272851597921222 4.210495038137951 5.185622867554969 0.7658771243600487 1.8350148381525042 -0.6955916485709246
Ni 1.814087254256975 8.506659312031482 2.519507698506293 1.3200570706189847 1.8672256185570937 -0.5082613293499505
Ni 1.5822505014206067 6.424125560506313 5.010806891554824 -0.3606239578432241 -0.22339286927148622 -0.1845031341848242
Ni 8.576602551713048 6.777043122400638 7.579197163929038 0.02470727293869293 -1.453098546589407 1.5359580023888
Ni 2.6055073673936664 6.478455132657251 9.358858527851847 1.2331707530483857 1.0504005423942686 0.40396941470839454
Ni 8.30240857730828 3.4244854165076766 1.6197513856299603 -2.244662534192599 -0.5556205353602044 0.2596001724299787
Ni 9.116809238279318 2.914766568758706 4.068934863478371 -0.6752711918460177 -0.22406161320373666 -2.693172197405213
Ni 2.6285159973638605 4.407987338834108 3.659828692040072 0.3121668907831011 -1.1689165710550062 -0.5474925069364313
Ni 4.338867841804038 4.118535403952766 7.513709623135109 0.1627217766436746 0.012135606921269422 0.6587449120562204
Ni 3.104470757113446 2.9773148460007057 5.7444049509124735 -0.3345048921586691 0.7389455900765275 -1.3029450935290463
Ni 7.084982463380895 8.199356499463745 2.954137723215433 -1.4256432785919317 0.7386558267502504 0.7218408120754407
Ni 7.053942342558615 4.6916917965788745 9.664773146837575 -0.4592388767046607 2.0751016231399033 1.3018233212197774
Ni 9.26858382181745 8.692937479812954 11.21709183573064 -1.1835001252961361 0.1685602377023226 -0.2669782100616047
Ni 7.492107908170824 0.7317539991037322 6.726048771917064 0.3776660009271754 -0.3042566347970889 -0.28299181188104167
Ni 8.163888761889675 5.332741432969758 4.711289383114919 1.3535721716572946 -1.9480572452931808 2.1534421080230204
Ni 3.743461036875589 1.6230912876532984 7.405216163434728 0.09213496756404778 -1.468666062010361 -0.22671473455586763
Ni 3.847290053811875 8.455971056828634 10.609837177688574 -0.20025988279844864 1.4128016467425732 0.6771434691680661
Ni 1.080385290996694 3.6196281785046795 1.8256814320767807 1.5892831961745015 0.010236333016027534 1.5369162525370113
Ni 6.85628154904738 7.279610386220712 12.29399400581118 -1.1607749157844782 0.6038618868650955 3.133689843551287
Ni 7.411343685476424 2.447152203355517 9.583283468967142 0.5886620391962055 -1.8498048519774852 3.358202685359829
Ni 8.753445121850113 3.992390449730499 7.96983465069232 1.2964265756842381 0.5398984966392573 0.1592744415250225
Ni 2.5096536770377726 1.480097051923159 3.7692947297119366 -0.6303509342945596 1.4982093228851165 -1.0394139614757778
Ni 1.771467932754008 6.1849032059423275 2.35548743159672 1.4252887234659903 0.5075948994105451 -1.6908147744621012
P 3.3420549870863883 5.218409697226898 5.453423475698695 -0.20850823885016992 0.5172627615176124 1.2815005505020254
P 9.149684058643565 1.7871658466921754 11.377947245930319 0.4127155363321408 -0.369813337651976 0.2502223307595045
P 6.305001140245659 4.2570739407952685 11.923590633996461 -1.4870229672509938 3.188499335191999 -4.125073541091715
P 1.1102085192656272 7.643377013263717 0.6706940750615943 0.040796465191071676 -0.6988307243335126 -1.1637633089888408
P 4.584062330591369 7.8450441914890465 12.67506858924755 1.038275219885644 3.4919008210776443 -1.401608092019599
P 3.1678053341591466 8.836100208358173 8.547674207506422 0.6308831526489457 -1.3736614862080019 -0.7500368148936825
P 0.21015453574932183 5.321658350022357 3.27865769327063 0.255285861325341 -1.4661790339224492 -0.642714340955919
P 4.339972405813998 7.589028719688882 1.9584509621452264 -0.45129005417122925 1.4018832000578567 -0.22976560556704947
Ni 6.578071829216569 7.821165015307613 7.470389184307177 -0.8021793012251927 0.4898509451635628 -0.20323207805289514
Ni 7.023548110860804 1.2689100296458828 2.789021316936653 -1.8583188029857671 -0.38119561134698865 -0.6188131088582891
Ni 7.668669656949422 3.2332460713933306 5.973146116307367 -0.4961889715664487 -0.8236387566505492 0.166539607727868
Ni 1.1445248892699929 0.4062258803716474 13.61940622885132 -1.31922788984947 -1.7006754693062647 -0.21378362831649633
Ni 4.590334007597076 -0.006256699866589759 3.223527780248068 0.5985713278901176 1.0748540474509425 -0.8909479234201688
Ni 1.0405461009425256 3.0580509865592584 9.987786978340205 0.4305726191182197 0.6330940442573355 0.24286614750474944
Ni 0.17898149281736905 4.018956150241243 12.195036303373058 -0.9109374791682183 -0.0912718482328041 -0.8432742714932896
Ni 6.764509129101171 5.322856521151806 6.8797937853204205 -0.16438065240333624 0.3163919846080422 0.36111375299544907
Ni 0.8161698355293652 8.102987969950668 9.05277916033582 -0.2615141016232399 0.39136818100461634 0.5870209040483568
Ni 5.905822939900276 0.8807465790506739 8.483790156669325 -0.5939554263846609 -0.3722893099962943 0.5318938811672258
Ni 0.7752466750315239 3.3318143682143813 5.861899671222839 0.9942515060065263 0.541355797911074 2.6746653968502776
Ni 3.3711761619591596 9.279704347612643 0.5697687509718314 -0.3661847397604532 -2.1802034352772646 -0.005801694283441621
Ni 0.6286588619842335 5.602592037030275 9.448938531077708 -3.443639414968095 -0.7122986769129604 0.7103081288454928
Ni 7.250713868434712 5.961940408033438 2.525385289538956 1.5731569800366005 -0.329790003181503 -0.975971476750416
Ni 5.440296013261674 1.9890108784445317 5.533913429532994 1.3293132991099301 -1.7811659106528483 1.643289218077312
Ni 4.781835452645989 6.360463358542403 11.19686988970761 0.7971635931781562 -1.9552049120815551 0.09197144540298999
Ni 4.716188779748931 2.520540185034248 3.4414311133486213 -0.015068207187032114 0.7924379055677127 -1.4589709462097842
Ni 5.656781198501981 8.60668787991655 5.2899377054414 -0.11381013854463624 0.7979603780478387 -0.024079666657023047
Ni 9.287464377818214 0.9400026939002747 2.16150352573898 1.0535506579874758 0.47871421182045293 0.023263341403314774
Ni 5.4700069129872215 6.411151613745251 0.45163843832014167 1.579081058830519 -2.081089465292222 0.8579413865871612
Ni 3.156198051342612 8.300143285016667 6.2618267285241265 -1.0311805178223918 0.17243668993859335 0.7669886122566727
Ni 2.0274834045541725 0.7233256140650166 11.200993283321063 -0.5838337645696267 1.0471671230586352 0.20517943158725307
Ni 1.8264433940294145 7.7974075283815125 11.86202148722431 0.911340885254224 -1.4939963132450333 0.9444926894158443
Ni 8.381122804085887 8.324247118284871 0.9705410805620975 -0.05876873339877621 -0.0242213344412099 -0.7382585913118318
P 3.527209869434002 4.6753479935162385 1.3959554843576263 -0.9875152157239574 -0.8772742825878181 -0.6696168217737177
P 4.4865985977802785 5.367366706468435 9.325305991942505 0.2037144170059524 -1.8264461226468869 -0.6881027963930472
P 6.902532826786488 2.9702287870554507 3.926341266219641 -0.4775219912845647 0.7897210208571819 0.9048251956228932
P 6.33491797563408 6.111384174296313 4.368616184377379 -2.740643760623615 1.834288758619757 2.0267024059009096
P 7.553008700109832 1.0306986319723694 0.7600158606196027 -0.11130536984491152 -0.055971887379929405 -1.3195497919652628
P 8.00604843700871 6.393076078972085 10.92138320098271 2.0713408705458907 -1.1428031617974062 -1.6186313103193153
P 3.750191388766789 0.6598347131297708 5.321269880476482 1.7864562125175103 1.1115539739751372 -0.1759848123011679
P 1.7349049918819262 5.5354102073736104 11.217666583444299 -0.03874009688267522 -0.01840652753164572 2.032170370994016
