# total energy = -340897.4665686393 ev
CRYSTAL
PRIMVEC
9.06596254441745 0.00000000000000 0.00000000000000
0.00000000000000 9.06596254441745 0.00000000000000
0.00000000000000 0.00000000000000 13.26895258529838
PRIMCOORD
 96 1
Ni 6.45132974975067 1.9686374627274055 11.444550855390577 0.12743415708597408 0.45785639453483723 0.43493295296944445
Ni 4.454723793141204 0.2724956306687557 6.081996948724751 0.09123251035443641 -0.04382445338411807 -1.010782156671698
Ni 2.628331279849629 1.7809992397526828 4.789919619494994 0.057500408209313875 -1.0087196177157145 0.10820539076334913
Ni 3.2902643896748898 4.298580723406766 4.963941673600521 0.06566494629797724 0.4339196812135817 -0.6303409069922306
Ni 5.142848468225873 4.4365646705331745 2.662494545812602 0.24280109859476895 1.0972686677007166 0.3346583870173978
Ni 7.343103137338658 6.132851557989592 2.708829772840746 -0.46194342012001727 -0.1168916056834374 -1.000478974973477
Ni 5.12157065456584 4.52146740803901 11.60985598668651 -0.40428540328691664 -0.15817580914420498 -0.6179314775842842
Ni 5.48868773439086 7.814288399099553 12.545502285925538 0.4522143657577115 1.1251324839905203 -0.27652291632724635
Ni 1.926344748315796 6.518571992578303 0.3237808731457189 -0.4368365977500606 0.06555721707551936 0.22124805501434155
Ni 2.5966457413997737 1.6668769055590409 0.4247575619166742 1.0819842307378205 -1.3473290189610603 -0.4860410844991694
Ni 0.46781091057032737 -0.06386607844459248 4.677597785426142 -0.18107945321525587 0.7565766728947293 0.0005245050449023225
Ni 8.57473225593372 2.255620501248198 1.410476077868834 0.5799801951514915 1.1134337074963534 0.03619804718711185
Ni 6.694651113543422 0.9068228851063742 4.753456318881169 0.10766057400347266 -0.8258072250567778 0.48944882462913775
Ni 0.6910466347534495 7.451423255621596 2.5573919375713947 0.3626129632487949 0.006576367665937061 -0.2609572006785054
Ni 7.64538952032393 3.8745384659203332 3.831927536229871 0.035323872112274654 0.17097450357077004 -0.33756064826585735
Ni 7.677283575908077 3.9169671697673496 12.62401533315971 0.4957431422782817 -0.7397598584477066 0.5488698468999322
Ni 7.94457534418192 8.887226912536885 6.773481469460212 -0.351548220794201 -0.3540223933663064 -0.1320405455097339
Ni 6.834702100088017 0.8640614604407282 0.4345977574627322 -0.32069344019687346 -1.105884948614818 -0.09843211342666919
Ni 1.8981677372994439 6.451882773454658 9.261105387090344 0.11900608092327891 -0.07586451253879838 0.025028660833853668
Ni 0.1480498851352424 4.941257729178381 1.3282351069120335 -0.632303172924924 -0.6306808068301525 0.14811816779788683
Ni 6.336173895847934 1.9391277552440638 7.016728492361607 0.4959038362258621 -0.17111231470021498 -0.26805421673460283
Ni 3.501528510561007 4.566235130175029 0.5116829156251312 0.04813285095148485 -1.1350942231889227 -0.12984045253462154
Ni 5.924660798343676 5.69121226756148 4.883372466102992 0.35826651335464105 -0.7256727842270213 -0.3256955213971552
Ni 5.4975633115417635 2.970952129376648 9.288637808182868 -0.08057143109616446 -0.3465281418717903 0.0076518601183029515
P 0.1528294604916841 5.681185313190796 12.519150253132349 0.24460241346956585 -0.4646633901543417 -0.34471422859150314
P 3.934119970553366 6.279556960906777 12.546404349180404 0.11629510975001908 -0.4507046139814044 -0.0611644873244624
P 2.4591604222031913 8.509847163319812 1.393995971489965 -0.657002989664449 0.15957988858058322 0.09811072553150844
P 6.291052601179857 7.6843278286621635 5.735809549605122 -0.205727076560607 1.104161538165808 0.7260990731311624
P 4.701925388824237 1.0174820216783151 12.750256139240596 0.2977484013649259 -0.38991705038038654 -0.14874885940335028
P 4.244357202528773 5.958721618931976 8.142770880325413 -0.3280287975160222 1.1453608952222534 0.9711848539950501
P 4.525519893214142 1.2593800293804724 3.8175969695266705 1.0971141444007235 -0.899240245335948 0.285701754613037
P 0.2542367824747618 5.5628382405371735 3.612830423864305 -0.03122553367318493 -0.1799463680520772 0.01786556742651117
Ni 1.4689034854933782 1.0690673475094101 2.6305433746655846 0.10005242263891156 0.3968729128729294 -0.17360474210476554
Ni 1.7716703644837555 6.5011834767709145 4.937655822332564 0.4952847145846245 0.48955423985875046 -0.7074904568910395
Ni 6.237019465511434 5.665936364500479 9.18226052563378 -1.0057163121130164 0.43840908444350307 0.12866648683117843
Ni 8.448243949080393 2.2506886177241 10.102144742712888 0.9106726555426057 0.4584570042333136 0.24649911627164645
Ni 2.4610642742988906 5.386469008776519 7.0539206963492145 -0.7326237616235577 -0.9384871066517128 0.5645772303328599
Ni 0.5833430019110228 9.03582710158741 9.144842579183395 0.23332478367321755 0.95561708146378 0.20034112965834527
Ni 1.492021689512586 0.899430499397644 11.578805972198122 -1.2321083732221427 1.6037279108449218 -1.0895281045233494
Ni 4.144223648257342 6.863803839265138 1.4950923309640785 -0.2032991838454047 0.5069256412576625 0.8359168026869539
Ni 5.487355037923869 7.910251610685167 7.966121510327822 0.5148389825674682 -0.11797686832781618 0.40506958975110885
Ni 5.350721919189172 3.0895258510892827 4.877507695052002 -0.4193584955699552 -0.5750477908468806 -0.47040414929286084
Ni 0.7840171721638706 7.4662733019680525 7.149311845709882 -0.2911247254008212 -0.5035533823513199 -0.4146834586917891
Ni 5.322245731414924 4.405341496163704 7.110393482488841 -0.4082055642769292 0.22486893959638046 0.12765861439195433
Ni 8.266552997414141 7.257393529182741 9.181080137334446 -0.43858623345131564 -0.928950113695555 0.16246595187912666
Ni 4.952372599032321 0.40724665561741935 10.425986357806423 -1.2466862710363174 -0.5763150875950784 0.3541884866305255
Ni 8.197987124081878 7.071795147739124 4.770214750304505 -0.19136900806672205 0.30527710564180327 0.4543203563571207
Ni 7.377762311442749 6.16305934457469 7.01907657661297 0.010092094128679393 -0.14884116200684044 -0.05598165757194229
Ni 2.2624199730185532 5.22165887902547 2.5500140574024415 0.5739514724589083 0.3953510769117643 0.8855815169019328
Ni 2.5757940279706846 5.080039480992511 11.255773947543378 -0.2917343339603621 0.5753475814754866 1.1930895687567842
Ni 0.9603755247696918 3.4357368217110493 3.852706721960077 1.0419909781743344 0.20906693956711736 -0.21150023159895834
Ni 3.6081623598448975 2.72578130926236 2.4756813254126824 0.05427084552842266 -0.19381335584215653 0.4268442624240391
Ni 1.2107230093918104 3.4659446082961476 8.380855744258756 -0.8031141543346362 -0.12305299729914292 -0.49712356756557613
Ni 3.8888173566380795 2.5242902958008337 6.914782652214317 -0.7991772811740753 0.34584397132057215 0.27377440704783174
Ni 4.0449332284854345 6.861763997734031 6.0321450348969785 0.4084747587779159 0.46027528838897497 -0.32678104115185014
Ni 0.8721927220818371 7.398976663366257 11.40024640393118 -0.427827709383231 0.032674350304569534 -0.1494047478197943
P 0.24119267583051238 5.485605307188298 8.159092332362976 -0.31232372807593956 0.5944506208535246 -0.05228775366012285
P 8.423366948363253 1.5918198031766797 7.949920635589655 0.7964143737169574 0.43620410637238427 0.16463879116072935
P 1.8194479861234516 3.1258894261171424 10.474590795213393 0.2991717640750138 -1.0594395126680851 0.1957393692202758
P 3.984327270105669 6.180801432914137 3.8755030843154876 -0.5670038374964816 -0.8405432457153718 -0.9178221221031936
P 6.982830859095797 4.037145566817788 10.511584454625305 0.1625582544826168 -0.6491390135353401 -0.869536033403296
P 6.4176859634309515 7.84311815940586 10.269797958260183 -0.5720725102686405 -1.4872564234180388 -0.12250843764958257
P 2.2229195750139694 8.56092479525872 5.761485261606219 1.0454735374062964 -0.01076880848072984 0.6335774116516572
P 6.973873688283648 4.029113124166408 1.5205024102680138 -0.032081711025893134 -0.10570139339457281 0.3620020691376733
Ni 5.356787048008329 2.948332553287267 0.28351621451414744 -0.17347644405701737 0.1688613138825092 0.5896876522472425
Ni 1.3960131481151705 1.1512956261189058 7.116351632952143 0.3335132176693611 -0.05244921893865161 -0.42286393762005237
Ni 6.922850452118903 0.6352619551569832 9.11319602437169 -0.37810308846459395 -0.3151331725002766 -0.1094822005932437
Ni 2.7867136422871033 1.4841433682213343 9.241028813443076 -0.11369855266743643 -0.16762178504845326 -0.2347049518501958
Ni 6.379536393818079 2.093058730162545 2.7102893927807825 -0.3143975798858327 0.16770303190834987 -1.0402138316692537
Ni 4.083708349501181 7.04721732377988 10.472083150024487 0.6192532817195012 -0.4446761483991374 -1.0174634253466155
Ni 7.9323090971082 7.316159097203331 0.17067490080204037 0.3342297841204115 -0.10082272514603281 -0.048983628987554345
Ni 7.637656254430446 3.8260536992165206 8.082251955184308 0.9787683227692627 -0.1468372442029342 0.4677944795841557
Ni 2.9334734409784504 8.39460064979347 12.396292864204389 1.6009241228475397 -0.15208537997575097 0.5410912313957777
Ni 9.314097750279785 4.6385633778868876 10.39855910187728 -0.8107426174141714 0.791124843183244 0.1696897233210755
Ni 8.708119760143369 2.3890805331567297 5.870423678522142 0.005319612440700516 0.08970424663536809 -0.3416517876160955
Ni 3.7534625385962084 2.3782739060230456 11.332149240852953 -0.09158526570816485 0.8821822614123968 0.35099337673199554
Ni 1.178212468367152 3.385810566991921 12.593708727584884 -0.7546696856800035 0.3560977878380964 0.07049116404202697
Ni 3.0223742678852545 8.252609547303733 7.889334622327081 0.1738777932604941 0.30205577049102816 0.49413723124374254
Ni 5.495731987144947 7.869790220670374 3.604418117390022 0.5666333415309402 0.2351880621342014 0.3666148853193364
Ni 3.064621652485062 8.237161147441485 3.5729311235158607 -0.25777211808230444 0.5564381461654934 0.3597495256580708
Ni 3.4182395143553355 4.151394824484477 9.270765169985431 0.6752015149503467 0.23020140755288743 -0.8892440533551846
Ni 7.3116170500607325 5.99689838643193 11.385663803474358 -0.020645701274809605 1.3074581509080516 0.12289693133725287
Ni 0.4458413639821916 -0.02743269550655714 13.72779262416243 0.49725855048154366 0.1681789431035039 -0.0034578766416133995
Ni 4.681844282195788 0.3137285340804258 1.7295281450473299 -0.6134019651450467 0.29697115687926917 -0.4506670758752497
Ni 5.926981684707957 5.630098615289527 0.3650464140218867 0.5889176068504374 0.057718180647074784 0.4885142286300103
Ni 7.989315868430857 8.914760240225645 11.277707230282074 0.5332588798355525 0.0695110595169448 0.5244415386542387
Ni 0.19600973261838395 4.947232198373933 5.9125921892494135 -0.3217113399384266 -0.939275149770647 0.11247393623171596
Ni 7.83604670876469 8.951060353516981 2.6877586631225334 -0.02225598318472296 -0.009850667541834649 -0.3119141513423467
P 8.661013019718348 1.7621057741934558 3.6451406071207972 -1.286952831865848 -0.9557749471978831 0.2656918871500134
P 1.783800622122069 3.3047517975269263 1.5230771435783885 -0.671862680385101 0.24216115101792487 0.19717275923269267
P 4.74007495843711 1.056737638699166 8.2759253893024 0.2662055935616383 -0.6448681540741281 -0.2284574282785872
P 8.573127580595918 1.650494711573665 12.478162130704412 -0.17968282997804536 -0.12028366208412188 -0.14932427229084605
P 6.30434330200031 7.783319071676175 1.4649053960924094 -0.16401915529885946 -0.08601034272354866 0.312726619941313
P 1.907877382987511 3.2233666534169547 6.3032037105316 -0.6468736145399311 0.432852416291332 -0.7107678420907309
P 7.02979254412305 3.8724351626527036 5.923658102906607 0.5653357057654392 1.0355544785203712 0.22912617221083767
P 2.4401672310579987 8.494951787161552 10.119101718711917 0.025019919083105295 0.1091304736807798 0.4150675815040852
