# total energy = -381168.98689210374 ev
CRYSTAL
PRIMVEC
9.27632972136458 0.00000000000000 0.00000000000000

0.00000000000000 9.27632972136458 0.00000000000000

0.00000000000000 0.00000000000000 13.57684621299210

PRIMCOORD
 96 1
Ni 4.041177454395573 7.949916747089376 9.784507639122223 3.015085111831485 -0.25915125781801823 -0.5224715594120615
Ni 6.155726126951434 5.393378784724438 2.9189131509759045 -0.5770486233269934 -0.9447258884725729 0.305184545927997
Ni 2.9520713921332185 8.133179920205588 4.210681975033248 0.134654071873181 1.170341219316675 1.6003073151991472
Ni 5.00846675266916 2.7028349609079516 7.343689109115699 -0.08981377563003887 1.68723785574412 1.642163332002985
Ni 3.164536451712775 6.303665035883269 0.465315548926208 1.0009782832073988 -1.7944076061541032 -0.11633470473870289
Ni 4.6184434628498074 3.6685751120915198 4.640430219932215 0.9446821797188311 0.7883989596116487 1.9626217733709168
Ni 7.774269440804933 6.433366680270334 6.515963121524979 0.11748193096926864 -0.20873578147994376 1.8028325969930048
Ni 4.086770615757497 3.9958162012806575 1.1946827555295914 0.15229518199371192 0.6095514810507051 0.4152038499716333
Ni 8.148903299352783 4.367277555009427 7.63962351259164 -1.0570733264287537 -0.18623940014964052 -0.21429399229401158
Ni 9.232601261294892 4.819721268593661 3.1637043649225074 -0.5316306002035102 -0.96333887558807 0.47406951395958996
Ni 3.7693624362415314 0.5863289827473372 8.086410520214836 0.3667033312680846 0.16868005110963852 -0.19079359517922626
Ni 7.543019813217666 3.1382102275123396 3.490675512912127 -1.6203812031308868 -1.041380598283845 -0.13416401961063992
Ni 8.043013993768577 8.542470147186428 5.772481051375654 -0.31461638076485815 1.359409347164362 -0.9895836682172119
Ni 2.079447040288613 2.4212241384002597 11.306295121791711 0.08292938980537976 -1.1165136319732578 -1.7552512476696158
Ni 7.8483594875592955 8.34841860241937 8.267702473231472 0.4322415221802104 0.731450824361379 -0.33769563118182483
Ni 7.014064930780299 1.3527115284722848 10.666309991750449 0.6201223145880159 -0.023961910132236152 0.47884996606736885
Ni 6.412142437504092 7.35487729058439 11.380058641734285 -1.1800692452377162 0.675677426145501 -2.3921536099294483
Ni 1.888020696877692 0.8136862623168087 5.361795664380808 -0.7025079160747837 -0.9611909760071318 -2.9128577930284414
Ni 1.305495009381299 9.07547878578151 11.940578091855523 -0.4851663952036999 0.29319523477660475 1.588214388590355
Ni 7.9788032383367895 1.9246436472453174 8.226849516438406 -0.48155450948272555 -0.8880502901573996 -0.16968612377664968
Ni 2.688836979118502 7.767145219456824 7.847444841433092 -0.6201431405236223 -0.4152244187969236 -1.7646604567986577
Ni 3.3484767969102522 0.3750791223821069 10.934100010369406 0.6362778413019557 1.6731345835735185 0.7538119656653985
Ni 2.1506985300995876 1.057640751308204 0.5300578380601408 1.7911667306193024 1.283007474064855 -0.12097014662818521
Ni 5.369603551241099 5.873234053105108 9.49366408548462 1.5681505279609445 -0.3069526935720133 1.0551902504734278
P 2.849187617430247 2.309351600043229 8.98855122610573 -0.4828997106567102 1.4645497258491422 0.1818117033955901
Ni 1.5010029379395737 4.277436300118229 9.554936099610313 0.9372828019309665 0.3824785918244703 -0.8124986808733297
P 8.696819000065588 6.564608195417539 4.550795827197349 0.05792541156187444 0.054978670228724665 -0.8411914208223319
Ni 9.169438731139584 6.71216677482428 2.0101741916411164 -2.088325835139661 1.685904481644677 0.2553455109186828
P 3.8860215608168245 1.8704327754245471 12.678045389710428 -0.9741346806519933 0.48821186689824303 -0.8291393747538044
P 5.76198302885006 4.87523082659768 7.654884002877806 0.5562501985244033 -0.24699816739525202 -0.39642862624665914
P 8.763302456318062 1.293574925485048 5.899995337176932 0.07665744075373895 0.10804186860229135 0.9353272208664923
Ni 5.587040723636523 5.540185981410871 0.6481779845915886 0.5096512677189416 1.595278494525988 -0.3191050126638311
Ni 3.109546368182055 5.748439587224748 5.627195172789598 -0.12013916608645762 1.4576835948569282 -1.476487872047625
Ni 3.308532920445461 4.494020050164661 7.3902442258862155 0.5290844367428889 -0.03961864283288661 1.522697794944784
Ni 5.554508634746132 3.3460556748114807 11.908048785864096 -2.2534603349898865 -1.652031483046316 -0.5062964923140958
Ni 0.17098316762060323 3.1601673003391295 5.100685530908692 -0.3665832607504525 0.016243458442055898 0.5864169519157707
Ni 0.24003152908499492 4.356758196925109 11.96166318967356 -1.1505871766181992 -0.21187149889544798 -1.552261881755146
Ni 7.275471906808587 4.886909725917042 4.957355102661414 0.3472282532626084 -0.7261294121484655 0.22200395934375958
Ni 7.8639993797375665 5.073363956512095 0.5176257007544947 -0.2637239647903652 -0.85371629276222 0.3447563946833482
Ni 0.2392588108059617 2.9568208730319583 0.17659163666626337 0.9287379976847489 -1.1990869239907995 0.9702353455975873
Ni 4.793664057959755 5.485066029261826 12.104029807246269 -1.3119084733699213 1.0554633016291564 -0.7223036106444721
Ni 5.000164437426245 2.087118565099663 9.827261315907773 -0.7808023782113133 -0.8729874822870062 -0.6151557146113599
Ni 5.535900317006149 8.979478047849758 4.309766165017228 -0.08776254952796497 -0.3717972008512242 0.5099523438991281
Ni 0.0423436630048376 6.795254861562583 11.61934991969483 -0.8032360246244812 -0.2642818941763642 0.4073447589385307
Ni 7.674808631827811 1.7991441802940507 1.3688987241134971 -0.7456685106226577 0.578785660622758 -0.6754750803267077
Ni 7.011615979691887 7.511962660778252 3.2444186388444285 1.053035151803638 -0.17238526787536765 0.5006652621702474
Ni 5.516846735431908 0.41033010356042826 12.563837071489525 0.030738823844753516 -0.7808507149507455 -0.5467204046570971
Ni 0.8029377788844462 5.453517231338752 0.34468522752913733 1.7302292717039813 -0.09905509172264876 -0.6409114834192252
Ni 2.5561483565099636 2.559617703885215 6.454650291547812 0.5025300832931281 1.282749849528094 0.41738645944524894
Ni 9.13207367438153 2.904465267187258 10.00731673415136 -1.014022003765234 -0.7922463583821968 0.5021888979036255
Ni 7.377761996399216 2.777156915909323 12.94553671050724 0.6894186869909934 -0.15940942444099 -0.8434007697688248
Ni 1.8366020003509074 6.307431225814692 3.286316110382021 0.7640814659122067 -0.26119785593440176 0.06830675479619848
Ni 0.3833424770395235 2.2531648699579434 2.9039105426604133 1.041445904304142 0.3938181852070056 -0.6075046258240054
Ni 6.871497016849186 3.6303195276649527 9.5619146825793 -1.3564338094758057 0.11534354447002716 0.15863397972754617
Ni 1.916332055672523 3.8254378503682527 1.6403000179548743 -0.8606035068003565 0.20428005970143526 0.2602835716502485
Ni 0.12287148269616346 0.3586971238134073 1.1654623164064863 0.6596008322986123 -1.2578939668266789 1.0873724916329273
P 9.401282043839194 1.761241096402937 11.837611757816616 -1.6754043534443017 -0.7462716914242953 0.3742402630750781
Ni 8.129692020170577 5.633617175965766 9.760381760369407 -0.20037403977880977 -0.7420473689303027 0.1632416537028866
P 0.032588674502660626 7.129017210657607 9.05176477607538 0.7568882905978771 0.35343438207332034 -0.3781105446637617
Ni 4.322704789934341 7.365749149204161 2.5544025512264814 1.321697177325569 -2.8295404237560233 -0.7122845358455733
P 0.35542814516357163 7.578084340165392 0.07028953440238263 -1.2087437303542732 1.1214424367334428 -1.4853329811430807
P 6.0680648095821175 8.940016540538746 9.45703371405309 -0.18162581263702915 0.44254881764348947 0.5042144129740865
P 6.5763613053759435 3.598631584793674 1.5817571000799802 -0.6023577915157432 1.4263763001032146 -0.8460724030637172
Ni 7.3831144387401775 7.271956177783934 13.270660941217681 0.8304439524978408 -0.7135621170064163 1.8931940175963977
Ni 7.999322480032125 0.2277162735358411 12.984868349199925 -0.19219201818864967 1.0230661162453734 -1.2261578120656627
Ni 0.9503878252315874 5.002149572020641 6.535391466826386 0.34301190118841574 0.17742308740959123 -0.14318010706632117
Ni 0.6342152528556845 2.927934381784546 7.520934727038527 0.3253898172312783 -0.6252925459350457 0.9910666805206415
Ni 5.756074006716276 7.415331132414637 7.630432524946189 -0.7913487862685921 -0.12446376160374048 -0.30421138338145026
Ni 7.998450505023372 0.5560900026033695 3.07373045851402 -1.8659038144218767 -0.7874463658903923 2.4022960976800887
Ni 8.570308413157361 8.828468673727526 10.695432101776822 -0.2929031574574827 -0.0866564609479798 -1.2468294814824012
Ni 5.193510981122398 2.045059685422152 0.7982699296886537 0.5879734977696133 -0.9410841779549276 0.3992529830693318
Ni 0.41198778371004696 8.48618137747246 3.6598971054884513 0.6620199832630663 -0.6685287309158616 0.4852833803975384
Ni 4.15530414091353 0.2714671557835279 2.3380822489486515 -0.6547918409457433 1.4554709034763256 -0.6174164856210786
Ni 6.812063571305779 2.5645341587218002 5.968667079648182 1.080011680392482 0.13962272873236597 -1.089636862187072
Ni 1.8903397793477799 7.887960139818513 1.4222014432389811 1.07032684900455 1.5997277885465933 1.2747552613583917
Ni 1.0980020626176106 0.46535079897975334 7.385763758554006 -1.369972724502505 -0.8629676361571589 -1.0698974747766155
Ni 2.4073838542187764 3.888127287699664 12.808057791148487 1.939116491160125 0.8626184803478563 2.3978874270894313
Ni 6.282848951631761 0.6182154390780553 7.295803766640339 -1.130436155591621 -0.9333387296815538 -0.34088019955739357
Ni 3.1717627126895684 5.9695780152424325 9.220850934235452 -1.2492782001332097 -0.5528149475906092 -0.06303496487429788
Ni 6.428672857350878 8.875277034303776 1.306583122876264 -0.06031705172250257 0.3143998938786779 0.15748701060729653
Ni 2.080569476204135 5.729283966021823 11.530218304039478 1.0344093091723345 -0.03234267799676365 -0.6378986647348304
Ni 7.089045505203175 4.95611114682446 11.763522638695243 0.7909296964533024 1.106296325120624 0.05967453304249722
Ni 0.9333193782517417 7.2914271942027895 5.937643321996337 0.5909035269322147 0.5058002694039675 -0.05179178786031081
Ni 3.882450173812889 4.103069127357274 10.335157074250768 -0.6267655309361464 -0.6570502979626167 0.2133077171213423
Ni 3.4598576897836253 2.5248500194936594 3.0234008031151887 -0.4522699015859952 -1.7718032384910263 -0.7655760481798622
Ni 1.3673031953740766 0.7004436100364495 9.496705794052385 0.04461532471652961 0.8779887921563395 1.8127398288043879
Ni 5.546141385194057 6.506306462119533 5.20608226337625 -0.6427683341223059 0.4440164033279514 0.14054138389189344
Ni 2.063120699699195 4.086594365489771 3.9644260285985378 -0.05223041805962617 -0.4024771464335843 1.5903954554020738
P 4.165220537555625 8.384818920869867 6.372713397347661 0.22141363405792838 -0.07167927081285719 -1.6434967061024277
Ni 1.75339332132416 7.668417240540249 10.012856558355905 -0.29438565554028007 0.1439565802210295 1.165149133592774
P 3.884630111334771 5.212110022532502 3.4057516404905024 -0.06581432739164794 1.3394496162129834 -0.6498676641712485
Ni 3.344914686236198 7.550236797864579 12.091811025527871 0.9637278834963724 1.112480856664781 0.19040330171934303
P 4.679082831277661 8.046065906299214 0.3333180128937554 -0.4017999178609016 -0.7116494733647357 0.18474816031609473
P 5.4709196261942905 1.8100345915735825 3.83112795111686 0.6601232804609857 -0.11165786808832383 -0.3337626146760058
P 1.8712769214436589 0.6824957669839465 2.907956877754222 1.4408775790431831 -0.3878591394100933 -0.32923361645740074
Ni 4.308150228352071 1.404696081121771 5.638695038942269 0.39143348702491293 -1.938050768899772 -0.46858817913004464
