# total energy = -340897.3353527612 ev
CRYSTAL
PRIMVEC
8.99807137082117 0.00000000000000 0.00000000000000

0.00000000000000 8.99807137082117 0.00000000000000

0.00000000000000 0.00000000000000 13.16958699019606

PRIMCOORD
 96 1
Ni 6.059661318456313 2.17986382060452 11.169416916776605 0.31391215560898195 -0.8055860129138965 1.5357834244841488
Ni 4.6381009813864615 0.23411992438640852 6.00450223992182 -0.14164515847903347 0.045783119772385666 -0.7456242876482836
Ni 2.7859739215952795 1.4227120902308787 4.853506716520486 -0.19242316036284923 0.6886686961988462 0.6079954494174948
Ni 3.3751496518903057 4.289731642461903 4.847803738759085 0.04177554127488935 -0.039473118393957826 0.1707436185068866
Ni 4.997178025479948 4.5533481452636595 2.729818756537929 0.029670787591555354 -0.09535244606008095 -0.843533181581631
Ni 7.324763187057824 6.012376452353188 2.508542679511292 -0.03811120504942469 -0.7240406479402369 0.24173023412809339
Ni 4.920361488482351 4.545492828782589 11.316362623980583 0.06655146266798861 -0.45086325104645575 0.011673836793502475
Ni 5.615021611798676 7.762519368964007 12.40613346880173 -0.7578653097991657 0.5199925017439496 -0.18301112302032999
Ni 1.7918309821970744 6.421050866943425 0.45017082125204 0.39247221270207244 0.855467728235688 -0.8914660007071679
Ni 2.7040464799456227 1.6396645938678769 0.48933042872697735 0.0248517689363572 -1.1465921965261932 0.6314426246968416
Ni 0.41243020966377475 0.07895807803138237 4.897545978208121 -0.4088066881960379 0.12573080124162217 -0.30516089177891315
Ni 8.50028025510316 2.2620522063297215 1.2298654203313246 0.30094428259440426 0.3009828491418236 1.0647413844969726
Ni 6.839101272110152 0.857814956647451 4.765112360833091 -0.018693205534129096 -0.7979974019333612 -0.19539201318318608
Ni 0.8899146771681522 7.349588866520911 2.592024987928336 0.2525674339529134 0.02059376499095163 0.036346399839518054
Ni 7.842206290792602 3.8539910285875187 3.7377791346398364 -0.554726048570393 -0.6333573252210511 -0.7972738935037753
Ni 7.65331877238408 3.775356881132675 12.625591035563964 -0.2811814981451803 -0.5265102482578095 -0.7402969618980992
Ni 7.827134520911968 8.841217186910463 7.081326659367291 0.1579166419455474 -0.25267439184442286 -0.6137691186764784
Ni 6.670954308671696 0.6659022865769176 0.4012932964809323 0.6277574625357705 0.28141778252570243 -0.5844953094130256
Ni 1.8589565961132126 6.418369441615408 9.0824851793525 -0.39749589116890904 0.28040091122541383 -0.5421721231647824
Ni 0.29870898192681483 4.777211167866823 1.3049498285515948 -1.1079395171510016 -0.45760622619724417 0.7744769502139178
Ni 6.282417578256302 2.049355790545583 6.812192539078488 0.5101410628711666 -0.020678611395274066 1.4475210525016295
Ni 3.3386264793855327 4.4091720444890905 0.45945683111282476 0.6576671056110093 -0.3642877798480565 -0.3715434329692053
Ni 5.926984753148879 5.56019636171945 4.741025423045945 0.7989865053195078 0.40760135503402706 0.18139364202156502
Ni 5.352322912297113 3.050229287478543 9.113143408807602 -0.4564785403507042 -0.34307797853966077 -0.8967156791418815
P 0.09424670143686634 5.464366899493327 12.380044460090142 0.8353817561190904 0.6400740751195944 -0.28668263046906756
P 4.1173555853853 6.125077298774051 12.4648170919704 -0.9180049275379609 0.4246549680822041 0.5816740379141467
P 2.4684589700860613 8.351704097330604 1.4208665857517633 0.3626322465225045 0.7016779639743207 0.017688675529014698
P 6.390511412033053 7.773110099202518 5.668993844693016 -0.11101612073926687 0.046844985377996744 0.8720649704727368
P 4.595729062360846 1.0470066098750566 12.513306799856817 1.1092957740685798 0.07226034012730782 0.245224620434597
P 4.007516125723866 6.0910105998080315 8.122158792530652 -0.4828374899602071 -0.14235786827534191 -0.7482730381250403
P 4.743324430332215 1.0435873426782558 3.809922073263701 0.06097422569052724 0.331453506926855 0.7665145008337315
P 0.26653817664070645 5.513532362554692 3.5062047647007306 0.9232134683220938 -0.06020520873498664 -0.27988849036536956
Ni 1.4732182659562518 0.8382909409537194 2.9058822233441344 -0.38953549867125176 0.7871303773118702 -1.6464658160330807
Ni 1.9313100896118274 6.52342192720132 4.765296821300287 0.4975205458936787 -0.022430818199690405 -0.8164653788305615
Ni 5.92427633360615 5.568492583707476 9.170497116998146 0.1418431334224525 0.4477056792540806 -0.3385482089901073
Ni 8.520822852498677 2.3379059496692722 10.307414257620232 -0.060773165423314686 0.6356826309201181 -0.16725231752417646
Ni 2.3057558399477753 5.20311688951462 6.874537477569205 0.16252971523752655 0.08779186010400364 0.8074598328978416
Ni 0.3804690594452596 -0.018141911900498364 9.163543407288442 0.2738391988474961 0.025565507173930167 0.23065726414338342
Ni 1.3937922882032021 1.0269409102727793 11.465574045606019 0.19187628672044374 0.06387057340171581 -0.6645507201047199
Ni 4.043373440932419 6.708800197697337 1.5546040236973626 0.9301950418462497 0.655912841924064 -0.3360881774853889
Ni 5.557226998101175 7.815877933377237 7.8604390832159625 0.0443759550122139 0.036591168860472464 0.5797354261305371
Ni 5.377571501124015 3.009324054118923 4.848410208782939 -0.45131679364410654 -0.24170040933142245 -0.7082288777189609
Ni 0.745319266258397 7.23793179640223 6.722257713538219 -0.38239143142730275 1.0214031267206538 0.7733706045236165
Ni 5.25817608945468 4.504641583852392 6.9850832858489245 0.07757403903073737 0.4191605206265362 -0.02547166190854323
Ni 7.976511507054301 7.016489255051539 9.105861269485574 0.6207370653538794 0.37945677427901103 -0.7689511352996822
Ni 4.621643508483966 0.29037496803819196 10.26856418380732 -1.1125896143285032 -0.3127572160689323 0.21168997901226122
Ni 8.219783370035094 7.04566100308319 4.720559309258778 -0.2874259363929953 0.35011945876747447 -0.5431342299677356
Ni 7.27968284848948 6.13973515736244 6.8922114897480355 -0.5141784661653338 -0.5602858020463576 -0.207616580273836
Ni 2.4264559719948373 5.162247648441283 2.59032615201582 -0.6756023499331913 0.17019031710657787 0.7380942978198257
Ni 2.2055623130099473 5.280563291522154 11.398211782407577 -0.0161149032839916 -0.3540599314724612 0.3306976025974369
Ni 1.2740459517426166 3.258822582626521 3.841818437366909 -0.42929683772958965 -0.12092823764665625 -0.285335886633186
Ni 3.5724413691457007 2.694229583862177 2.8408909520045253 -0.08069998625422876 -0.28848497378512894 -0.44289900189405657
Ni 1.205255694585931 3.3751136596040237 8.256804135897717 -1.1173644100093272 -0.060901463471062865 -0.4510699677406232
Ni 3.6019280496823205 2.874254001773729 7.0644822693872635 -0.05095129423688644 -0.7988057567672694 0.15776983195503796
Ni 4.147724076935832 6.7771225551323555 5.9735533727549885 -0.09458625731801776 0.43138971570287643 0.3153116070596699
Ni 0.6220294892133377 7.213699989662799 11.022338937920543 0.2943817988855382 0.2947299262535763 0.8579169611071289
P 0.15325425518207422 5.537332261858738 7.842199092335346 0.8951323938151617 -0.5438317702553924 1.0760478106487275
P 8.435413157151224 1.6849248938676324 8.115798055737445 0.0686800789752172 0.42781691074995354 -0.7666944780550214
P 1.6610260157763104 3.2359224904795276 10.41981726787211 0.5983047044922921 -0.30356089428164496 -0.30118879450504255
P 4.034069434928494 6.172839062670413 3.8365770606770764 -0.6983177892528359 0.13101930333407114 -0.584522048885903
P 6.863719995927116 4.085880331031594 10.49946639780011 0.8253146016910753 -0.06662139667397558 -0.9221600873569151
P 6.2789983110595005 7.849539719122582 10.117522554424438 -1.1400474534291398 -0.6562943936331987 -0.20266797801930903
P 2.31827215750238 8.447830495918554 5.7471942850981605 1.023466951228218 0.015238671326625368 0.2408601728183142
P 6.802875035967205 3.9368632677520807 1.7146536225294995 0.8704965975443524 0.5086562507955239 -1.0791292777875285
Ni 5.372073679394423 2.969372616345779 0.4002063294352126 -0.7232952851337802 -0.42810153186990785 -0.2154713004315644
Ni 1.3856040430740215 0.9515190743686144 7.06285001920437 -0.31004753044725314 1.1805333293583282 -0.05426750309431299
Ni 6.704535111772906 0.7952918563396377 9.16073870837991 -0.03639936456464054 0.3095615919497701 -0.429947326829395
Ni 2.6732370828881358 1.582067937744928 9.142959418763702 0.21803160495957288 -0.09072985968640504 0.7017617819373786
Ni 6.246515272689895 2.0113839285179553 2.642595949769017 1.1236844386900842 0.5517014028114563 -0.5655419082389744
Ni 3.948371801290786 6.647019438294093 10.25037728154897 0.5196407748314857 1.5861724184596617 0.8409677348473
Ni 8.196154434090888 7.136271583798406 0.37684553602380805 -0.10609502928856568 -0.07264626271181682 -0.34217552133004947
Ni 7.66201090952121 3.8481242859235345 8.159665454258082 -0.20763637776817787 -0.33605706713713734 -0.21079497800181762
Ni 3.080462807955517 8.426001174288453 12.333278782716636 0.15917031184699038 -0.8921149471450764 0.1579706351119344
Ni 0.1267153428919592 4.91214624913846 10.037319143287696 -0.7300434024908911 -0.6133258604914728 0.4211322996409263
Ni 8.6506020387604 2.276665074560259 5.773810580803782 0.07615658985792045 0.7710288437643174 0.18015205630498007
Ni 3.3898255066218366 2.7067099091304994 11.667806603960791 0.40911007836906965 0.32870576897838877 -1.0922473032267253
Ni 1.0158102957400363 3.2150559625074733 12.52580512126828 0.19925021058701167 0.560276546074977 0.3806315113134025
Ni 3.0045820704012547 8.378563340968629 8.028523060153425 0.7531105687229998 -0.6413547416042309 -0.30771065478396037
Ni 5.817730168139529 7.76460692156837 3.516187225301074 -0.9672726634248374 0.3568698901174306 0.6839607492002157
Ni 3.3713614637591136 8.383260334328446 3.4968017799095286 -0.5402666786119533 -1.1652422075272124 0.8491075903456149
Ni 3.2905677791273433 4.34389103524491 9.298598162911967 0.4023532192612103 -0.38523455730305267 -0.04806985892403334
Ni 7.242781756978745 6.248098933286308 11.283307308259092 0.007374695197516332 -1.4053161369988056 0.41992850914081226
Ni 0.6296013664399369 8.980237392675118 0.5004061550231401 -0.12610206853811187 0.49419662372676826 -0.27254721950895
Ni 4.666345928046349 0.4491891316436954 1.6642410267484598 -0.8820056266252164 -1.0204811291270166 -0.542325360913195
Ni 6.219826992411709 5.5207848082405375 0.21548491816384524 -1.3229318210636183 0.5829295075878026 0.9927533241944451
Ni 7.782810020355547 8.7122748213048 11.344809127443652 0.5792008937833057 0.8112342123386094 0.48301463896801977
Ni 9.18820082281316 4.938735550629369 5.617355711564071 -0.23355901117121067 -1.177939857599539 0.5399591746738637
Ni 7.944127447471972 8.610596612557833 2.4977962826346105 -0.07081358037845224 1.1830609808761883 0.3409323929515677
P 8.416013314845166 1.6805158387980739 3.3542678271965816 0.5184210434917716 -1.1262511709759957 1.5214330692997473
P 1.826122632952356 3.240808443342324 1.5798499131027928 -0.10181568518692143 -0.3757201900547142 0.24148623643808728
P 4.596853821307161 1.0727500926383369 8.02220101506797 0.4554372435703834 0.5431473425938581 0.9712298483003725
P 8.468445077886633 1.5110641549818922 12.36064551759124 -0.9129375403173825 -0.15781739736352177 0.5410657774744811
P 6.2927653605624085 7.617182516956841 1.4352086120280279 -0.17425908785931277 0.3277873709291774 -1.546253213667221
P 1.708562827883409 3.1765982046150367 6.077724947134147 0.4609466034243868 -0.480507813385766 -0.9247682144037236
P 7.110294151174291 4.024351517632323 5.7963300545233425 -0.5180024678971143 -0.29395550998139697 1.371660139507257
P 2.2832426648783146 8.465088797190827 10.187597736201395 0.46703214749683436 -0.3661232903948985 -0.3099140901931824
