# total energy = -340897.06479595794 ev
CRYSTAL
PRIMVEC
9.02089979965149 0.00000000000000 0.00000000000000

0.00000000000000 9.02089979965149 0.00000000000000

0.00000000000000 0.00000000000000 13.20299870331995

PRIMCOORD
 96 1
Ni 6.366635309319724 1.936543611198619 11.283824020582149 1.2462221869157053 0.7652029811111596 0.453644927556651
Ni 4.677435748259945 0.33260237781935925 5.941389193197697 -0.26479662902925366 -0.3576538194713066 -0.15615080829437625
Ni 2.6915027109513234 1.4329609037712678 4.746504267166105 0.023727682634243005 1.0608554191790052 0.5316323999757232
Ni 3.3969911964963115 4.229358636970464 4.7631406104778975 -0.31303978030635765 -0.328290278707525 0.7344183916301351
Ni 4.932375395985016 4.63713938909403 2.8514116903009037 0.20225942972698066 -1.2943491243299192 -1.2689353122425049
Ni 6.933860464455946 5.965304500514633 2.637219446729052 0.7119502924346061 0.48931049927906056 -0.6525734931381857
Ni 4.757171481115891 4.788771692926546 11.266963958956651 2.096889408438957 0.3598469704678835 -0.05729626261830778
Ni 5.517236410124899 7.890039753945582 12.302197903371404 0.6643082650766108 0.0305948420677215 0.7343541140511031
Ni 1.765850146202554 6.5372385653183285 0.5415913664176489 0.9486781882521016 -0.1962358492407201 -0.6325659396680073
Ni 2.6851249348308173 1.5303144538313849 0.3949476201447374 0.9096185032464786 0.7239360040415725 -0.2991766491710202
Ni 0.5175245079849778 -0.17297485054185854 4.491646709628724 0.020194986890636188 0.816510373135884 1.1893252166183452
Ni 8.425141485085874 2.364873972943845 1.3564627718342037 0.8587412567806372 0.15425050594786985 -0.1265419842890079
Ni 6.792430798236291 0.6626752953499068 4.671920370155167 0.5327703702349081 0.08209146728511668 0.0993026889570806
Ni 0.8753249650651715 7.50261015164926 2.5782417062789005 0.9328525340737547 -1.3604722412112376 -0.12487642366112685
Ni 7.384706991967484 3.945687423554004 3.852040561199567 1.1795532248332459 -0.7249726728362029 -0.35956594889235494
Ni 7.882922264045895 3.976457712588016 12.6044936664037 -0.8933670743846226 -0.6004708589056755 -0.601053727992339
Ni 8.023801655381035 8.684095433197967 6.915598555009901 0.1901078819661113 0.6015319531803383 -0.0680928390131795
Ni 6.7414085892722415 0.6125380366509516 0.4210423768403361 0.7764906382098369 0.38458381109293116 -0.652187827663993
Ni 1.9992298435344005 6.4541380368570795 9.2380454322678 -0.6820650748393996 -0.8993171213204706 -0.027417729891320526
Ni -0.09923079929728437 4.831747259317058 1.4724643258494978 0.627270495597023 0.18040479574573448 0.15318504079783296
Ni 6.36127689487053 2.0584881339666565 7.005960005676802 0.5660833825647412 -0.14062468763431912 0.22280588641976468
Ni 3.5143079976945897 4.403092145180971 0.5362491895879973 -0.458461632219004 0.18756788915307698 -0.008648419703617363
Ni 5.7391054393806975 5.500646975491786 4.907779010737247 0.9040672344109462 0.6540616476479381 0.5180706021308884
Ni 5.240204578921582 3.0412610359078522 9.336289345132858 0.414339445088809 -0.6018980782705053 -0.5338301789579903
P 0.3325410357010857 5.6437545290642195 12.386340345753329 -0.08856164839049264 -1.1725184294736517 0.7399367503452031
P 3.940608656996939 6.355783166925144 12.67446968782432 -0.5358999170028255 -1.300435439733315 -0.2560019135557591
P 2.4992041910633036 8.560256521483245 1.3010040843750128 0.3525051853908316 -0.44231433303518014 1.7168569641621336
P 6.408636618537654 7.7304419956372445 5.727988984623556 -1.3172998195888215 0.21491697058999118 0.8135240368140505
P 4.770811081532023 1.0962197371483893 12.426464405734091 -0.7059153990944358 -0.54245520162284 1.0638630956570776
P 4.044222711480863 6.132858692399049 8.181858644012738 -0.06744389257527093 -0.056549357149954224 0.03416276192463794
P 4.711841459891643 1.0161051265031058 3.7126036117338304 0.038765036583339685 0.15331385306621337 0.15332439458917466
P 0.14181756490873787 5.536892950671692 3.605540867276965 0.6374109264651344 -0.32333499158477863 -0.627234757263081
Ni 1.4674387826009352 1.1506789089157101 2.6317933755317617 0.23007516638766828 0.2222965508835139 -0.7887928526159577
Ni 1.8814710182485619 6.494921524609284 4.782191848651727 -0.5740018660808696 -0.39553285390526716 0.5008658082168278
Ni 6.029912184496338 5.72494262677929 9.202753868281032 -0.611836677540456 0.061137490741268896 0.7065100952556412
Ni 8.497678539944417 2.3020614480116173 10.168038853974402 0.7790943943812711 0.010268728915859735 0.3568963724799918
Ni 2.455543036292087 5.086100548558631 7.0651623665306325 -0.04261294957452016 0.07554363886426989 -0.36086281332690756
Ni 0.4567949088041297 9.0703342767278 9.22901460953196 0.3329948832720459 0.17034638306846792 -0.873894824592624
Ni 1.4948081924306602 0.9170195636917339 11.36341181068226 -0.5511982379227927 1.6142270106040326 0.078631019540342
Ni 4.03130478304442 6.824599326730951 1.7544008202447796 0.3658486965772732 0.394380742578695 -0.7054929668450366
Ni 5.706224259806094 7.760490612691567 7.943544514519764 -0.6853064645948326 0.9154489938853265 -0.31404970962811074
Ni 5.327590034762237 2.8678703218876973 4.934039751988174 0.02356133225970781 -0.42194219713673137 -0.5322085841941673
Ni 1.0295733298240615 7.137462171725852 7.230436977049204 -1.1241503225829093 0.9136276244058715 -1.2516729256176315
Ni 5.305840645474345 4.508140522724528 7.190881233752446 -0.7630905627538471 0.15056354401458585 -0.004951687578320505
Ni 7.998074049305104 7.163667885488329 9.019192991887103 0.7842437997926945 0.2483793640134948 0.13998885382253312
Ni 4.6559930695634195 0.504300771047142 10.254359843645014 -0.5266447169531446 -1.307323167992084 0.30234244849351155
Ni 8.084837063063278 7.005107530650793 4.664817313695074 0.3264018034355604 0.34800986862363936 0.07941803421801161
Ni 7.283519559515267 6.065481592195286 6.893390904014906 0.49318849417722804 -0.41565173614232936 0.33214436234629247
Ni 2.3646123668512073 5.118837393737297 2.7256134391613234 -0.7765099214835466 0.39413083135141797 -1.058351421810229
Ni 2.452205303386023 5.134488654796813 11.426323565511693 -1.5176715453747862 0.33373356121028325 0.6162630887429258
Ni 1.0119915962188755 3.4103872326192985 3.751235614896585 -0.5961133532679281 -0.3560481655470836 0.2084653014273765
Ni 3.7045407315407495 2.621518570720932 2.5423168751299556 -0.2945232095594089 -0.04058897716595591 -0.003537580839613262
Ni 1.135595964540199 3.3004765901125834 8.24024190716962 -1.1280756257792444 0.23079019017682187 -0.6927786046021618
Ni 3.753028067676139 2.7770208405445325 6.9459656098252625 -0.8099406903381664 -0.6388749126051707 0.001968693690596609
Ni 4.060225787630478 6.902296336244275 6.068322273525339 0.05728983486040456 0.36220467206678264 -0.07361428305204096
Ni 0.866335638468164 7.31623836289444 11.216581331784601 -0.457673846210386 0.3968644282324971 0.37379314823533044
P 0.19333953171872234 5.419711462969605 8.229772250924274 -0.02791369569113257 0.08953609648861999 -0.4926220801507967
P 8.409427077728134 1.755638487689947 7.964009327683809 0.16573048156301134 -1.05039180064352 0.13172250004868283
P 1.7493328787674098 3.1453802607775585 10.334039646922536 0.2131457376221813 -1.1711778562853572 1.248526666679166
P 3.9448304380781227 6.1876696792564685 3.903308138636711 -0.8613817797272778 0.792446647318461 0.12235751389401507
P 6.857850363195146 4.1302550323596 10.565831665899065 -0.49351965226440175 -0.5664816464444244 0.21282614949923345
P 6.27901531008567 7.784188516324621 10.287591936219744 0.07427608500575596 0.2813805015298638 -1.0729190352117586
P 2.226123513948787 8.464156876487838 5.836676393124696 0.5830968864036021 0.008914014660178196 0.1223881100216344
P 6.665091777420074 3.9905122743924695 1.5550885508041516 1.0287050596987057 0.1586992857478428 -0.09900572654195207
Ni 5.394028961392405 2.982886793650716 0.12299545758846045 -0.17080995296844778 -0.1925442593217458 0.28112647653752876
Ni 1.3664317681436398 1.105457138488415 6.944248932603577 -0.10067848625868467 0.43348002257300183 0.291486222505298
Ni 6.830075012876845 0.7235762916259312 9.192772242711952 0.030080107214832064 -0.37593796249247513 -0.8382431368272854
Ni 2.863269663017177 1.5839707655213011 9.097949055030622 -0.7150258460361364 0.028925681895414695 0.06277836877880155
Ni 6.381600981998536 2.04585887432209 2.536784357315661 -0.6371725852020833 -0.3089812939662679 0.29664051301272776
Ni 4.037466057571019 6.888241774439821 10.329524686599603 0.9780229599628061 1.0480865495491112 0.2840166536011302
Ni 8.23942822201252 7.239515610553698 0.2740621510068942 -0.5504688159559359 -0.3401325227580916 0.3463149974197197
Ni 7.4245974106448225 3.9423226279487014 8.407365802136145 1.2924264533859098 -0.5085955727609176 -0.42712271289640635
Ni 3.174364411661839 8.433512880050271 12.343444163280584 -0.1987143926881997 -0.1761575904336063 -0.02480266086597664
Ni 0.1127332820372754 4.64402233560032 10.341209458040751 0.08527963520511118 0.758515541788655 0.08273398596512203
Ni 8.472582396850713 2.2397631143649193 5.735171425001415 0.6721483299463198 0.5583201936795547 -0.4528322018473685
Ni 3.7790263007444542 2.790083103376913 11.327024207376338 -1.2979939201713582 -1.4581718473472565 0.4778847739406222
Ni 1.1885847296489023 3.155483668493212 12.586616949376817 -0.41892629312854307 0.4362087343580745 -0.29823074031798313
Ni 3.0539985463493724 8.349771867707048 8.006232551035493 0.7935995299759816 0.29564678164089087 -0.3070475672786648
Ni 5.5571448706017295 7.825594446159308 3.588495877206673 0.048772027197380524 0.21202293687164775 -0.010738212353110538
Ni 3.094818117700561 8.299326996326752 3.74017148135797 0.42064558981249495 0.26499331842109203 -0.7879626434051784
Ni 3.207606427226288 4.2550772221466495 9.254232534772235 1.0978584787659156 0.3231082202859532 -0.5260687898450166
Ni 7.384688950167992 6.215111256284163 11.360057840156651 -0.12720070091892932 -0.48624445875922706 0.050987546791460565
Ni 0.6596947900737891 9.045707220420896 0.40365820093959 -0.7254593826646345 0.3080443839742953 -0.28167977793783744
Ni 4.6027697610613165 0.3835939157242719 1.5233358857877872 -0.2110500314354172 -0.7988553790582823 0.11909041310696909
Ni 5.927344554382964 5.497787350272267 0.11294256691138535 0.053854326816294346 0.9099208649782458 0.9942934149880553
Ni 8.050810229220916 8.827663052657451 11.244030125532094 -0.5709558801656942 0.1937655333233566 0.42046664103246945
Ni 0.2755515015549785 4.854678386471693 5.877909121684257 -0.8725457667638973 -0.13688990318223518 -0.0578567631074681
Ni 8.037946426182952 8.731166488073217 2.4855835345366386 -1.188532802624037 0.6759350506822618 -0.20657502638319908
P 8.53344640743778 1.6167797778979363 3.52118733584098 -0.734390109495361 0.17133420090303395 0.4440585694197965
P 1.75542198609604 3.2633916712562883 1.54997911318795 0.3506642755273509 -0.26098856813707305 0.08113013181311189
P 4.76784320551555 1.0085726752150963 8.020016485847563 -0.2244912445419876 0.40639679320296457 0.8942705600354987
P 8.5103889876867 1.5600744020938317 12.470311391040077 -0.35315413182874017 0.3361632536976985 -0.3808906785120602
P 6.397405598353737 7.663732442014693 1.3823410269358953 -0.9077693658528818 0.20316780047386301 -0.1341974439517366
P 1.7498380491531926 3.2511322685013124 5.924581452790728 0.7188215656331427 -1.364010336271483 0.11701476152486301
P 7.060107956402882 3.9954557274533427 5.98880123808335 -0.2988480621870079 0.045800346163566284 0.3410928297888319
P 2.400858342031113 8.444193625349676 10.1679856306659 0.6385710082115067 0.47166810360694894 -0.7677478590202004
