# total energy = -340855.8729694709 ev
CRYSTAL
PRIMVEC
9.44315440002758 0.00000000000000 0.00000000000000

0.00000000000000 9.44315440002758 0.00000000000000

0.00000000000000 0.00000000000000 13.82101099311483

PRIMCOORD
 96 1
Ni 4.56392382564786 2.788176378967653 3.624781327446732 -1.454153984437115 0.014072933153298346 -0.7868627254727804
Ni 6.412421335234081 1.0865388094533854 10.376386610563689 -1.6537955169252743 -2.029704425952027 -3.280156077568048
Ni 7.783472949113128 8.021855943401734 7.491513272983458 -0.3474362555083565 0.5619526482258194 -0.6283588435651952
Ni 1.564938463773424 3.575027234580791 10.955666540976491 1.9827501686896758 -0.8799862822023427 -1.0405041092161627
Ni 6.047443410608245 3.6844356235772975 1.9485552869148224 3.187699464998523 -0.7021811288629842 1.1684329465503684
Ni 7.4171257670727835 -0.20512986974067765 0.9200097227008845 -0.6889679726068199 2.1438194973315916 1.2898725766158043
Ni 7.634318322477551 5.009140234763883 13.01821770138415 0.596480763909676 -1.2048274260190024 -1.4617845043991793
Ni 3.554375055508173 5.21446274485805 10.835576055515904 -0.3578183700736289 0.5331547501575205 -0.43555824525826925
Ni 0.8570777076146242 4.895284119958872 1.328885095720399 -1.239321346030814 -2.0178374993111117 1.452500507994092
Ni 3.399988921233715 0.8564317958411596 1.4569144412387591 0.3899296487858768 0.5993051207323484 1.034634280698947
Ni 3.2566135052028207 7.452462051521681 5.9320745024390655 0.18196802646779628 -2.330160713166419 -1.1551454854128427
Ni 1.2175625792899567 2.715086362496658 2.931505523541092 -1.0262439997527228 -1.5615836733767041 -1.3769995494422995
Ni 9.21524404695968 2.686615251429467 8.242671837219927 -0.3393992441364929 0.05277394926792202 3.387215013431779
Ni 4.590109693306009 0.6633636674491127 4.5784171793015656 -0.6491431273003981 -1.0208287422744224 -1.8078081958307253
Ni 1.4870041090014439 7.51111348463555 1.828879355940421 -1.0202476729599719 0.7425248227873535 -0.7180777454885827
Ni 1.0128916468620037 8.474532444638182 6.0136321956244725 0.7383058996099994 2.2785609867122565 -0.12090432638725628
Ni 1.0397290921863667 8.433558596903342 11.304219042520977 -1.0332165744158142 0.46695218618851836 0.6904905798989335
Ni 4.375306256010695 8.875639878697871 13.629783777315602 -0.9836588180923446 -1.055376398342305 -0.5564893111184028
Ni 0.10307486521781087 5.963540982139925 3.9603277721843058 0.11537388348733034 -0.3057638154702347 -0.027159591133927418
Ni 7.626877116666291 5.915947483042533 10.562694384589896 -0.31472616686984506 0.6157069591291396 1.1520871582024932
Ni 7.053054385286898 6.392146882344775 5.059595954015327 2.8959844143118705 -0.8403452707719528 2.3021832541168865
Ni 9.388138764216459 1.1129985285944357 4.877462054314723 0.30588902819418934 0.32026175197609363 0.9933480203556505
Ni 0.03903988967627768 6.546363039836743 6.469366390314836 -0.013948748870608235 -1.7883624284012878 0.560318455056506
Ni 6.165945557468002 6.970483441614755 3.1698214714321593 0.5235601644905499 1.333096420301446 -2.819957150942963
P 9.653453635375255 6.471337176676269 9.662697539396374 -1.1930345471491324 -2.5628242091065543 1.5381910054843768
P 7.965272561141501 7.438533398512027 12.123639338290248 0.0747450542223745 0.6338052113917471 0.5438204574014828
P 2.456466687937077 8.733898128409805 4.0723330286910855 -0.49655458243598355 1.3278382572263003 0.06765677991702541
P 5.262197891274186 6.039879443787409 9.898262696357467 0.7959124943798744 0.4197942975557931 -0.9282273765969175
P 6.049993062345605 9.134316212184949 8.408482299908677 1.2688959743641373 -0.34064108696339396 0.7578848501831915
P 5.77697257704723 1.4741142029959002 1.9551475531290863 -0.8628635064791269 1.4544344917920113 -0.6792756850197205
P 8.109847257804413 4.8634795753239475 6.295069364602511 -0.1848584606417139 -1.1077772805415245 -0.5784372761444038
P 1.9993707903558715 8.816960116120253 13.359887087553222 0.616009577971223 -0.6344053068695912 -0.3206435607955445
Ni 7.598236028816611 8.386786652254656 9.935303470208563 0.4798840637588381 0.1696169611016111 0.5568577502014151
Ni 3.6059346795303484 3.388930987217238 6.488010954723149 -0.5703169610301145 -0.14730878452271406 0.3068267095171103
Ni 8.394095653901756 7.243815551014363 2.154447219230333 0.9451084686229722 -0.17100792791186678 1.1063318063442493
Ni 8.880616421163015 3.369940803351195 4.624330741198675 -0.5640689232378736 1.7214229862662611 -0.020481407782803433
Ni 3.0960421046766187 3.9506287081122955 12.610387685576955 -1.3072902578716195 0.27690678202922636 1.724278453437185
Ni 7.102281550127118 0.3491710281696606 12.428351050368553 0.07720894238183477 -0.9443610489339865 0.1593636588047191
Ni 2.3481914774905097 1.29051094844221 7.441827170830514 -1.096765245701737 0.19067403888222645 -1.834076385498635
Ni 2.984225711261495 5.652776207974036 1.177573652578106 0.8222408478617581 3.5435254872324715 -2.663875248213309
Ni 2.450838567805719 1.525229998752683 4.95107333291869 -0.7953555934351398 -0.4336507438229112 -0.28171037406545674
Ni 4.025069095688634 1.7954741966037095 13.176247004696659 0.37623595334886817 -0.29096557411513757 -0.8138089150443211
Ni 6.175162076340831 4.221108984827893 4.635608700716933 0.576830079558284 -0.0362011325109054 0.44220814647461915
Ni 2.109496859100671 3.9692694952587746 4.524999142457493 0.35525395178056235 0.9986187818362867 0.7670081526406984
Ni 9.09337069391386 2.185287617782352 12.80135187912795 -0.46682903034709283 -1.8871372698793563 0.2718491650006608
Ni 7.015668936293529 1.1701012843567238 5.092932178323585 0.17887627491635 -0.452305382809621 0.2788199398915392
Ni 2.94909717621342 6.62069955271267 12.51079356713837 -0.37179668663059195 1.1504928171321798 1.0216831198549179
Ni 1.743432971697811 2.4036039085824736 0.3684539498277708 0.29375110728007475 1.0703628444488082 -0.08316258886210838
Ni 4.302348443703858 1.9516450870943196 8.498691811322859 1.8529945625593764 0.04824340838742014 -0.014963306178051649
Ni 0.12223030428905303 6.456653071299991 13.941530639558104 -0.5145219655476817 1.3763444323568037 -2.366199866178164
Ni 1.2668369599030902 4.7244668967103145 8.860401460147582 -0.7476387469751511 0.43587063429236544 -0.7060169576693066
Ni 5.496841396347996 8.08415243418457 5.302361516345818 0.7134433320403648 1.3347792073205078 0.6514159824949749
Ni 3.3211669099309504 5.907873585874225 8.3053772165962 -0.07030912993820794 1.5222079997925593 -1.8368169243582493
Ni 8.828036936445898 3.834827303463224 10.801548592292185 0.7547589029597003 1.3693757143484546 -1.1478916320639068
Ni 1.8796788060186795 1.3305876964916807 11.962803529435726 0.053652238107817274 -0.854350069691477 0.21234843853186658
Ni 4.422314279523952 4.173336065793427 8.983132251629524 2.244551719646347 0.19612503469446868 -0.2460481447771569
P 2.6276899668326963 3.096627580260753 8.9201360230921 -1.6716883380452952 -1.013787776267241 0.47834371585491164
P 0.5286910626817415 4.058044591491827 12.78098016174644 0.268064501147248 2.1101061642395464 1.5378842728772353
P 7.402243355450265 3.1726921904253356 9.24432140855109 -1.6434069746020985 1.0329520079005179 0.018976283992186673
P 7.7942003727192075 8.411867670826615 4.755298796423208 0.5629926594545593 0.7936054435132526 -0.3092386613927126
P 5.162279872633409 3.9029218911599095 12.65628708274219 1.9117661241716302 -0.6562146894351989 0.3595350956544195
P 9.307938052344603 0.9337466796725069 7.119962912767982 0.2669674114283273 -1.381787714859562 -1.0792712026820317
P 4.842232477512612 6.161214537022011 4.601954242099235 -0.9260846192223019 -0.5426647465304848 1.803976737899777
P 9.493769891379838 1.5478935697514413 1.2752385345354216 -1.2509874695148326 -1.1485868583587187 0.412513961844296
Ni 7.194106785290419 6.849252223080565 0.3143493956455269 0.44370298585259066 0.4299486123809756 -1.0477057691709246
Ni 5.53035515196241 7.0409293748025625 11.885475425187964 0.373406454319873 0.23675360684910834 -0.2361961916837416
Ni 1.4605160603966452 1.0525056803369168 9.474731547425423 -0.113371765455637 -0.0014619292575071597 1.5670549809039207
Ni 9.276057962473017 8.998032605245749 13.659125547235327 1.5986746646917305 0.00214172893335115 -0.8506697926264123
Ni 4.247436499804784 -0.07824881181958776 9.606390841565418 -0.9531020283514102 -1.1702304047704233 0.22593903273210764
Ni 4.372558298027095 2.6458208236317025 10.791390590907449 -0.21414538253128926 -0.26274180338275394 1.3425372539993716
Ni 4.89038312273039 0.5442401610178061 6.828228928032841 -0.08508603113706638 -1.192054185513734 -0.12353790735536144
Ni 2.750828702592616 6.6864900106911485 3.6046579650307513 -0.038391712404320974 -1.8986882079417495 0.75951338692555
Ni 7.051751229954469 1.6418529578504597 7.735910612425859 0.3388050621959197 -1.9812887536528005 -0.33297662843960074
Ni 6.95725358204423 2.9587008644241433 0.10639696700004553 -0.12690091029032338 -1.5722894898299824 -0.9746581572556311
Ni 3.8210119683085644 7.943647737146852 2.0001215211452053 0.3056463160557639 0.0004692263269346757 0.5903563961794929
Ni 4.032019257461586 3.38250019894634 0.9739943488199266 -0.06124007775740421 -0.36287341599903317 0.3996412196466859
Ni 6.015383900799584 3.6770982924664493 7.386003962514197 0.6855772017577161 1.2686257514218862 -0.3578191414045773
Ni 4.890600315285795 5.2554554789020544 2.667330441140441 -3.1229991966066604 0.4335805527066081 0.41540516734916205
Ni 7.829385566694779 2.17230328023098 2.812050562383928 0.7203937952162689 -0.3884054988318666 -0.7602145267576327
Ni 0.8478092513915902 3.1003104105480515 6.493235852153821 1.9637908539783537 0.716518885641895 -1.9180344736788453
Ni 7.132008600753822 2.7128766643242788 11.445151514461298 -1.9921282674704657 1.6371327115576129 2.3802213772682363
Ni 5.467218220421701 6.174142215645887 7.08669562348818 0.007012940982723406 -0.1041985835968012 -0.280063325380337
Ni 5.1554052560971195 5.698613280319024 0.21954767815772103 -0.12114292476062363 -0.5381190361413313 -0.7841296428123334
Ni 2.349145236103374 7.144360246948145 9.930783976425229 0.6656928041289633 0.011279172458245092 0.4569696210545098
Ni 0.5922869315351736 8.110319415533553 8.74536967259701 -0.04305029422225489 3.703104090261474 -2.7010665125516256
Ni 0.04081520273784708 9.264216246626166 2.9943355525578577 0.154056901879825 0.011378417040270726 -0.7077069437772198
Ni 6.418172216375017 9.275160862787649 3.091704863776731 0.45430750084131444 -0.12135118411668776 0.727783917032753
Ni 7.588972294170868 5.593492083503117 8.331333615597986 0.12813992490374704 -0.586977452404931 -1.0131593986546228
P 4.683266413265488 0.29526950181094724 11.767651296827253 1.2983420475393963 0.5000461405290098 -1.9387601362619706
P 8.087995798099776 4.713125668056352 2.832367509468857 -0.2683036137412476 -0.447026650909185 0.052505783208199895
P 5.334456910141893 2.3818940961965795 5.718001020993003 0.5592162231312627 0.6933362768778446 -0.3661590287288404
P 2.733443855005652 4.2169728831206195 2.4186355220474 -0.8345489758051499 -2.518804351882178 3.030381890089555
P 3.0862589965288207 8.725031006256541 7.466234892480719 -0.7770966472249521 0.6352733112968414 2.4150909354519112
P 5.746291767807662 8.004235016950199 1.1653296583460269 -0.491904742368798 -0.269048205216756 1.0979268701100058
P 2.399071194382722 5.23266914689372 6.271048812290202 -0.8401408680706306 1.1228030645263956 0.7363145802115835
P 8.988495019117105 1.106114468903563 10.438691600185651 -0.16484962161995478 -0.48318176067350327 1.272268490380796
