# total energy = -340886.21053684544 ev
CRYSTAL
PRIMVEC
9.12521522821234 0.00000000000000 0.00000000000000
0.00000000000000 9.12521522821234 0.00000000000000
0.00000000000000 0.00000000000000 13.35567487738202
PRIMCOORD
 96 1
Ni 6.714625491478014 1.9724700580240073 11.74181524035899 0.20212881768638735 0.6190622487546177 -0.6837519756235192
Ni 4.638511237044762 0.5339492032938875 6.191397503746832 0.09286336108964006 -0.14168346791613662 -0.22815969453251028
Ni 2.868374579882013 1.9440815129430813 4.913058854944569 0.29413291609952574 -0.17983478217487736 0.023125016053237593
Ni 3.4703924148623875 4.874534933129029 5.060037786723409 -1.4375983940712789 -0.3609301762297333 0.5427822459449555
Ni 3.760172754814137 2.9967754856466264 2.82037138431846 -0.0810915652656926 0.05088778798880268 0.9193910092522102
Ni 5.270231648122344 4.793074135334934 3.1748714019082556 0.831601977361684 0.6383411515888877 -0.9211059350607879
Ni 5.60757261069119 3.4025738140776096 0.8008654035623299 1.36971072909037 -0.6299626977172055 0.013737918411382792
Ni 6.255307774779711 8.306053930426406 12.585360188825852 -1.7344697921478902 -0.17539962922165922 -2.36164618536921
Ni 2.6490591531783867 5.549171232189767 11.89991963474235 -0.6463018011968611 -0.2438107708062059 -0.5376022444059129
Ni 1.1548233833579091 7.602235192545739 11.824820937118755 -0.35986316841779964 0.8026672966052046 -0.2399453743135287
Ni 1.117875386240368 0.06677923875176026 4.830761274899134 0.05403636092011339 1.8044984147312018 -0.40129238209686374
Ni 9.051511026135511 2.602794311146791 1.3458515548714476 0.30502873707642303 -0.870863751075784 1.729270507335138
Ni 1.7591498978321682 1.3751425837545284 2.610981454395459 -0.1054756505370119 -0.1633452691602864 0.396354321365298
Ni 2.0567140465123104 6.821901523612816 0.6340008024037556 0.5237817935830528 0.06798151024629583 0.5691694776892327
Ni 7.6203122442350075 4.230632359504664 4.054542165585944 -0.2313514619969306 0.3785041805577546 0.8517375717692945
Ni 8.079264952317676 3.847939076443307 13.101823654387797 -1.4323988521482105 0.9747031515609536 -1.8943471573642343
Ni 8.289774546169134 0.035228806537905416 6.932129562926557 -1.2012340522407894 1.1879301360430317 1.1523800068525636
Ni 7.0159127280376214 0.9532291249433087 0.5919153090211674 0.07408376648929177 1.1215473377424232 -0.6281819516676987
Ni 1.9462806898522755 7.055297157664518 9.52040565638651 -1.6683919266822103 -0.4872469318818125 0.3255127159623878
Ni 0.19985955496880034 5.2257097222304 1.6963574656846692 0.7643812565408126 0.10116519608711609 -0.609065542553222
Ni 6.550307737935025 1.8785807168675785 6.97620344074281 -0.37586700004522366 0.9759938453479191 0.22201964307304342
Ni 4.0668986197466905 5.02014599512078 1.0501845384710622 -1.7006232759120905 0.03525805187134573 0.11289045494384428
Ni 6.187242793179379 6.056496707059319 5.090582620201193 0.20967731945760662 -0.4953263664558372 -0.5276978408080073
Ni 5.125843364992965 3.2575558910862634 9.9072134990676 0.9637332828130111 0.286829440459577 -1.4606498765741036
P 0.5101050154776033 5.868179637038401 12.882163294542396 -1.5852812741039601 -1.2622026215043618 -1.1142698302444034
P 4.037460674895816 6.720575131912846 13.066738113731528 1.4193186219254847 0.17313731555004375 -1.4486729067178856
P 2.500537147476955 8.690125121011782 1.5597958797960205 0.8084324812237561 1.2605882258293903 1.409980118133378
P 6.392815645504389 8.03890412464396 5.939682999798002 0.3649079299305586 0.5395961349074901 0.49883900759478605
P 4.843655204246401 1.7541584050133745 12.908286961163316 1.0300919127439034 -1.1826331493101505 -0.8290247035528109
P 3.7453807806655735 6.7270814104865195 8.535544884812367 2.5108251903314436 -0.24158059592410652 -0.47313414662951414
P 5.0376846591019895 1.4484454389892056 3.969039809895243 -0.23918895576347843 -0.38123572055630467 -0.142336013898471
P 0.01112911269067747 5.9997743681898115 4.08660908499092 0.6588654967944846 -0.09504982721799758 -0.9652808298057891
Ni 0.6538143825819025 7.678877876613466 2.625619212403917 0.021720679506543238 0.5141131601450372 0.10436750507449769
Ni 1.902589158560898 6.912432785505412 4.988050787548092 0.22467739241086465 -0.38052866718695105 0.9919226007630336
Ni 6.019913718557411 6.028491421024808 9.469921314758183 -0.22190908563710815 0.21582894088129925 0.39421696330732103
Ni 8.892367269719132 2.458734535771483 10.102473032957873 0.7538960407387726 0.3137180373203049 1.4601166297784531
Ni 2.5354958476392913 5.467737810041845 7.300132161730189 -1.1900620947843699 -0.14980995367801295 -0.5081687696361442
Ni 0.6195373360092625 0.31764236010462393 9.078386610504635 0.12159338203448092 -0.3553742794085106 0.42450532987821726
Ni 1.7487927783635564 1.5122306945712287 11.781521790089183 -0.10486167110209682 0.032595674547834186 -0.4402096279873515
Ni 4.429105794255595 7.267330662486249 1.839290276959207 -0.7313181554382566 0.520243184302175 0.06105444410915936
Ni 5.653253438937772 8.231747301498736 8.062059358698233 -0.45365701174150896 0.36656372036642676 0.4396015620897074
Ni 7.22760859988989 0.6574151925751309 4.833913124295132 -1.326671490611709 1.1951526219333997 -0.013144507801758009
Ni 0.8488229730489284 7.737626013299741 7.206655280309426 0.9861854411689405 -0.04544064883130239 -0.23007490927735214
Ni 5.054511556282712 4.679154946395595 7.637122716028027 0.426964075831355 0.2209084122867357 -0.15683883550033634
Ni 8.302631974654838 7.418480730220245 9.456378582596628 -0.42002903927441854 0.21433204462079863 -0.04582528586423076
Ni 4.625936690236173 1.009951463812816 10.535571268273655 -0.3720365705555399 -1.2651532194922535 0.0013853103833008401
Ni 8.500065134851212 7.80643013734673 5.051757566277754 -0.9688644333919895 -1.802117316093535 -0.4374667751348917
Ni 7.183825816444604 6.445668893048178 7.290355405960434 0.46775462748515567 -0.5450828690536741 0.46307367706971864
Ni 2.3997673939158273 5.985885790364941 2.902348669303677 -0.11192706258931047 -0.9928507690042578 -0.5090236614372717
Ni 3.2576836441017347 4.900432294408254 9.61153188232259 0.8975777700318606 -0.7350603960895082 0.0030192464422980265
Ni 0.8694286219230009 3.703724172406355 3.8410650516893816 1.0531644782926506 0.43265161313443556 -0.3142911362149555
Ni 0.8004784944297579 0.23626460177058597 0.4000622180362966 0.07078092736830391 -1.1999821821115593 0.880071128606665
Ni 0.7560715462517383 3.8575023021729153 7.787587480086169 0.7769842900168038 -0.7779052591691764 2.1272284257421297
Ni 5.075198419573763 3.421216629121111 5.100238923127787 1.4974899282205887 -2.2517754910882966 0.3111891002508641
Ni 4.3002121268598765 6.842679639057775 6.398009718104859 0.07856365663751631 1.1819731471286483 -0.26008405404493273
Ni 8.171931514611732 7.4844469122806805 0.164782227006383 1.864650658741066 0.5583816430451093 1.2537460060965764
P 0.2959727111159786 6.014666719707674 8.247983797243672 -0.4091476164752244 -1.3572164532781013 1.3611253014142042
P 8.510449629965997 2.151880917823458 8.025505570885576 0.1268127214518913 -1.482178494674499 -0.23261078832532844
P 1.8184911735188485 3.602087523383097 10.622208800758976 -1.2681889209947836 -0.5399267787740314 0.16748114570553094
P 4.126577528402832 6.52958437378241 4.056692978853567 1.3092041870648805 1.5783963740586688 -0.6581139633404408
P 6.766903850452178 4.382165686285076 10.812393802370401 1.1107129661310806 -0.812597154124407 0.19801042464263963
P 6.234557034980924 8.273458661050299 10.274133847325878 2.3812590745041313 0.04916926263579919 0.2038583987829844
P 2.6581113668461076 8.60891982924863 6.294008725773833 -0.2897792671165203 0.7809810698810227 -0.9687605608242733
P 7.409090883583063 4.268730133761453 1.9034642667168804 -1.8277928664827685 -0.6539289787248158 -1.1227956083272277
Ni 3.2911366837245812 2.6930609417930533 0.6281670522043868 -1.0546973699974094 -0.6252704344478587 -0.45427124828674026
Ni 1.2828136544299347 1.5314575233997443 7.011516199262312 0.7146751475649369 -0.4468451310259982 -0.5689576187887427
Ni 7.099481450587001 0.9115040775686591 9.256070067030597 -0.4678757264440523 -0.028008055177151766 0.38610487572314794
Ni 2.4049596414732193 2.1030518902670337 9.238334298396946 0.47890061679964624 -0.33772931263323774 0.27581766273010566
Ni 6.868248492582929 2.195818829930388 2.7267211238052718 -2.0297483918160855 1.6897289975970897 0.43961210361266867
Ni 4.351358959125576 7.46117761303402 10.554923112553025 -1.678596120908722 0.007732849867883457 1.0878463459455523
Ni 7.65727849178333 6.184970614547058 11.617701360784995 -0.14478370410801517 0.1546325718776369 -0.12599382509502172
Ni 7.49284211044026 4.042525169437737 8.791960699730561 -0.3803309493538482 0.446492889892902 -0.9278370831370343
Ni 3.540245938679324 9.00420590954936 12.851604773241528 -0.3665503506299881 -0.4332715061066216 -0.4294091949377378
Ni 0.31099737825700885 4.976983726322072 10.402494602142772 -0.5720838231225501 1.2276819620196726 -0.24407199488739256
Ni 8.547333750575802 2.79586561838634 5.867362017739381 0.3835880228385652 -0.0032537310506072998 -0.3717951439686952
Ni 3.5509315659020064 3.0841859238755536 11.545366690903288 1.10937213583247 0.2446484362161529 1.060741262198644
Ni 1.3626957899614125 3.75826558479745 13.138324515951187 -0.05877490404636329 0.27013166808892186 -1.3646142884040693
Ni 3.1059678130135064 8.917625865920998 8.444540024240984 0.7653472199985076 0.9009412871874548 -0.5093157387563939
Ni 5.898931612905557 8.1202189189918 3.560943752228844 0.34537114544921166 0.23590565702651628 0.36911888268811266
Ni 3.564017124772482 8.7344736678113 4.1229237921603366 -0.6278212258941703 0.19433503267358143 -0.7401172417871253
Ni 3.486854303427476 2.9891285551490965 7.202915767042257 -0.7554950097947764 0.8721397895747303 -0.7359862503378873
Ni 5.137642268493331 4.925773017548637 12.084294611714423 -0.364752635299617 0.25360204586501484 -0.3427648181746161
Ni 8.147941323349194 0.4238133286555941 2.5387398617107375 1.3008714988294694 -3.6455062372423472 -0.896029194597818
Ni 4.590056343319362 0.7854301017287115 1.6350414933874091 -0.06142776828817808 -0.31994730605946836 0.8881629044758639
Ni 6.480554591487387 5.84351417983694 0.4874069547144096 -0.6800907247218482 -0.041625131739954115 0.4145608170709957
Ni 8.482791102116337 -0.011242265361523979 11.287175109070034 -0.9466750417791439 -0.22669827949563537 0.020294231472661822
Ni 9.13625690147031 5.335878447644101 6.244645873117044 -0.40622555773242297 0.4854551300887124 -2.3239589552310815
Ni 7.517954703195872 6.369792727073281 2.5595216272418533 -0.9360754118864266 1.3932831170936715 1.3491251916295346
P 8.80779477347676 1.8725580747096193 3.7759703276987717 1.1899268547580863 0.7315904352630368 1.1647773520756521
P 2.006461485354914 4.124460478432156 1.8600045158964307 1.372606048360294 -1.5156509154003317 0.12631341321796954
P 4.701028087687456 1.6591740380100444 8.182555090369755 0.6020896254560211 -1.2579289338296724 1.9590294280339682
P 8.90009632715518 1.5995407554308565 12.608946133046574 -2.1095657183550443 2.4208232099499982 0.07552898357625057
P 6.362738935576156 8.159575972972524 1.345984783016154 0.9941304070476298 -0.523754282779227 1.4396506486146174
P 1.8213108650746204 3.641554079948512 5.847688965878253 -0.8089305039060972 -0.4337972967031045 0.8468434769017869
P 6.711522918245126 4.142300274521262 6.315644611465532 0.7594293118521759 0.7324689812132482 -0.09474258039022394
P 2.4326911710460046 8.935976674071991 10.591504276011854 0.2819800827870756 0.6420278564118554 -0.023252028549405116
