# total energy = -381177.35842618585 ev
CRYSTAL
PRIMVEC
9.14557661913124 0.00000000000000 0.00000000000000
0.00000000000000 9.14557661913124 0.00000000000000
0.00000000000000 0.00000000000000 13.38547583115780
PRIMCOORD
 96 1
Ni 6.100694016184817 3.7780559607744073 5.4693858421621675 -1.025066434504854 -0.12534102200237124 -0.4553539398279577
Ni 2.3967629532856956 8.80732739387649 9.215725858045555 -0.9066617346109999 1.0295296124825302 0.4533880743508385
Ni 7.365719309091355 6.282617824764113 11.811210300345778 -0.6825057619212439 -0.05057102807933226 -0.05351545541963687
Ni 1.7538655046686524 7.921340520765294 11.307781979441051 0.38905213127692995 -1.1680349397810013 -0.36228360493383416
Ni 4.254558789780968 6.268551928042066 3.50172053643371 -1.101720275714167 -0.19137209339051559 0.42221216296866637
Ni 8.457792604006587 2.344880097561266 4.195744501595135 -0.06310104222554294 1.2756726309663384 0.47869724253958845
Ni 7.242638139985172 0.14450742582946646 12.866882371507373 -0.2779002562907472 0.9324969505065488 0.7688007257647469
Ni 2.905046660776725 2.3570528599390586 8.95992956950354 0.7157308425229609 -1.179681008660362 -0.17067676982469315
Ni 8.836977353026604 0.9104284264204751 1.2231476979193778 0.37961464001311396 0.4407241057299249 -0.25793949689810414
Ni 5.25060353100212 8.841842799747106 5.923769179743537 -1.1448854982477314 -0.631195541683042 0.3556812691259681
Ni 7.200403867512862 0.83370892848014 9.132441665263162 -0.7761502241512827 -0.944719974935302 -1.18860299374034
Ni 0.5509158125429292 5.3539759826596605 12.119731752211766 -1.5885512031044835 0.4576123968448313 0.15672493563029138
Ni 5.249350587015826 4.132401323905557 7.687278694876038 -1.6207020768054152 0.19835340980435517 0.7587723949944675
Ni 8.483427655054633 5.090290719792263 9.614184909628456 0.44089225587667297 -0.008949238773487814 -0.7315297572284305
Ni 3.99342514276887 1.9998540769267128 2.3602346060181225 1.223721691820344 0.19105456215009678 -0.15838098317647561
Ni 1.5036242393184258 4.127261509888789 8.17160556461453 -0.5564407172686546 -0.10976785015446257 -2.04687322442183
Ni 8.458963237804 9.012023688046096 10.906873742460125 0.5748629285295842 0.3966047468132073 -0.6323875051086141
Ni 4.822078396536431 9.045514789343974 9.128292317185924 0.15605979124246672 0.5806342837957226 0.03280470523484673
Ni 6.250727199361137 0.33899176923194835 1.5512964716027833 -0.591414148020046 0.6958716417051887 0.27774419032885717
Ni 2.3149008976556287 0.7205708301907392 1.497192155336231 -0.9071505013219603 -0.5303676743306865 -0.3553485683768977
Ni 6.560286674164677 1.4077603060021084 5.029860408231406 -1.26149145436995 0.09613843229648604 0.22670265037100956
Ni 7.538323775174054 3.9628057525052722 12.020237939565813 -0.4163045392349798 0.2572704958555376 -0.13422032676987208
Ni 3.1730303446190002 5.980795507715352 7.255048687353065 -0.6614018900630932 -0.3777320782784204 1.1467629177761025
Ni 3.172957180006662 0.45994659179204717 3.9833567775534595 -1.9522036633613864 -0.28762905354273693 0.38939048845295515
P 8.752801466531338 8.071611488931714 6.1932993805791146 0.013396218801247898 -0.9589340616521549 1.377082338964093
Ni 5.336764007607065 9.095019795167408 3.618669596468284 0.0803541728790358 -0.005545355298261417 0.1428137248658379
P 1.2763840989720665 1.6974464429792455 10.492325792624019 0.24982458110045364 -0.3447206563494063 -0.28839241407132266
Ni 2.6178938485018026 2.4649340808319486 12.759544397861095 -0.410686421717254 0.8651602729331036 0.27721402885699997
P 6.379981632633366 5.302029107899435 3.848779618733615 0.27595907340397635 0.6488037416831084 0.4604005011129296
P 0.8377942575215823 1.1187692328421852 3.5276354421239517 1.482834125980627 -2.256583711110217 -2.0715018216037873
P 1.9904524242412354 6.154515734136212 2.4800206238961158 1.2645973469887835 -1.0409491671733813 0.2257886231971724
Ni 5.15441035693028 6.247544538724418 6.203659489686224 1.2925956319739222 0.20949682801568437 -0.683211529739017
Ni 3.2134629385124787 7.544112925125326 5.395578295792899 0.47281481561688254 -0.06119636900366235 -0.4472454517882104
Ni 1.770162922067019 6.336476125021677 9.183306618318435 0.192486666610933 0.17449845756362853 1.6317282527125896
Ni 7.175207804138845 5.447846180289758 7.239065877787753 -0.019447824311966504 0.34159496623623103 0.7247088776518552
Ni 4.166935020929257 2.3484743091423876 5.12820370734834 0.82154870689074 -0.3045841933398367 -1.119983335689413
Ni 8.302500714318446 6.652894782231938 3.2848094102342165 -0.6451828571010696 -0.9870657868913647 0.6874139978561388
Ni 8.766364356543559 7.717311853683274 12.827395430228368 1.9562631781427406 -0.9611889191246027 1.5312125172840145
Ni 4.8922341141923615 1.3595356808945964 13.317156601548291 -0.9102121709664196 -0.34907944753873427 -0.5086943031223111
Ni 7.999553491354985 4.036089257338667 2.6956742333210437 -1.2850121631997093 0.7299194753185172 -1.4253684276639904
Ni 0.0682790453494526 5.886559487023563 1.3002686866699196 -0.4808330579356688 -0.6253593946172391 -0.9079048629894815
Ni 1.0164119401808398 8.08719555135978 4.641748661948456 0.5099770264894766 -1.374851135640729 -2.305559883898604
Ni 6.8955543646286035 2.576436950035588 0.5014318415455433 0.32762924808475835 0.07195309329953414 0.3988164097525454
Ni 6.606892532224203 7.9685682780296965 7.650722910878837 -0.05502135054120201 -0.9563069084419531 -0.5621562795961932
Ni 3.9065421656170844 5.9320038568622175 0.9747227440704505 0.547184231667393 -1.5697674947390774 0.10570936381437278
Ni 4.592606735513752 3.2173955364256646 11.491993096713577 0.21644703408127236 -0.06578270282276413 0.4286787445296166
Ni 1.2385214120869725 5.8516782580912565 5.522459451952403 0.6143213916355226 -0.08842949368800253 -0.1672327771401507
Ni 8.85194866182634 2.09902870895134 12.085251099532014 0.2000701353851458 0.11670751469708933 0.3214686278000012
Ni 7.233675474973725 7.220597300518246 5.240146478783663 -2.177991258117294 -0.518285803465488 -0.5168799242568969
Ni 5.413367356725312 1.6789266504811018 7.175551677816835 -0.8488713059650929 -0.17013709527113924 0.3907035508374239
Ni 7.271126610914417 2.9867715327586573 7.733980581489258 1.6007955676894752 0.4349964592175283 -1.1446137326435837
Ni 6.016234616816739 7.048130018083681 2.3517475109868737 1.7731787786823139 -0.3141777505655428 0.5581826396604257
Ni 3.969646643758908 8.096112488488517 1.8287906404913894 -0.9308663568816613 1.314245349033214 -0.03748616987091608
Ni 6.612370732573036 7.447791712981894 9.867023518716694 0.7206380500165911 0.011317224785032122 0.8011578019392137
Ni 7.045459509733331 5.203366628161176 0.7093135400248306 -1.011113571869188 0.1908653289574261 -0.5767249214389875
Ni 0.1941477861857255 6.22593354135498 7.505731684050284 -0.6953671912649443 -1.1286055301407854 -0.5917296223779357
P 5.568915322556635 2.417185025704636 9.244196952379369 -0.10857357273604527 0.13577995794750808 1.3467741748988546
Ni 8.967923717959158 8.189232748842146 8.666105059141016 -0.8843517582598899 0.35483820439938246 0.87022380349894
P 4.260247338390275 3.44370282796471 0.44958190989666624 -0.254178230083459 0.7456903649995287 -0.028729506724208584
Ni 1.8657982159697788 4.554350788837339 0.6542983243346657 0.2686414566966406 -0.8177211056145336 -0.6478220944961295
P 8.968234667561596 3.7239964578329126 0.3168338663852804 -0.306648274957717 0.1522949248833958 0.8578521693074646
P 3.527759821964927 8.209133523398176 7.558577568984617 2.4050800881831287 -0.5501289161180138 -0.8481961342749392
P 9.123791778969462 2.984512575352711 6.38366729997991 0.36798965417967594 -0.39518498364754523 0.691487396594564
Ni 1.0546770324337946 2.7585528157222723 2.191644133479835 -0.45185595397702827 -0.2949564404420856 -0.9581053951032724
Ni 1.2260377001067424 0.57126654946484 12.651322961520831 0.7833493130028831 -1.0667188199383177 0.3636624875592318
Ni 1.5842150598091134 3.9198672706392057 10.427754364004814 -1.614636844447942 -1.2838487390192277 0.8705063677363654
Ni 2.98187864930853 0.9701261773002939 6.64737451223101 -0.41047661969929305 0.31754563859651114 0.03190764734187408
Ni 0.8189223603265604 7.861793671898422 2.20858997225505 1.107164329547874 3.1165989495072712 0.5651079060253494
Ni 8.184248409626596 4.606828107037018 5.259461021883332 1.0068493972761952 1.031501134386604 -0.08348577652948203
Ni 2.7078771761014258 5.180584996994324 11.927288701493525 2.5892816319671343 0.8849765363280823 -0.05261942596792874
Ni 1.7592613948286053 2.7775756149302424 4.85184633362394 0.9082108242656746 0.6811644174020011 0.10469634916882613
Ni 2.899193491789657 4.085960086223793 2.6599616714810432 1.285816661378876 0.6103914604534971 1.3082752474927082
Ni 6.383603280944115 2.379029680370189 3.026657221174906 -0.023348444917953334 -1.794071562970923 -0.33562409336477683
Ni 3.6369854426095345 4.482064151847053 9.679478838794505 1.1239816582155286 1.5222293399487978 -0.5975228320209451
Ni 7.770703729537182 0.09562340465325506 3.30223722089321 1.4249061433155912 -0.4371782973601955 1.5134315391515094
Ni 5.388143856621668 8.687675815973668 11.654827343376143 -0.5141514695821403 -0.3526082866275992 -1.1614706562999224
Ni 7.740029465814331 0.6520567435241498 6.723122749942553 -0.9265821276840106 0.6244139999848343 1.034490556032231
Ni 6.254559195932357 4.595716231538131 10.260877772510552 -1.2414011113779782 -0.1183674188980155 -1.666497280762659
Ni 1.9791027637522496 7.135012995235466 0.2554011996353885 0.493616325743266 0.44396678103693865 -0.6466411868141508
Ni 5.618200834543053 7.513530117167897 0.19214307580765486 0.391357639481655 -0.1767792831780052 -0.6847145966471047
Ni 0.42071206842560926 1.4026204919853396 8.057347133198698 0.7744700082353824 0.9115347464325849 1.1553393465912039
Ni 3.571420804377835 4.745968908551466 5.157918600091905 -0.6333241579902706 -0.3896902790815611 0.05389315047402977
Ni 5.113739978046703 5.68610674036958 12.219775214007912 0.07192172584096646 -1.2978591943657067 0.2680215637244545
Ni 3.4557109699647413 0.9013724765282963 11.097603826691994 -0.6595663795162512 0.1121314652906327 -0.2508746196315228
Ni 8.11742168183206 2.8284433116584773 9.825554731000976 1.411407080387892 -0.11159050518549814 1.4265868734521236
Ni 0.7836506152758983 4.561950762943985 3.648411925941476 1.144796795188667 1.7052286358945856 -0.045610341639947254
Ni 1.495521258501954 8.175093687507761 7.067651251213206 0.45304946006449714 0.006076802321699212 -0.05572171904233629
Ni 4.215187082766396 6.886829484607255 10.453775358382945 -1.1021396226397728 0.3293745129106392 -0.5325371711781797
P 3.483815326679208 8.653242720291933 12.865932146104628 -0.19681666144485457 -0.016848953236538726 0.6897557586154379
Ni 0.6154634626631262 0.8820817119276372 5.6082595928415815 0.42723866964898033 1.1403338743213072 1.8424345276553429
P 3.3020927207838424 3.379180785458831 6.856482632524618 -0.7762556393808954 -0.275622516000164 0.4086436802556123
Ni 5.339123566354977 4.139397689960412 2.2944047460666956 -0.4946527374275804 1.37636063030672 -0.7916274938512754
P 5.330855965160744 6.075269313397241 8.789880377506757 0.009054654003100536 -0.2661685696761158 -1.029573064125956
P 7.922218496113354 8.049415174663567 1.4612390648331677 -0.7476102077300609 -1.1704546049660873 -0.4746611247970019
P 9.094535079610667 6.848555246777758 10.50812020331256 0.3114161286600056 1.4128777513961472 0.39555753649561554
Ni 6.57182839176105 1.6199559729363953 11.303900596756502 -0.9016226295251956 1.2258798758139275 -0.5355769864457679
