# total energy = -381167.3380177542 ev
CRYSTAL
PRIMVEC
9.34807917595340 0.00000000000000 0.00000000000000

0.00000000000000 9.34807917595340 0.00000000000000

0.00000000000000 0.00000000000000 13.68185879232881

PRIMCOORD
 96 1
Ni 8.214493461432694 6.24383429632376 2.940984146218889 0.19671484575966766 0.31486886309529644 2.1755487101140725
Ni 3.2223856261538453 2.7551966869024413 10.307912533481687 0.7853509168139442 -1.4277502976326055 -0.5173555783417348
Ni 3.2734074407972646 6.371014909776255 10.508255886455386 1.1389269666714512 1.556272545576436 -1.4710397044488601
Ni 1.1506737281216124 5.744375788704989 11.405333995334026 -0.40147055954594085 0.024490014721564278 -0.1792388004620913
Ni 2.320239923702798 3.4393825816902486 4.3860485099088455 -1.456739485776104 -0.2953148522227688 -1.0207562371652743
Ni 5.38577413397135 6.158841562952933 13.53380742845509 -0.03345905098939399 -0.434846049682593 1.0878967395675134
Ni 0.33993073674402785 8.050378588241072 4.302055086172571 0.5308055331990537 -1.1806932519749602 -1.7540250885719986
Ni 5.489593898249439 5.217742415720075 9.29191096924409 -0.013068403148183945 0.5010347296945242 -1.5106236373890694
Ni 8.382375610421548 6.180931073396758 12.961016046279115 0.4661042363659263 -0.6022685742360466 -0.20488401183402133
Ni 7.253249204167485 7.00402007257932 1.1551336965654335 -1.5877850143624204 0.7870689279463156 -1.129902394575338
Ni 4.817597898348956 1.2171385691100167 4.216448184017929 0.06295654622787866 -0.5936584639695325 -0.2741194490920763
Ni 4.900870585201939 4.373723067877452 11.320930190933982 -1.2068010048056055 -1.1466924695494831 1.1022031288878567
Ni 6.707499009829365 8.394518764914366 12.74853701727572 0.30991280464160176 -0.6434375922751887 0.3292019918885169
Ni 5.871892932997932 1.410438144631567 7.80257223426169 1.2308140798907512 -0.8905987676108662 -0.8006376677696856
Ni 1.373382359866724 5.829770489468572 0.30448562597388257 1.2686350073932666 0.7603423105847487 -1.8039723670244026
Ni 5.467513735884515 8.470051242437053 2.026338192660993 1.1483752565685448 -0.36400521561063115 -0.1876892452222897
Ni 4.961492876877018 8.854874258488904 6.212206940976914 -0.15749343836519972 1.2232884609376675 0.09493412757573973
Ni 7.180838984997839 3.9134236627763226 12.182682844452415 -0.5986379194619948 1.0179025697665631 1.6334753173106835
Ni 8.27100259839119 2.6279599849765383 0.5838912910634065 -1.7461140612550379 0.1209331227426627 0.6944333665967654
Ni 1.54162908393273 7.8095159872695925 12.520104556819328 -0.14528275523162076 1.028229662724184 0.06582178359081567
Ni 0.17596356319904763 1.327492640540131 6.987174834399137 0.10799250342159465 -0.43174684193197904 0.7807468423830296
Ni 7.618946050787228 0.1772582721268808 10.368947075436315 -1.2028466481435476 1.0651226790957915 -0.4339384502666591
Ni 3.43500768076443 9.076405032292449 2.887542113947917 -0.4056195487173079 0.3295616892207808 -0.1402161393419908
Ni 4.202840185561273 3.02523464212495 5.569296553770007 -0.25917774018057943 -0.8703888683218945 1.9122163243351715
P 3.5273293079938925 3.29358994314522 0.5777701689988205 -0.2395453106616326 0.0407373298183621 0.7476287196728221
Ni 6.436301892823092 8.638185789556244 8.22639543548986 0.6857582074202706 -1.8901068940306416 0.37136834084392173
P 7.148158101158814 6.629760385685966 9.364369798424024 0.6686670562659388 0.9822850776732696 -0.03145796139896518
Ni 8.523484861437014 2.3299058372867654 11.549294410414396 -0.14625848888132875 -2.4636716725740926 0.03021637568238022
P 0.881958526063641 3.976280145308816 8.367345769164002 -0.6012085084026485 0.19103939264144518 -0.5660656419529283
P 7.3613503885823794 4.77648504734094 0.8280490898476032 -0.31410061747070417 0.07253210573145573 -0.22305914008115132
P 6.720530231817809 5.575119472117641 4.59520242724704 0.1666941310278613 -0.8952969444174839 -1.1943350111281108
Ni 1.8200990063242313 8.014855888416047 9.768299352942288 -0.7608501034591025 0.20430448518146752 -0.2021668700131744
Ni 6.351888740344148 6.072942065928679 11.45610715107867 1.2374164156986174 1.4109075150436539 -1.0095472558233323
Ni 5.4045544244841075 8.128752881749762 10.57719890316053 -0.39537036018547395 0.7806152019011717 -0.6012882126006484
Ni 4.09214023521181 8.166584557063416 12.973534993543765 0.4809346165105394 0.16802030603845255 -0.7414205339795811
Ni 8.641270655593681 7.647766178040007 10.902033427286813 0.9185862539627276 -1.8458651506034467 0.6827505309421983
Ni 9.37621661881567 3.489647201942661 5.493512612924874 0.8629182709764622 -0.06928146000464197 -0.1932646824275381
Ni 8.960273848101316 8.038160649117044 8.468235845514418 -0.40753836300657553 1.211360856262146 0.4253568792452352
Ni 7.909961095064305 4.163699779201434 8.563119781170732 1.0469220969273645 0.897920240972944 -3.266885071490754
Ni 1.9406050914411823 8.88906018303104 7.444135105716714 -0.3171977683387892 0.4038956240476657 -0.3235419653892621
Ni 8.051089042237574 1.8081989018828475 8.741339035808668 1.0096660407893836 -0.5643309186500087 -0.241577510600313
Ni 0.6011628016414904 4.759929599606697 2.03804946590857 -1.2137576386290967 -1.800583910168144 0.9420300868079647
Ni 6.68668083811612 3.171634905798564 9.962842222957713 -2.607360600956032 -1.6031550690605876 1.81479182623741
Ni 5.056516098908962 3.523973347668318 2.5338668967952747 -0.6105063887648067 -0.08506803341493736 0.21569215819311885
Ni 6.738749637596487 1.7569714295035994 2.711114886035364 -0.24185338996951894 -0.7610298235700764 -0.5104786487162435
Ni 5.020208160456225 1.3395797065595414 1.1644228825696779 -1.7260563712732147 -0.8565265085175056 -0.02614837626059368
Ni 0.7674062323989427 3.240539595380214 10.460533008856244 1.6841052236524092 2.147694921126598 -1.2685527320921055
Ni 1.2264586037746354 2.5561293466987745 0.9506089478991746 0.9988553233271249 -0.6598926525074184 0.8306920639529048
Ni 3.224264590013011 7.2560910201534865 1.4024455371709363 0.18782731346205073 0.22729966052506018 -0.34535777571277293
Ni 7.6050080651453555 2.4158240304688223 6.340364428674598 -0.8379819127460987 0.8594359688548167 1.5114062811913647
Ni 4.1085180694469265 5.011037695054028 4.504272728965983 0.9904992380529459 1.6734107200530406 -0.3341534223565213
Ni 0.6914297211284425 5.4091723754613605 4.390836595922103 0.5031047248496755 0.8767387217993222 0.7095170004027652
Ni 5.650072368748447 5.897899288501412 2.499648253976983 -0.4048502746514512 -0.10378360754656965 0.6589454581028006
Ni 0.2593942325854625 5.927682267881026 8.902580309546023 1.131281791421368 0.3299856641320768 0.06945192414423522
Ni 6.521191797326003 1.3746069582027975 12.197608922034158 -0.013681097031518374 0.498541016738393 0.40527167845958584
Ni 3.0063982631387844 5.0384556104716065 2.264251474739106 1.011532147463845 -1.3155044182512956 0.05575642893501365
P 2.96629500465211 0.29473184044824247 0.408338108528127 -0.2026355821194768 0.24671380338561383 0.4682405659826388
Ni 4.268454351369657 1.9334444630027692 12.449779894052567 -1.5577277899657236 -0.1717710313301364 -0.05938039884084613
P 5.196054872669006 1.1399888739374007 10.414411457172896 -0.7224110827566138 -0.23690247372214684 -0.4704771686226414
Ni 6.955905510474213 8.255148256574547 4.321359803911692 0.22540244350234728 0.32942336387070364 -0.4555799397958348
P 3.5271049541002606 6.015890740393907 12.436180308866925 -0.5488045408796354 -0.2151144313127779 2.5760479068856794
P 0.3554747223411472 0.32587776973166943 11.141410618520872 -0.16135240709997373 -1.2435587811509292 0.6954846906794151
P 1.6427192091716334 6.646867370075386 2.783026852599569 -1.3161816468239784 0.7704135787778216 -0.2137718012419544
Ni 6.297492269217352 3.1952107607877003 4.693274057808706 -0.05806219425005485 0.8478570057679656 -0.713071807633559
Ni 1.2848747488290009 0.5094310381907009 2.9570600375054936 -1.2946381163252478 0.397050061880742 -0.8374831187328091
Ni 1.4062128129681695 1.2314691740657442 9.542604009988201 -0.6376214998140438 -1.2993542908539946 -0.4820599883642343
Ni 8.555558120147452 8.329549616550173 6.234193622552825 0.7952830883259916 -0.750499613462714 0.5985839262956079
Ni 4.538127731515013 2.9350537249638897 8.273706997617342 -0.864903419727291 2.59627914633089 0.5343330867363377
Ni 1.3877223129013532 0.6022453091782635 5.247854447477015 1.2785422392046497 0.37314420179742186 0.2991987606582073
Ni 9.063813170012367 0.47042991820649255 13.448678213132306 -0.02556807827709145 -0.5904841800066088 -0.5408433770510298
Ni 2.903045902805761 0.2831290049159208 11.243669253622441 0.9337207956113209 -0.5642807821383636 -0.2744115264111984
Ni 1.221550862351441 6.787985969169753 6.650915088239659 -0.0785986236405098 0.1917914403161213 -0.29774583026176465
Ni 8.426246144705456 4.909311900449834 10.620323460748113 -0.34912289918216005 0.8413238326351382 0.9728499004022987
Ni 7.701274581671177 3.900841148575142 2.9628745425821164 0.5347442061318274 0.322499897277993 -0.6063499433942718
Ni 9.32383933273156 7.720774674259337 1.1974337535939186 2.9032968888128834 -0.9508019194633239 -0.5131945049855097
Ni 0.3096644616852154 3.8509878437943885 12.957828351373763 -0.10801615757067848 1.882129275141804 -0.8559153572960679
Ni 6.155822133467806 6.697234819195712 6.214683247077875 -0.3603444789295923 1.0072705439740137 0.8818901840932748
Ni 2.6027949565741775 3.976878422358501 12.112836803325402 0.29262085033037344 0.7308833818936832 1.5694121682821873
Ni 2.8964835514170324 4.7782518342532905 9.056241226102296 -0.4114294705308656 -0.9131532558726145 -1.019228230556522
Ni 8.452906865732029 5.7710365097315615 6.67926407231581 -0.4922523555162039 -0.5782709257698686 -0.7509670400174357
Ni 4.624737682535768 7.602119508764847 4.24550762209058 -0.5724918571942463 -0.9325450301356649 -0.0790303118612897
Ni 1.485755616339524 1.8510504955665108 12.290865357153752 0.6026760940871104 -0.6171226085297435 0.5457680680461569
Ni 2.2707138016835904 2.4904777885747853 7.856451756625243 0.463992332229246 0.09855604059904316 -1.4542791971610696
Ni 8.339365099396563 9.255224433595851 2.412070776789941 -1.490234532209756 0.06274211622422741 -0.6661093228410916
Ni 5.933281767142918 4.38149132144445 6.77354599169088 0.1463847300465479 -0.17831268910339615 0.3175582370020015
Ni 4.152528824914354 7.436032190925047 7.956493027411419 -0.3825986623421024 -0.6806926199719051 0.6853252336479101
Ni 2.606721149712733 4.767174360755223 6.415683769998335 -0.22850730767991612 0.21471488188151408 0.4319684710244819
Ni 5.702991843408834 3.2450734136473556 0.06538046383585089 0.21791899064110856 1.6489461592527732 0.7500663825800373
P 0.28547069868070213 2.632531195559285 3.1414097622869175 1.291139102033054 0.802467778999889 -0.25821254805383276
Ni 8.421628193728202 1.2609997553150227 4.25999714438763 0.5024151549818185 -0.07892823906578665 1.2496366119138929
P 7.033597394223106 0.7015779955837185 0.642264434954826 0.10771251028733062 -0.7457307313191608 0.315821713926869
Ni 2.9731845388023848 2.05833479712444 2.5087467391716403 1.0146385543033105 0.6728065323556089 -0.16665016516380332
P 3.353034376878731 1.1717910383597003 6.310989960342971 -0.036921298506381574 -0.8006888327225953 -0.03971223098795741
P 3.26206822108996 7.0320456131254865 5.9815440288946675 0.8511557311238954 -0.6277831735673833 0.02350322532826275
P 7.17441685479263 0.42074113961440196 5.93520373216503 -2.312994228689462 0.1305259086374204 0.7097697398435195
Ni 3.640796289698147 0.5290863088886221 8.74311797522359 1.2730300511371688 0.09811509640688264 0.2893594059702823
