# total energy = -340853.2488555865 ev
CRYSTAL
PRIMVEC
9.38396833579240 0.00000000000000 0.00000000000000
0.00000000000000 9.38396833579240 0.00000000000000
0.00000000000000 0.00000000000000 13.73438620548391
PRIMCOORD
 96 1
Ni 0.9577841012376831 6.648381962623962 7.102696462054832 -0.3621159690077183 -1.4416661363827492 0.8392317259927997
Ni 3.1855475427160127 6.254564967967154 10.005225399784774 1.1194578022032462 1.0116018243595157 1.7122716587842963
Ni 7.797054745571295 5.777437103375321 5.56941704926723 1.0317433323043972 0.34397452221200114 0.7873664045820763
Ni 7.224848514885559 0.836574198817124 12.331322505935566 1.013425507831816 -0.7183541390784209 -0.6503854843479315
Ni 0.7448402789999558 1.9272137070472701 6.817420074312919 0.9559384693589408 0.23462859008630557 -0.8081476029934855
Ni 3.8146863086456975 3.472124548454433 12.302727677948855 -0.6553333152715101 1.2840351439984208 -0.9848803492042715
Ni 8.139813569095363 0.4932204317073511 5.73825434403609 -0.4921489971691202 0.7113355416687427 0.12248195528702133
Ni 2.1688602729063375 5.4035704251728784 11.866523298802692 2.8083954142472924 -1.1774927427597914 2.3176679800160476
Ni 4.921534745197398 8.538125484533753 4.16043392605063 -1.4753457880233816 -1.607449582670883 0.41854679830193725
Ni 0.03217293507233943 8.66568176466743 7.5722064212385485 -0.4284843691306233 -0.7361253470189129 -0.4401384084297839
Ni 4.299189972265344 3.9998132338628802 3.2041634588882473 0.1907205758494457 0.3917206792480286 1.8971465744862421
Ni 4.488774282391193 6.021833171925419 4.115000505474215 0.14551209763360748 1.8075744825533642 0.2972940874363267
Ni 0.1745483778328902 2.0619768747806426 1.5546635995873237 0.9801870574936603 0.4088000033278186 -0.20648015267654762
Ni 7.084220367009206 2.0197020979100317 0.7364528881970808 0.5243065557382711 -2.410145161410862 3.4418825801779884
Ni 3.920950364868294 1.2515398426711126 3.560722346089546 1.1940712159437628 0.46036604833056843 0.6076442367256633
Ni 8.28200883966592 3.3055121925526136 5.998698875051031 0.9488291120076692 0.26989024150207713 -0.3628261077008655
Ni 6.287324401053792 3.948895822253572 7.180103877577136 -1.0367451563943628 0.6677093203383598 1.28354174930177
Ni 3.004605867328861 8.202348333371889 7.895665237306505 -0.7086119720899925 -1.877747086913708 0.6958541582036919
Ni 1.7610330136839745 4.819315179281403 2.3212484097669863 1.1336952859588667 -1.0426247551035914 -1.3328166842774982
Ni 8.762195877900334 1.1535899822992068 8.320813425085532 -0.6905535719263849 2.5273936362130858 0.6481565950174127
Ni 2.9276760957894012 2.135443962043686 5.41171852478592 -0.8136441073316826 -0.704849933944399 1.0892697086556402
Ni 5.651720081014483 6.286949042324641 7.060723848961188 0.6143825838907612 0.872061370928311 -0.5680435916149055
Ni 2.904338166804449 7.407113329792967 0.25333992866893823 -0.22392765872903372 -0.6731706005632472 0.8676714693907315
Ni 6.921971556333765 7.223065560922093 1.6262060349666467 -0.16853426956039363 -0.4946169990936385 -0.5119837725068601
P 0.8944075950110362 2.2329246240041534 9.649683734739474 1.5766557372184782 -0.1484799220126798 -0.3118398464609855
P 7.66818470988559 7.59575924309594 7.028668213491707 -0.6929233577101421 -1.349225978873457 -0.4381254917648132
P 1.637033257509002 8.561876308120771 6.159102797572695 -0.8317192196658385 0.8937748513460027 1.8383996954643371
P 3.880899588467902 7.609516140519317 6.184141101600701 3.114830801863255 -1.3109497090010775 -2.9875861350802673
P 3.2054227874245487 7.95086736880907 2.3881898855237433 0.23503816681989845 -0.7813551653909898 0.36207765957061516
P 4.620478276481986 3.8578900983709565 8.850795552329092 0.38166020968823305 0.39390071761848294 0.9704942556859284
P 3.995027410066208 3.73651785330004 6.374073556947836 1.2185874559175724 0.9873447515843641 -1.502257524812561
P 6.496258453667365 1.0487898251202987 7.1600925653292835 0.24396503699588307 -0.6363336342405558 1.9236345934744419
Ni 0.13589675109540766 3.957416465405296 8.342046529996772 0.48099298055230066 -1.9525196519399082 -1.1540257699861027
Ni 8.55096275307071 3.077341005070061 3.289852226372442 -1.0673641668318004 -0.038441848915966054 1.7450727644747173
Ni 1.4534453030813372 6.538308015300485 3.5530997486973157 2.9999420855424592 1.1836068260773294 1.9266702949769723
Ni 2.6169541397983545 0.9607306672615169 8.022186465744548 -0.4287286239309455 1.5056837768852906 -0.3722818537971266
Ni 1.3202867939150849 -0.3727518627768649 9.35001327813145 0.6015877461189381 2.1599811946931187 2.3117361879126443
Ni 0.13537781765235665 -0.20699344798386396 11.498551629441563 1.155251671973404 3.1029764736278302 0.8532234122862015
Ni 2.7544105064133837 3.7661993448076405 10.206214984895869 0.527391108200866 -1.0078197316092645 -1.0161884152889338
Ni 1.3241342208888809 3.9358427224473527 0.289608965873136 1.6459839913006555 0.02472398510924129 -0.46869102325649603
Ni 8.863702262230943 6.418793795938865 2.9800592832360433 -2.469196459047064 -0.035213314676339355 -0.30948625862714446
Ni 4.745022302814227 1.7578612324226501 1.2956444933463336 1.3651791597686036 -0.6759247662696166 1.4083456678537487
Ni 4.887508476399877 0.7458518707750171 8.780461772057635 0.5365390932487211 1.1247907843803855 0.14880825188637598
Ni 2.729186399814449 5.795313562851129 5.879003545102595 0.6126995397613835 -0.9336781152988436 -2.748349356797989
Ni 9.006122748038992 4.589220278311951 1.458056585068955 -2.028724835647577 -0.05504706157281488 0.1387043306831547
Ni 4.707655341327262 5.447872139180904 1.5181027209712115 -0.025966342156774635 1.2871988864383832 -1.713444081825843
Ni 6.24268486418953 4.424315804627769 4.880857119719325 -1.4503718916868635 0.21935983685269317 -1.2802283686578209
Ni 2.5632496896251014 3.1722129238629297 7.787644502231482 -0.09090083804663054 1.2137890060876646 0.8855635191798039
Ni 0.8373052099421453 5.228653257388597 10.085503371188258 -1.4724687235859029 0.2579520953035945 -0.28805482822624584
Ni 0.7255083660518657 8.14823098859657 1.3889173839530202 0.3818011061414715 -0.5643802838307054 0.533909626045674
Ni 2.164909622282025 4.029175670450703 4.367026678591125 -0.9170096535042271 0.041098569812522766 0.9290128486126904
Ni 3.3037855423985203 8.154687158737964 11.828012431588641 0.805843123230025 -0.609821189772324 -0.9596863664371473
Ni 5.9851324721826975 6.31953956398316 9.555437726627463 -0.4221962221290664 -1.4704704622089515 0.760983029492541
Ni 8.704765992340258 7.880215472014657 10.065492058940407 0.38990008109952207 -2.4938600232320147 -2.467441681139486
Ni 5.658401466393369 3.399886761029358 13.706793601813581 -1.4355507675136308 0.9594544529319993 -0.8721768134602527
Ni 2.1906779990382286 8.639284662039898 4.289152879847851 1.240744708740902 1.3558931064809874 -2.6630141857645944
P 6.103680142816755 3.0449287788078876 3.1312481489570554 2.2495936529456286 -2.112860587056232 -0.10670618051000332
P 7.917544897628707 4.7487946580421925 10.638779322766094 -0.8799523436406135 0.8160131217844915 -1.6991703455156477
P 8.433315943386615 2.654452476840521 13.169847631747452 2.8117825855519705 0.9262512267071531 -1.5438075803402056
P 8.099603265235082 9.036038838752312 1.6711730723220917 -0.09890699618055869 0.6532628058957266 -1.519201094645435
P 6.870725705836449 7.787942912421157 10.935153191335353 -1.412645323670367 0.7644069675724254 1.1760151297730004
P 1.3482510192368207 6.988700954408551 9.143365160178405 -0.4580548836988886 -0.4024241817084617 0.32236388592076093
P 4.156788254393753 5.904411577478815 12.576577207578595 0.3805510357844543 0.10915052828543781 0.24073316032214667
P 6.974071347939899 7.1334298964008775 3.876873866097759 -0.8647576381780462 0.08925173247898177 0.15231163705394413
Ni 6.734676934455735 9.526041507754018 3.34716575072648 1.0396098795366677 0.654211542962241 -0.31832185464090335
Ni 8.400509590458835 7.500324286209344 13.080437182463728 -2.479010874034324 0.3969135363028777 1.28366927601857
Ni 1.347134327017597 2.782083828720028 12.102342420391693 -0.06537698274391321 -1.7761779705199539 -1.7754387783610843
Ni 2.896211650318334 2.23500786495094 0.09156219319858175 -1.4604267048197042 -1.7234808972365543 -0.5209404674795157
Ni 6.829764684517866 2.5455515255456405 9.076451836326335 -1.1885315170724564 1.125668044779016 -0.4274613271827477
Ni 5.499803019358919 1.913118986767657 11.342089911972804 -0.7382737608204833 -0.23505539321107904 -0.39330190769221945
Ni 6.3585299519737015 8.330064140965455 8.616459097720236 0.18724855814044525 -0.21895308833257773 -1.1291295209650554
Ni 7.9877275960116805 5.611406553503686 8.335893462029167 -0.7509806668641905 0.9484498742913794 0.03660145327311761
Ni 7.409712688992337 0.5303481020044813 9.867277313234558 -1.0329607496512663 -0.9909646077251386 2.9436236134563885
Ni 6.919963387132808 4.907139737934465 2.385704072339942 -0.6419674354875654 -0.2397988214333354 0.38165532459222656
Ni 4.303957028125559 0.38557693215512545 6.314205716441927 0.8249896142514889 0.24210175853489915 -0.14032746810887445
Ni 9.149481630669918 7.6598048262572975 5.319162569351912 -0.08947850377780718 0.6969808156089673 -1.614311599898039
Ni 8.545172844673559 2.720646988726268 10.885874220578787 -0.5871306901533436 -0.6251333946493621 0.26615211461588356
Ni 0.058522179461903925 4.853472823634127 12.282991315970106 -3.0230665873750646 -0.7197289079387604 0.8798037338778912
Ni -0.18840756050996127 0.12933078852573698 3.4218536922560867 1.2537102677626344 0.17036052413585498 0.681194242198672
Ni 9.196945741971039 0.5937593289135746 -0.13781483420136834 0.6709463392184187 -0.8145702186903777 0.6623758239405882
Ni 5.681720627441862 4.296590613065975 11.195186704541872 0.8329870306346687 1.1465857687682897 -0.51017602987416
Ni 5.110593553102437 8.752708686021046 1.547549613273093 -0.892419879980005 0.04721522423322191 0.15976577933914418
Ni 6.100442673777828 2.3003672036643263 5.604961644124167 -1.0548637203719446 -1.261381411154647 -2.116151341992362
Ni 3.4881335982527153 5.785873290812986 7.922790535868589 0.6942875850475204 -1.4395709444166176 0.2106527959969985
Ni 3.2480072352467086 1.2007256547123208 10.581493011919921 -1.08620212547391 -0.12023326846216069 0.6872679591965777
Ni 2.5413756596838373 0.5803871741875768 1.8833136268794364 -1.16022289993575 -0.27330595205184544 -0.8031853738922038
Ni 5.837456964166537 7.744335612062062 13.112987353058863 -0.39387834902097973 -0.23084521178447343 -0.8563221058161833
Ni 0.826247141781362 7.119916982151448 12.021955594956752 1.8312224609896075 0.2815867040033989 -0.6318264903988215
P 3.12626901541487 2.914463468523292 2.0797707553360367 -3.518533336063508 -0.8116417321896732 -0.9124662571079188
P 0.429295901736144 1.7693659774711228 4.733487529067422 -0.04968965391564345 0.908769782092938 -0.6404944504864646
P 0.546064371994026 6.168035396929661 0.4136152908258686 1.0270374421882957 0.6038302622962116 -0.7793815866043868
P 6.53789512069842 5.205474855863534 13.5208709160906 0.3412537808467284 2.620477340843648 0.7748878124990913
P 0.6351942406277105 4.9889867088258 5.802723144164566 -1.036119864105538 -1.163645295353738 -0.7451324356135297
P 2.2097462224790902 0.3096240317082804 12.702961430080498 -1.6792638363997079 1.0275107822802885 0.5453849736751253
P 5.322727538882021 0.6258271635417518 13.257377533798131 -0.1567953838569106 -0.2677150882276293 0.14083731786575746
P 3.8496509742660963 8.512704314602013 9.770559567891087 0.8675981929506349 0.4436315091847069 1.2938744986863457
