# total energy = -340855.3389116401 ev
CRYSTAL
PRIMVEC
9.40152608583869 0.00000000000000 0.00000000000000

0.00000000000000 9.40152608583869 0.00000000000000

0.00000000000000 0.00000000000000 13.76008374744066

PRIMCOORD
 96 1
Ni 4.771753820994213 4.263103070671094 7.53913618705639 0.5470237948301289 -2.267986810740836 -1.5879549642813815
Ni 1.0887718997730236 2.86154240755315 13.469374221625928 -0.03574039082440296 -0.019611860693656547 -1.5793453682354992
Ni 0.379887452974998 4.990743561438856 12.335034066455957 0.33054899283471456 0.19856115493978707 0.5135799133493865
Ni 9.28264350563341 4.020412083686249 6.2572607079747 0.7397102361566938 0.5021032801683546 1.1126536347972193
Ni 4.384589587050506 0.7086691518572202 5.262750386171283 -0.7639148584273554 0.4281586103600884 1.268681544360486
Ni 9.169514945689633 2.81658431118058 1.5633383584631209 -0.7200682935560501 -0.6430614398826925 0.661041421399881
Ni 7.822577147466007 3.239314517223291 9.296518277408113 -1.3936374151092967 0.5822525361254359 -0.46831744196716113
Ni 3.455502602979721 5.468275261366072 5.7771576907413555 -0.41466854629345357 -1.7765469238235982 1.8570252809853243
Ni 2.6166514635312543 -0.20384482253444214 4.11612243678154 -0.1761123390179677 -0.5762592946564785 0.02813172523920961
Ni 5.132753608638285 4.85416759615146 3.3065203842474817 -1.932830143930781 0.6988569495857577 0.11221451192274222
Ni 2.3989027244921295 3.967763539209798 10.63911727147533 2.8114817664820997 3.773337372656424 1.8961039921543408
Ni 8.607397718145515 6.919711018849656 13.537005037616252 0.383761572301952 -0.8347567209405818 -0.6144219217691289
Ni 0.2662831758257742 2.256281578115741 8.134906176199339 0.5451710578921062 -0.7695149782229522 0.09416793883367654
Ni 2.1165278971081594 8.762269052638478 13.443243620819171 1.1997451264000887 0.2922914920154127 0.23198163938176178
Ni 6.8802810196471125 1.6584479540598311 10.814572306553426 -0.22773212007678845 1.6081738624314175 2.1665362222028173
Ni 6.710790312536136 1.0450642063317692 6.218264119111509 0.7382681043935285 1.5183081505175207 1.8504026334624843
Ni 5.0828879157984455 7.474777102044247 8.733964819066905 0.24905504992428074 0.6013830863072998 -0.5901738478550416
Ni 3.210019362832465 8.988056096236061 11.255721041789675 -0.36674009804329094 -1.550550555490994 0.6492192319539722
Ni 2.1817086754751664 0.6458613186019729 6.617554441031239 0.3999425529371886 -0.05056794275553872 0.10514860621489634
Ni 5.796313299557565 9.266801934661476 13.60929995055564 -0.21479535741046235 1.1599393072570605 -0.04667246435587445
Ni 4.8767218565441395 3.154277716368022 1.7920718402462257 0.12202095649020277 -0.36094354596617195 -0.563413806152378
Ni 4.772111078974589 1.6598581829297359 7.5780904690534845 0.815308382407983 1.8489995824673706 -2.2765676104313113
Ni 4.352859437477645 7.68602938675601 13.034844160552435 -0.7805930904139847 -1.7875823557021537 0.07901077147726393
Ni 5.775075252776796 2.307181438793511 3.9175640922040813 -0.08857604656819583 1.6718950547394624 0.28697856444293157
P 8.070833837724077 3.5268789868485104 11.990866770603072 -0.28551354986163086 -1.088911553985273 0.6660992955387625
P 4.239947112627255 3.1916393798947036 5.336284420211028 1.516571370332072 0.6605256581057269 -0.03779624491216717
P 2.7489873406831355 0.45064803690392913 1.9952529150592326 -0.25003206912556936 -0.3284887678715762 -0.5380213342212024
P 8.279961377605183 1.057737463109315 2.554229092833781 -0.6327947678493617 0.45141475267455167 -1.1669735883960226
P 6.2282475993578545 5.115934278983218 9.37712507930672 -0.7112100718344719 0.296746699573289 -0.2742845139150309
P 4.024031671119006 5.509839406925071 12.379891566502474 -1.160964148977149 0.12192813966608035 -0.8256925538557844
P 8.596783395518031 0.22365477754628707 7.71362756574005 2.169604062494863 -0.9045562582322227 -0.6161350478054938
P 4.339057997604175 9.016956386543315 7.305200841048495 -0.115251241866537 -0.29530893868549785 -0.8476934836069078
Ni 4.678406071332305 2.710704327628116 9.612367237400727 0.15512930900839736 1.3477355103708595 0.5329675738473789
Ni 8.058132376369134 2.516233766468222 5.18980770810432 -0.15488556842870743 0.3433348317454732 -1.54395207633787
Ni 9.0424063168822 7.26048812449929 3.5642058647297348 1.2381504656511644 -0.1070980166317833 0.9278872196486794
Ni 3.7841893464513694 5.419810395870339 9.033440081727344 -0.9638497537862174 1.3296881659508455 1.7648070096788508
Ni 6.545464481354276 4.591818018720141 5.149091580172424 0.16774211267640143 -0.9996395097913171 0.48740402628496704
Ni 5.387252912027133 6.618702367331342 10.889097261412424 -0.3785900554033415 -0.33978208139720834 -0.3404246000772137
Ni 9.056113741497676 0.6085673460610465 10.32739652146122 -0.7929827223275892 0.1970408616405187 -1.7642773624276262
Ni 0.39118714683325645 3.3727127667905004 10.618037170327991 -2.1680200058371955 -2.29160882103515 0.3380913239583468
Ni 7.512693455593093 8.109549320965867 1.4359335815930072 2.603839218066335 1.9912633483670095 1.3892986785246266
Ni 2.278807633931023 3.221254186162708 1.6928754013845309 0.2809835232017613 0.8482740387007262 -0.0757549835441276
Ni 2.1566442076940557 6.800001390846323 12.338804078301502 0.8208496239411863 -0.33607712174179544 -4.2330575598728775
Ni 6.400577567260242 8.885024775000804 10.482101448947533 0.1630256810373386 -1.3297727552448517 0.16973600317797866
Ni 9.188600043062346 0.32451058571157004 5.503688928747127 -0.3934651727429611 0.42335219011038056 1.8630331777423013
Ni 2.0734689089470613 3.8827173368287298 7.9998372754975815 0.8528590869682473 0.7932298053413888 0.07842198885332945
Ni 9.082146566436121 6.5116565945797555 7.056060407365286 0.00949688374684171 -0.6505832021810344 -1.7182875259610728
Ni 3.1240612124488583 1.8197687352511591 11.573289540850993 0.0942692402982312 0.8751842328280088 -0.21316630644747162
Ni 4.308681667746422 3.576707073585153 13.323558436782916 -0.6117171212434562 -0.06603904180794433 0.2977208905611001
Ni 6.889710750023877 3.6104303466274796 0.39051681804376165 0.2741413034689472 2.703496976369989 -1.0718545985029864
Ni 0.44326689899884664 9.360610359087554 3.4192155338519066 0.13314843386193198 -1.5303650816820547 -2.070711721602324
Ni 1.34611986547908 6.332407103689036 10.439651679658235 0.5484731256821458 -0.3954328379922932 -2.4737455118703267
Ni 6.960645262180096 1.5570054906846678 0.6201048985220289 1.6130846694694734 -1.806213597650096 1.57653540959053
Ni 5.746654440285312 3.9524202491052316 11.456934377252876 0.16402249773296912 -1.0036357754349037 -1.0226837932052903
Ni 5.30359813546437 6.6921940945049885 5.021343647610633 1.4454340880656138 0.6623521697915045 -0.03161299891959072
Ni 1.9028124126369623 6.320081703366066 2.7090440181719475 0.6082584732708943 -1.2833746275962867 3.157342192862904
P 6.659100723691219 7.801433115943233 12.342285463305009 0.6862549445510311 -1.15243605690148 -1.1243346706795732
P 0.814081879577456 0.23891345391865873 11.96418618053705 1.306781693666317 -0.25152099496627006 0.7307715389061673
P 6.240845643929006 9.777962892373028 4.4310773116706335 0.9917876178470661 -2.545319110343255 -2.8442533044861658
P 2.275705130417232 2.785888329445649 6.205549495620445 -1.643923252116885 -0.5432558431472644 -0.4015330373527601
P 3.207142495937859 7.16134903494497 4.694486441059541 -1.6669073717168839 1.1997816360649787 -0.1901099388486403
P 7.121975444897224 3.45373511612944 7.126498518959299 0.38698933521063034 -0.31927316281057916 -0.6967710135910063
P 2.3976805261382115 2.3035900559381526 9.573632951107339 -0.21979126796315698 -1.9639168380332561 -2.066845039558066
P 7.5991498868440654 7.055948529208274 5.493479811881594 -0.40882648569037977 -0.4689813008034053 -0.4188491600337044
Ni 4.0791904229838885 7.294625064676788 2.7781884798159675 0.7986293790904052 0.21312054081120071 -1.152508304900312
Ni 2.488348840947301 3.8583391804309723 4.129497047383718 0.1982063427035296 -0.24318059342137474 -0.09469270098889498
Ni 7.891518536152762 6.758362033080929 8.834551743594327 -1.2678382225235842 0.7214844571772865 2.3907071072909085
Ni 0.31606989584889894 5.081364868618949 1.2750960388277668 -0.0740418575077628 -0.07875366116113533 -0.3554501269517685
Ni 1.220214631973965 5.524628007007475 4.853015909241037 -1.507393817597862 1.6724792093777068 0.5093967285059744
Ni 0.22959748200406657 4.969778158906268 8.977257503702909 -0.5932465732430944 0.5214706289513729 -0.9449827416783855
Ni 6.602625758214424 8.419649247932169 7.135566290592788 0.5895740094875137 -1.8243650717481419 -0.24183050715138352
Ni 1.0598528064141726 8.31593161531356 8.38521615969199 -0.2080994334475255 -0.0883760147422478 0.7628301100036088
Ni 0.3229762567011134 0.2073891977608033 0.6073009605358718 -0.18204901621737682 1.014059798981705 2.7724133397257287
Ni 6.474924833281632 5.740825494289705 7.165232805252688 0.8497035720584012 1.0124281769155532 0.3982883051632173
Ni 8.286288604468156 9.223996787696962 12.783378729539042 -2.1736813178880303 0.5226795616578095 -1.2145775634272309
Ni 3.470103172546137 1.955837018145389 3.295691706831771 0.3196799113306946 -0.7712039358896009 0.031167683852055997
Ni 6.95004034107841 0.8592552708908316 8.684483648632261 -1.3659108957283057 1.340954482893284 0.2478044653466313
Ni 7.67861158290031 5.367058434610095 11.063588640096084 0.7069363841597825 1.135320994487748 -1.136634828203165
Ni 6.077456527061818 5.671583256777371 12.969717911035064 1.1536190214659874 1.2235810524774218 2.174737012846055
Ni 7.290920863511838 3.9134039170378614 2.9297006491408166 0.9368691114323154 -1.397777405419599 -1.0701517568792667
Ni 3.930683921457097 0.5704676627591141 9.263026281900451 -1.1986017568242648 -1.837007700212817 1.1161667901568004
Ni 3.0536437842116038 1.4729746530899308 0.043502740178828186 0.8080879534001437 0.03447026586272773 1.588731951656722
Ni 1.3381191670238193 7.874257334785125 6.040222724286006 0.9329836603349804 -0.44768253932562896 -1.6629455588556585
Ni 9.016251272108361 7.564533468850798 11.081641449936027 -0.6416259929877466 0.5717182122530154 0.08219636829409716
Ni 0.7436108626431454 2.1353497517584907 3.8063007949788994 0.8512380064250565 0.6737197881984978 0.6076496360423018
Ni 2.3156522135387396 6.549328508457817 0.5248044519515915 -0.25315518813558335 0.8304241550034988 1.3887926854224855
Ni 7.196924408569773 6.0872905230479555 3.3756648458915017 -1.3561147355734904 1.0546482619270288 -0.4285388765176426
Ni 5.455094322195361 0.3896443564495804 2.2617448047577526 -0.40755121852238196 -0.5881964124136966 0.6758093237376749
P 0.6208353970766396 7.351034219472987 1.4965602608628015 -2.1212351842731727 2.1523751002110867 -0.5394858345818708
P 7.52206677681506 5.572792023677629 1.1844794324105734 -0.18776406432428308 -0.2689427899871432 0.2208042826087036
P 9.368611057542815 4.139604627770616 3.671630518971035 0.12817849145116636 0.14476570638588618 0.18032817687152813
P 5.215411823466314 1.710146944430547 12.367521979008247 -0.13312632237474492 0.5015895737567296 -0.04229644677536587
P 3.4468437977185045 5.241322428569368 1.4420154286326172 1.8866482460580798 -3.2621172177884663 2.458089036279992
P 3.0904507577161233 7.608786450788416 9.576192046429925 -1.075822839122115 -0.16993706344519122 0.4337307051312272
P 1.7774242630508128 6.249589062922418 7.5702608783677725 0.2946003426542475 -0.6511935820715237 0.2613125271353951
P 5.660019380044151 7.516717308635221 1.24759657586462 -3.1464975368389165 -0.20319094040231456 0.02583547300586518
