# total energy = -381174.2623391478 ev
CRYSTAL
PRIMVEC
9.19137931190004 0.00000000000000 0.00000000000000

0.00000000000000 9.19137931190004 0.00000000000000

0.00000000000000 0.00000000000000 13.45251270182082

PRIMCOORD
 96 1
Ni 7.759215491198041 7.021809498632631 5.712044357330645 -0.19076094216907793 1.76217779958612 -1.0304937761680124
Ni 5.244444875304733 3.510059142404564 5.5305164509641855 0.6881968987687502 0.8125979254553554 1.1449780579615378
Ni 6.472688914624117 5.402058650551675 6.7826093626088095 -0.15166706149140977 -0.12131827399622333 -0.7114679534815489
Ni 3.626091116904062 8.101980414600707 6.155761878065203 1.18983429504428 -0.41346809822744923 -0.3802443031773129
Ni 4.060126438499062 5.05220717357335 7.178866276283355 -0.12952909194178983 0.609545567513434 0.05530597166115637
Ni 5.571621219116848 0.8102191816328645 6.665693177403762 -0.3533935015330559 -0.617155261539892 -0.29990607113787704
Ni -0.2868693873979306 2.8130033057368746 5.480244200922598 3.1342801688371185 1.8896785482439715 0.04713012071858335
Ni 1.4292411256909783 7.1166369606820075 10.131006846245395 0.7118978419301158 -0.2963605198784638 0.03245837763902151
Ni 0.44945661807909876 7.789482703811067 3.4950303178240723 -0.15004932338232868 1.404369199704504 0.5756311741541764
Ni 8.383291774829765 8.547936955375512 12.73874918467196 -0.8175267302155405 0.17128586416360178 0.4872456463302319
Ni 8.224657756461037 3.516346045965849 3.0716661878001994 -2.366804589641698 -0.8461667625497362 -0.7819781436869694
Ni 4.344921331549359 0.7720437061190643 2.442640346320884 0.3072913078583546 -0.9019437603100402 -1.4984440646037418
Ni 3.5684887417307136 3.747472474258337 11.81059357471226 -1.1645798913528653 -0.6564825983846049 -0.15650999140600785
Ni 7.072748123686198 1.8723667215873097 4.883436901918969 -1.8417493286628603 -0.9065655753527677 -1.0288904362366345
Ni 1.5864137147230928 2.8043358348914196 10.280693056694664 0.2105607505038245 0.48068213418010125 0.3162102076145393
Ni 6.45271604702372 5.37172709828232 9.060078781477944 -0.9385688677322416 0.8792152083642729 -1.7831235485998518
Ni 0.6472155814614534 2.4379858317544594 1.4754985811776404 1.0400055723131894 2.6492163606495533 0.39088147117618494
Ni 4.722971960758709 1.6989437736424013 12.090432475949335 2.221572742252671 -0.05867540235402152 1.3144245549235556
Ni 3.5761083953159543 7.79633028152036 11.147801362453574 0.7936720350851298 0.838522101520285 -0.2500775776515241
Ni 6.388606175181674 0.28918377674987716 0.3482641257428962 -0.7387285889697148 -0.5463979883206719 1.0516547265163436
Ni 0.324164328757972 5.089193284583011 10.041937783437458 -0.5760654334781176 -2.4657051580643534 3.4054541621476253
Ni 4.686969327352933 1.5857335526419012 4.456184818376935 -0.47140070887817526 0.08890206244904689 0.7010192473443992
Ni 2.452517402705323 7.442645999300725 8.053387429589305 -1.0713126099565873 0.18830425309846924 -0.15540313149507431
Ni 1.2215067581637957 2.546591171637703 8.026589962728304 0.06745854786329027 0.2650917916721693 -1.2751105878152813
P 0.04964999365109214 8.629675893051687 8.091403894238178 1.3748344234701806 -0.11991136634636766 -0.23116531412805347
Ni 5.25468407204051 3.1362181649950207 1.1098057616731831 -0.2787335508253199 -0.5300336880300356 0.8875198715752264
P 3.4360225807289106 3.789541418117986 8.874784247802399 0.5854759281587399 -0.45283914382590396 0.40808909330372295
Ni 8.492228004374129 3.1021089557612096 11.802871896814843 -0.06738115765813556 0.5222815548884425 -0.7291370886265378
P 5.2893079985249525 9.26187735613981 10.573325439023773 -0.5472312828552447 -0.6511077072259367 -0.21938580499462218
P 5.432187992472568 7.877931348504402 1.4968749724239556 -0.577708111287863 -0.40185571079950144 -0.2873611445933309
P 8.571623140284036 3.644988593105818 7.558603523626471 1.6988119337349648 2.513003171819369 0.6763207161564545
Ni 4.069455688666758 1.9090127515563764 9.712835845625216 -1.1136496801619014 0.630775680536804 0.06708753767711671
Ni 0.9571167275492479 4.218447949965622 3.50357278590866 2.5687549727686925 0.5435162958975026 0.10419189872858185
Ni 5.894661442164958 3.7318838946677833 3.4394445313076623 0.5082158208239957 -0.6742131828951485 -0.7864145821917683
Ni 3.501474393974389 2.3370828678717372 6.883973733741205 0.6356404648282731 0.16301513951437732 0.8917763328587351
Ni 4.714469934743814 5.640005082415031 11.776235279094664 -0.9326157354726003 2.6135371620803896 -0.9385354433911449
Ni 1.505088389123318 8.193682807628392 12.121844015307069 0.26927806183937497 -0.6816948359841744 0.7677242048711165
Ni 1.80861531354481 4.996976174304695 8.289868755564255 -0.17796044797029997 0.04910421372581866 -0.6417023547516367
Ni 3.7874641663565085 6.194805938939443 9.450820867467153 0.7956720962342942 -1.380459225856126 0.4023280224502297
Ni 8.963111566286658 6.3387245587677965 8.460971799329531 -1.4562278362470082 2.271874061610384 -2.4624360003947787
Ni 6.303650254689051 1.4930017251129535 9.081791577213066 -1.4327603492526872 -0.8506965320992897 -1.2083945745449705
Ni 8.529719641254948 0.7663404551544779 1.3214510611672172 -0.0626924939332146 -1.761106163788496 0.018614529777393748
Ni 0.33000453127674423 0.8256248527718544 11.371502994405702 -0.23887939494285956 2.3215130647937503 -0.5505983995552646
Ni 7.341715461279576 6.34638097787094 0.2684323993079003 -0.24575041103107997 0.14353620485415924 0.8452398798600926
Ni 1.3729255436442085 0.8462034322796907 -0.018545446367841945 -0.42361212863998654 0.48360702113638004 1.026066079413962
Ni 7.106250701874623 2.269553802864781 -0.04640635583416623 1.5893168776259146 0.8942188808619567 0.5427472789419622
Ni 1.979170551093343 0.3159389632652913 2.118515540494657 -0.2269772441886349 -0.9762771809162928 -0.13597201935365616
Ni 6.055988534720027 6.1576084262018425 3.1741877536085683 0.39850453493908145 0.46574093948923656 -0.3681742593866562
Ni 0.9084639985712543 7.73322227004115 6.164950500126921 -0.08729126631850127 -1.0493659304821668 -0.6890265937588972
Ni 3.163075375822614 4.035107503566582 0.9109824365475583 -1.6213865044669495 0.26685608266144367 -0.40739566678112415
Ni 6.700046877331624 1.386142747330067 2.723272463606698 -0.23866419360825994 -0.46869230880807666 -0.8840031166712196
Ni 5.523550304459656 3.4069042905503295 7.836680437418079 0.3973118001825609 -0.8103296982464689 1.3386278916426366
Ni 5.772452860657882 8.392905957761204 4.503363250087048 0.056859175080889175 0.4256790384713443 -0.03394730347972218
Ni 1.9945844944738609 6.272151397226299 4.263706302503291 0.005848488360977024 1.2109134843120823 0.2713861093213133
Ni 4.092066482176642 -0.06262086836700559 8.430541899299788 1.3179261403189109 -0.6201415978617255 0.15144388973701015
Ni 1.9836835184158443 0.47730282133826213 6.6869748974414795 -0.5397306036028252 1.0671700485431233 1.6896585493704706
P 3.4426587567102667 1.8763006320028506 0.6432154931136886 -0.7953651065168367 -0.3435996553710856 -0.0031673419843880933
Ni 8.484029293881928 5.961933148546598 2.5341708605523756 0.10269937334345537 -1.9272703904548165 0.5527416711505125
P 7.310345283129482 5.03890724747221 4.717715410836636 0.1872732407307936 -0.1756467122354588 -0.867512575215364
Ni 7.110947496786634 8.14093348081814 8.364960487603703 -1.048098633733969 0.243441046171613 -0.7274715279986568
P 2.104246842996794 5.977301135029738 2.1489040793167606 -0.07986514905775924 -0.20308552517270184 -0.9781929098817669
P 1.9020273031549493 5.387784438226126 11.614509280670354 0.7629530087347183 0.7793751588464836 -0.19438954006060072
P 2.0805055098114167 2.220784343367448 5.326105686255366 -0.7752634506709551 0.33501731301871335 -1.1725420836227354
Ni 1.3367482740283954 3.623866803070976 12.641702923617185 0.2736952170704641 -1.6356021338456992 -0.19334927172154442
Ni 7.685344374352946 3.501952345707118 9.573561629845862 1.1290287337211329 -0.7931716984099437 -0.716922805948533
Ni 2.64079361988274 1.1296940685824046 11.650427353384956 0.007302704309000326 -0.2482613503783918 -1.1752916213434146
Ni 3.7004677596203117 8.91524286197793 13.667349657398278 -0.1156333077963041 -0.24726376235181285 -0.0024852283156989456
Ni 7.50591026423102 7.940156987553959 2.218750291089506 -0.6810410044502594 1.6637927373473023 -0.4370721107996344
Ni 9.187932708258911 6.350415993460712 12.467802023939548 0.5052107154490848 -0.49900252975584386 -2.636471145168743
Ni 5.12432273693861 5.721495852845365 0.7632797257891157 -0.6615250459045187 0.3661538865225178 0.5488798742022613
Ni 3.012842278294549 4.300903815240891 4.960103117262583 -0.036751862808052836 -1.9123037418426552 0.6142653415866066
Ni 8.531815275775376 0.45411480919731373 6.148686354144915 0.87415476312223 -1.8663624992258503 -0.29725629221985583
Ni 6.3662159747792035 7.062940921785772 10.494063578116261 -0.4146484916887956 1.820394260025852 0.025299397996737073
Ni 0.5804071206053817 1.2843574110176905 3.7977116353338127 -1.2017585572856917 0.21276881389873678 -0.060665436200856813
Ni 8.546264124310959 8.390166926677486 10.189807777302358 -0.06806455687840536 -1.1586005338409788 0.4256276164081186
Ni 3.6761381781484985 7.493750069184851 2.779074247540784 0.12531762496360355 0.2186458415048041 0.04678764977750007
Ni 2.5440175853845455 0.168658136824777 4.468400161699957 0.7277402082790112 -0.4257026926204282 -1.0997770359448673
Ni 7.4455229010765756 2.0792738649616913 7.092339549038359 -1.9238019722902415 0.05738059480199795 1.8060446761723992
Ni 0.6328136089611949 7.537785968252269 1.0791267752596514 0.41964748756528375 0.4680125091322327 -0.282522585554107
Ni 2.6115098848735987 2.456745437264082 2.9734360770689707 0.7353095359858369 0.6308607840514425 0.6067674905476647
Ni 6.121366816929701 4.255755759256929 12.575476277081917 1.5978228582143965 -0.8208899902608184 0.16761612862149844
Ni 8.567229660894716 1.3475205707737543 9.14984730826397 1.5923443515983287 -0.41261294931600556 -0.11410607251850026
Ni 2.9063141901727825 6.518416027515039 13.387833373580797 -0.4761824465375348 -0.3456321124200822 0.011695691170373406
Ni 4.608327884560022 6.216047216907468 5.029329830058675 0.04861724678707111 -0.40953945259700436 0.4655090259840886
Ni 0.12368471705085093 5.293839348606405 6.192070584407516 -0.05467219473189939 -0.8333593263724229 -0.07039346212189812
Ni 1.9878747874567004 0.568420642631301 9.19764431981279 -1.29367498108103 -0.6293584884743032 0.48876054031286154
Ni 5.616732509582907 7.829933964883016 12.486945829111248 -0.438391086721374 -0.34334794437159577 0.5776739156158179
Ni 7.034162712647787 1.289890621461979 11.156881526237482 0.8881333367895091 -0.624059444858893 1.4757455945649618
P 5.787591062654133 7.6478619288516025 6.7424264898175466 -0.8156225712142922 -0.07848035289509064 -1.0286091575507899
Ni 5.552641020499812 3.7358086137038486 10.40631255912512 -1.1653285965934317 -0.8011536881741558 -0.28472344986016773
P 7.902665350673139 9.055880159333508 4.083994612721202 -0.10126804021356753 0.19499194953128998 0.042890885826255165
Ni 4.021816768844919 4.924934141975239 2.9060522358577288 -1.061254968610269 0.5737460413163215 -0.12717319011510356
P 7.1759856979557135 4.230451891560707 1.0576299769422064 0.8130494111704771 0.2858272244473078 1.1759616508272457
P 2.297789720613708 5.912740885593388 6.3388238256661324 -0.20473694473319579 0.9540903604066086 0.4818512147875379
P 7.367350218636918 5.27527276206577 10.969689891838179 1.3010237081366174 -0.8834508437121752 1.590075353058494
Ni 0.7100441750046067 5.086693229365659 0.7557970237580603 -0.014205859186736825 -0.5537086630494722 1.6799845166158163
