# total energy = -340887.76028692635 ev
CRYSTAL
PRIMVEC
9.13771745311342 0.00000000000000 0.00000000000000
0.00000000000000 9.13771745311342 0.00000000000000
0.00000000000000 0.00000000000000 13.37397314726945
PRIMCOORD
 96 1
Ni 6.550454815991491 2.2418018498495136 11.48024502273797 -0.15513907920041023 -0.9667877533686189 -0.9465847960581827
Ni 5.039935336132426 0.8094847813519833 5.930246881226472 0.243974807187896 -1.464971129657277 -0.21261171949558222
Ni 3.157117844296192 1.8711486269687756 4.450135896673536 -0.12740844605436122 -0.6173720055363884 1.1134727882644049
Ni 3.4908455519620527 4.621108068160662 4.839826639573743 -0.6383522073324813 -0.5090295749745426 -0.7143756140466471
Ni 4.097169639209754 2.6701232059945643 2.4228017521945486 -0.7080306456652259 -0.2126788252880918 0.20036786913122268
Ni 4.853653833244406 4.906040365965736 2.286588543173611 0.9754788533847137 -0.07357263118082814 0.008209275283669734
Ni 5.15831446248945 4.565779190500163 11.545055195767675 -0.20707562016870146 -0.10309660878187404 -0.26374350517439094
Ni 5.56366359758768 7.925288333112196 12.508356084559288 0.21348460901883878 0.3881517309498476 -0.32612206741161254
Ni 1.9818520708757879 6.554795231662628 0.3250313422043416 0.6666677664477229 0.28693228458602843 -0.2837032361257695
Ni 3.12043904744578 1.5696679233101658 0.18907033417819002 -0.5981272983741635 -1.0863599912080129 0.3900944564985153
Ni 8.010607198630955 0.3484759832305258 6.719699045155645 0.8783806282781194 0.38158513347592343 0.9713900280273204
Ni 8.300208869926452 2.4144224655199524 1.341810720922971 0.7601325085667877 0.5336046932107454 -0.31620917917327473
Ni 7.309853941813708 0.6177663367285393 4.447273963645746 -0.8564182650744153 0.44489520638847896 0.7146941737283304
Ni 0.7171627693693083 7.748391265791036 2.4911427391512584 0.668963504460435 -0.41342130414991385 -0.3244122838093574
Ni 7.958750653507366 4.144895936157861 3.5371216931901404 0.27852272036609454 -1.7711740895474595 0.7053111898515337
Ni 7.693025837261727 3.729668928763842 12.66476456236924 1.1176060937064882 2.258034070403498 1.051149247634835
Ni 8.470682122054328 7.308099500110847 9.004268152827526 -0.9315942361866214 -0.3281948907802412 0.17740174725335253
Ni 6.999034491174251 0.6081753887529057 0.11807666791762458 1.1560397150923383 0.2498968290992857 -1.0124867980676304
Ni 1.795926938958662 6.754591418292989 9.092428848396231 0.4376326112887947 0.06292543587962712 -0.4229007043952588
Ni 0.5354537801693674 4.8591090504142365 1.258707751825792 -0.33515332437594536 -1.5637763101526487 0.3560939311833545
Ni 6.457359753133494 2.6773054517156467 7.029935509437588 0.3482242986272906 -0.9465464866210795 0.7163052269691922
Ni 3.5666429161559168 4.308287457453882 0.2239873791519808 0.627290550201681 1.2503950873464724 -1.0942309093156575
Ni 6.09950847205331 5.730865546957099 4.320100698253137 0.4826366868033107 -0.39386600772580554 1.4142417216232095
Ni 5.36902108345947 2.880345527952858 9.413244047883387 0.8048838446405493 1.0825339325937036 -0.3011075476451459
P 0.37834718076515417 5.498475123065796 12.582969200603722 -0.07150109336378008 -0.32807841980703495 -1.5724239585253177
P 3.9981624733218064 6.252939881598721 12.583972521952548 0.645941846754281 0.41382162491212604 0.007712023932277041
P 2.407934686306252 8.514314721695763 1.3831232541667178 -0.05869468562773117 1.3840993937118744 -0.7515861616586733
P 6.991303982421025 7.918133500542721 5.802017295725266 -1.8484215984767132 -0.7201454266508888 0.2495687563359057
P 4.959879795722246 1.0351662932732881 12.430077830144976 -0.14000530888276533 -1.4724000751314965 -0.3602087246826764
P 4.039711673441095 6.207717319164069 8.1923344632653 -0.881676782530888 2.303726944454923 -1.1996633653195599
P 5.167616658601487 1.0465427511902696 3.689397181509448 -2.1023478604503665 -1.691508458095016 1.4799840581263413
P 0.4199201389491693 5.685112996924709 3.34904371510013 0.8440764556796109 0.21573355295401556 1.1492823417638465
Ni 0.7168283289197006 0.06401062277449539 4.771766180535146 0.2074052355939783 1.151926464254913 -0.5624370440614055
Ni 1.6449352999062916 6.91100172364638 4.977150995006491 1.271412570138404 -0.5146340656455137 -1.942308258624545
Ni 5.7930659879538 5.646990440756317 9.23617245016366 1.2943545236465581 0.47604360696682535 0.48890297942799665
Ni 8.987045383444453 2.49450541908174 10.190967038011568 -0.06227391833855726 -0.12448510175997915 0.4928663349511189
Ni 2.2366755904989697 5.443109694536486 6.872884650108311 1.2077847088751135 -0.30270908780431094 0.593627610731597
Ni 0.5041698915552487 0.23867443201138988 9.055543539137044 -0.1452426460223047 -0.018423496812510206 0.3558458197282904
Ni 1.7273849222234994 1.2446210469865802 11.533580050504908 -0.8695956829966378 -0.06402509670170908 -0.392525177427195
Ni 4.115636965675793 7.249901379248796 1.5049728855172113 0.8319310785663285 -0.4730508428870885 -0.31975601598426867
Ni 6.14293090419909 7.898569648012394 8.019221324637654 0.7739892119442219 0.509431952619284 -0.06492344014626238
Ni 5.481625172544581 3.1889902018981453 4.740485033236188 -0.01299666936998407 -0.13065780622959433 -0.09611812058151188
Ni 0.9498657031889332 7.752777370048186 6.986911481761834 -0.4846223497747718 1.104291635985769 0.5978609320866543
Ni 4.7972284295196195 4.798069099502239 6.7921328156473075 1.8482202810991846 -0.03225834581307348 0.6203891950961573
Ni 0.9534476883322719 7.27617231620568 11.328770912217314 -0.3012026784621135 0.0749178323548129 0.39584087206398927
Ni 4.861375204280431 0.6620458867479037 10.127133686950799 -0.14025547722035844 -0.9189639490171205 1.688149568925112
Ni 8.411040241874298 7.409436783885406 4.382062644830856 -0.5141422136107597 -0.9397356343468333 -0.32048723772333837
Ni 6.94404370905024 5.978159587605507 6.93156981129725 1.116598221267264 -0.15339715680863902 -0.8681340108494469
Ni 2.4813653817446966 5.426131815974437 2.5917289025717793 0.05273743960303175 0.3731100061253768 -0.024473302551015916
Ni 2.6210262514660974 5.233234605831884 11.17078435064651 -1.05141124304697 0.8835773419877104 2.1681022811383563
Ni 1.4026670037191997 3.4273018665365997 3.725119259368769 -0.41071958894803456 0.34025850681299463 -0.567044718036746
Ni 1.6674963236790041 1.3130168602465049 2.3624453025292906 0.30531258686542906 -0.6629903175961355 -0.22509519667457362
Ni 1.1774953764177885 3.5228549753220415 8.055999722605572 -0.5137598905706765 -0.3317684670641125 -0.003373544457923223
Ni 3.8828718953791914 2.787561147479742 6.714763764094631 -1.6402643152080592 0.012350551145552922 -0.18045750336054084
Ni 4.100660247181068 6.915232486711089 5.998494663467717 -0.009648064612725318 1.745507795129607 -0.3212372285154855
Ni 0.6816408075167188 9.212006843250208 13.438434974918156 0.2640324971697195 -0.46097102890441904 0.8110794319282999
P 0.25190310520529674 5.787044232317422 7.690796234264342 -0.7475554432327254 -0.024540665453841606 1.4738563479620488
P 8.499401967221456 1.9861924865469254 8.037490362640401 0.32199184729332286 0.5992917509959098 -0.015717667845572932
P 1.9119211211258609 3.4945646028634276 10.225418973179757 0.5402286262851663 -2.452013519509874 0.31304492251268023
P 4.106179428371314 6.423495373181417 3.7767162933238114 -0.3298056869107868 0.5366825608051209 -0.7410490095727754
P 7.095994808408861 4.415628221430413 10.595195888980783 0.42469430596057184 -0.6459619013589392 -0.35763016532222275
P 6.33245629669396 8.097360685750491 10.268161559165677 1.2802376246292018 -0.44162527738795554 0.07665101299583572
P 2.7072863018567035 8.827391188484212 5.844894206154063 -0.06089220749968224 -0.12778896932223152 0.15838406850026915
P 6.835423664665372 4.130586271018911 1.5669211255191262 -0.15560393465197073 0.5940657267102801 -0.9929898656852834
Ni 5.313664792647363 2.683985122990597 0.28139508747602576 1.265748172763775 1.4517276343838095 0.4900694889322721
Ni 1.4099314888951033 1.1803189310333286 6.87444902729336 0.32597731430363214 0.7223486049497947 0.39246141406879503
Ni 7.139444653706248 0.9653084452609803 9.449661506021812 -0.010026530998066602 -0.678103004867858 -0.6737951215211235
Ni 2.711407412314984 1.5784127186728578 9.301063035104749 0.012293986876004633 0.6589410872274265 -1.2584328700492844
Ni 6.3212717308382285 2.2388229540415328 2.6307277658198798 3.221654224677413 1.3979645817297408 -1.1532788645177492
Ni 3.8818210579009165 7.126624436471288 10.275945066678677 1.1202160205255094 -0.11025250310036497 1.1831530263693624
Ni 8.466661526485275 7.074603412438055 0.20663028532603198 0.17424237568876444 1.2477162549627285 0.005288759202765086
Ni 7.748135409709369 4.262717661765539 8.462621741710096 0.31726950211698907 -0.5377781078621447 0.014825752158922853
Ni 3.154641522934343 8.372405973542573 12.308976577833358 -0.45645257220877516 0.6157812640105008 0.6055899252997957
Ni 0.35541973453262554 4.883899677184333 10.086302711403617 -1.132291720743121 1.692897882243375 0.5983049616026084
Ni 8.87233961940279 2.582940246166516 5.438338892385116 -0.30977679328436974 -0.692713298581865 0.4572244173777932
Ni 3.754094046845843 2.6375289687336223 11.380394445552243 -0.2855821983160372 0.545020648357171 -0.12337258542209076
Ni 1.2758172135155559 3.2451140609552533 12.748097801939918 0.3093404770778995 1.7736174088816294 -0.003441164471065041
Ni 3.9814404508414243 8.488308778537748 8.382726111350957 -2.4404407270706097 0.29605070194752886 -1.7045580921901222
Ni 5.847736949975728 7.921706347968858 3.3501667405443047 -0.18952655554134457 0.6210479117260788 0.414881433635208
Ni 3.0650736189164696 8.624561279742656 3.6259786828096674 1.029722702329943 -0.8015984890210581 -0.16236233642172682
Ni 3.639899994967516 4.523243116923015 9.281282618676723 -0.5260065691485135 -1.8551661162893984 -0.7293427768794407
Ni 7.551601388120263 6.464222178752491 11.38163900263521 -0.1098310992922302 -0.1215473592878939 -0.7608099942497865
Ni 8.021133848848114 9.228637488558567 2.291309087880368 -0.2235227099811312 -0.743039557640243 -0.9151990826580497
Ni 5.214027124272451 0.44770519564649097 1.4820902140989742 -1.449776938415342 -0.9812383815763102 0.698025711933714
Ni 6.208201618175796 5.710963598890284 -0.016590439352667886 -0.2535151425781634 0.18973892866246678 1.7774663503140744
Ni 8.33462151291067 9.055468609855984 11.508263091223954 -0.30628883473576923 0.05417391493924219 -0.8761576524848718
Ni 0.2787597698348551 5.027498903019967 5.641904387361466 -1.2410298440814884 -0.6131235146726796 -0.9067774342532576
Ni 7.72551042191624 6.068248341503918 2.269121796741233 -1.3313203022376296 0.9080308470443845 -0.21001876195742541
P 8.927083683162339 1.7295596989176691 3.3097908233138034 0.013472580565138089 0.80579298671838 1.6968717792894583
P 2.335454313456857 3.209148006046628 1.4309747378404982 -2.557879720617085 0.5529828406270412 1.1842675995897798
P 4.6389814430085465 1.4169675311409475 8.035965277639322 0.7856743615916341 -0.917491221126336 0.6733040408173179
P 8.78976206904475 1.885047094833618 12.601478560568895 -0.63942949955706 -2.1572313998621238 -0.9088404874298734
P 6.613349723495573 7.716793039705155 1.278328258202774 -0.7841455836519334 0.1761123390179677 -0.9581668444688274
P 1.9049947314864457 3.2308135335335058 5.9490778888371665 -0.2685288423781762 0.437123275752544 -0.7732104247966683
P 7.2096954235582595 4.136772505564932 5.711074165268432 -0.31955032773136577 0.9494186659625521 -0.5621336538883739
P 2.2806280102424887 8.77384416567818 10.210840659155055 0.478382282402331 -1.0620155009253773 -0.35358839115268137
