# total energy = -340894.6798949001 ev
CRYSTAL
PRIMVEC
9.02632953401712 0.00000000000000 0.00000000000000

0.00000000000000 9.02632953401712 0.00000000000000

0.00000000000000 0.00000000000000 13.21094566841199

PRIMCOORD
 96 1
Ni 6.503994028022337 1.9957575872752098 11.358401041807983 0.3995329762035958 0.449901915574451 0.48234152416039505
Ni 4.422603651514549 0.23279084651270496 6.140288907037868 0.6333328997410189 0.4422413137053996 -1.1449916848082924
Ni 2.628855321436039 1.6942691511882133 4.815984636434924 -0.13500657011659328 -0.7953231975353077 0.7421394144234766
Ni 3.5041294796624385 4.2839863073335955 4.887693409574935 -0.4102452204147774 -0.067635953981419 0.4011645982697478
Ni 4.833698808340577 4.51522281988342 2.63439477993209 1.9231985343782876 -0.011046744732464846 -0.4141844075681834
Ni 7.145495275071911 6.206648677237095 2.673036497092906 1.3995920900308347 -0.8024086436271793 -0.6825235025330568
Ni 5.44516945669965 4.583082766067728 11.667312731385532 -1.0669581896426334 0.01571792495588906 0.2913016172983177
Ni 5.6389828065891745 7.97385959819325 12.405884029946236 -1.0686692587964692 0.4940750105472394 0.0697951664162669
Ni 1.8886240808557446 6.3990178143852665 0.44161407994969953 -0.15915977032402912 0.2655597324475233 -1.2171463525956716
Ni 2.727097893166552 1.5902226495033893 0.21845793768774338 0.8508027186598509 -0.033744700550612856 1.4996889927544366
Ni 0.416383683358269 0.008146262494192221 4.760432090705831 0.2654748860432009 0.3271463949110688 -0.37990028957433286
Ni 8.848519966004575 2.230054025570775 1.2804787323336357 -0.4181953284997894 0.49800545594989715 0.05734202825457867
Ni 6.808759021766277 0.6132750116528007 4.714577433534921 0.3096310117351248 0.573020990224839 0.1798365819470903
Ni 1.2058364020627512 7.251933754109601 2.5516152134966466 -1.9438336941301364 -0.6513506764746783 0.7505294382593849
Ni 7.690496032010229 3.9466723689314205 3.8769638304381817 -1.209770886067207 -0.3748012777848706 -0.4045579402220129
Ni 7.662776173705892 3.954498196723625 12.735140163884624 0.3072164887563612 -0.23377524094707483 -0.059864023345484
Ni 7.827840663712865 8.68755342965119 7.030469146020954 -0.025997452505026195 0.5050903878211366 0.32932154818551673
Ni 6.825114731062095 0.8536037460424032 0.5691868071911581 0.4728770363133857 -0.25471507642353547 -1.4410210465995827
Ni 1.822722848201897 6.613862512320738 9.225308751792733 0.8480269556869265 0.20067897261373827 -1.2172862206076456
Ni 9.15188587865533 4.803415472420339 1.4284861672322706 -0.04557871707106344 -0.7945667789852574 0.8243949180902834
Ni 6.479523648386043 1.8224881636314272 6.854446691838968 -0.40752293638760784 0.3375781317673541 1.0875699523557143
Ni 3.481157470745298 4.40078701279049 0.3159215371708895 -0.1163827843678189 -0.6347498346932036 0.4195235603929097
Ni 5.991406820797751 5.706102593743538 4.6142533901909335 -0.6256854104980902 0.029608566895052237 1.305793875831751
Ni 5.313782202555094 3.0154620459665065 9.341525453722346 0.3970287217245033 -0.9708439257158635 -0.07308694979366122
P 0.34818795771159744 5.511919164339043 12.238950187072174 0.0028773215477950445 -0.2797864175698665 0.5534728928895823
P 4.0376306926477366 6.2500201911258415 12.594364624288314 0.1822721879717764 0.17353583654004306 -0.6488698190343535
P 2.3122748622019076 8.536524882224239 1.307997303487147 0.3295483194843421 0.735549677021101 -1.8469840946992386
P 6.311967891400236 7.825520896997068 5.776631625600458 -1.4841800984855602 -1.0825028222454518 0.11614932820077416
P 4.86736701787336 1.2388727685211929 12.611327805568465 -1.1662315680236754 -0.5823975463437325 0.013627360975447499
P 4.034904741098433 6.0130339065995075 8.180455133476709 -0.01901176521581242 0.6919085432923826 -0.24927359369299001
P 4.6908210365726335 0.8124319486853295 3.7560696844925157 0.28152705441005704 1.0568036177071347 0.38604394057822544
P 0.20612436087659183 5.598355296908998 3.61024752399814 -0.7150628699216588 0.43246135150050036 0.04270139552326839
Ni 1.492476525902716 1.0803794464873744 2.720411188174089 -0.9538422489515445 0.7797166013463023 -0.7887954237191189
Ni 1.867042126702156 6.304015694993163 4.8700568641041295 0.09639220017850496 0.569735891715664 -0.150545803402773
Ni 5.96393969972315 5.553106306456493 9.30477294735381 -0.358846297117511 0.4999252986804294 -0.44436915868167987
Ni 8.583678428229401 2.386931634600205 10.041785398786816 0.49418428243159407 0.33824918969244977 0.3452675299918118
Ni 2.2305956053487823 5.149593266522566 7.201405263454488 -0.10466318193804555 0.008332174014779198 -0.6315169295782027
Ni 0.493816052118854 -0.08014387818247459 9.15003277318158 0.12283856729549168 0.5520461877453847 -0.005068415661842884
Ni 1.5438814731652364 1.2162166811412234 11.396012854757624 -0.27281050047266564 -0.7911672663854051 -1.4966373504123063
Ni 3.988572591089914 6.682607038809123 1.573384031572181 0.7608261921997025 1.175472112785337 0.2921606228645033
Ni 5.46826783423166 7.75582860589717 7.906116994294178 -0.20500356813102114 0.6936399241611925 1.0424008120182433
Ni 5.085488273465775 2.5785245073998997 5.051403047503927 0.041643900793031506 -0.3194891354761272 -0.5711083465831583
Ni 0.7602083133250547 7.5007896621039265 6.903617622517208 0.2806680488438715 -1.0369963531732205 0.12100459941054645
Ni 4.910052530709963 4.173458900971952 7.2301920339215 0.8467414041062836 1.2054306068206402 -0.2445839015268046
Ni 8.060322809752106 6.981956234772992 9.150522000247715 -0.3621059417053893 1.256506856671165 0.3995229489012668
Ni 4.641907356288947 0.6882684661464266 10.461206442066741 -0.3893683769657681 -1.283545605956512 -0.12027774854685093
Ni 8.161544070261659 7.067724418950072 5.005614282539341 0.4333254992730085 -0.3299761510503801 -0.9668170639446576
Ni 6.997977969872372 6.07826719086048 7.0148138799046915 0.14738694605881714 -0.6645016120343394 -0.20722551548300444
Ni 2.5012410730782664 5.060106234536503 2.557757630812212 -1.0200016183874367 0.1921915039680174 0.14858867967640216
Ni 2.4254830884646874 5.308898958223396 11.315095420125562 -0.7477572748308863 -0.07929205016310861 0.9914358909346022
Ni 1.00675167566729 3.563315123068996 3.7545505532152053 0.1515379921127132 -1.064028417590348 0.18451701814189514
Ni 3.6284400913743666 2.529728169401447 2.8111700300055062 0.007167464282716689 -0.11968048128248422 -0.758583676022429
Ni 0.9883379632150441 3.0779152207003744 8.128549224919531 0.5981668933628472 0.9200697804867897 -0.16140331494256718
Ni 3.2950887116812777 2.630832087625765 7.115878082278622 -0.11149460303758219 -0.3692327825581576 -1.6471353312962793
Ni 3.982091686413094 6.652738914052025 6.077259852473386 0.6848760619256333 0.5836455598182206 -0.18265913899754993
Ni 0.9569353624202577 7.455423329366187 11.252000473354755 -1.0414908986094644 -0.05920170717113674 0.9825812687574497
P 0.21380757266058786 5.657468729678488 8.000944905524356 -0.6799904516985579 0.00917241052788743 -2.9376326859802764
P 8.412837087257017 1.636708247115677 7.9191167142322785 -0.19228560634372047 -0.7835848260524569 -0.03136385902326211
P 1.7033947704476353 3.226001184666821 10.33941507895551 0.6899365071676762 -0.0799160569003527 -0.3256824087710326
P 3.9526207201598664 6.129347190256195 3.838295034288465 0.1867965582046912 1.0009643992503279 -0.33662450960483314
P 7.0371702931408295 3.9629017096123706 10.358015636431169 0.3396969778825698 0.3397298880030343 -0.4447525101630276
P 6.142290946950569 7.807287711137491 10.307126995223681 1.0760254420512243 -0.6342695526226754 -1.0988990042152882
P 2.3377020327793474 8.45324796502599 5.659080832151022 0.1260961550008409 -0.04587850769966938 -0.38094672856097617
P 6.878388128558742 4.032079499923162 1.7354427538112138 0.37019617491269147 0.6401306393891426 -0.38549578138423934
Ni 5.350537416822519 2.873450801843375 0.6630164063638756 -0.6466393870419379 0.8962035153921534 -0.6485723423985927
Ni 1.2730013208652824 0.9905313613159734 6.923368134388169 0.013676469045828058 0.28261128861317136 -0.1329219196734227
Ni 6.973299984654509 0.6387391901817377 9.307507925232747 -1.0961463811708154 -0.4267470747245425 -0.8445814203404874
Ni 2.8793449950940206 1.8076398513843954 9.101707609589996 -0.5009632530266405 -1.555513041702592 1.7761774562993216
Ni 6.358841621186763 1.9987723813727836 2.608448595400726 0.21292667963283976 0.18245910717160188 1.1133082376620826
Ni 4.0131332340225425 6.885925113802674 10.260215354852695 1.014093737543434 0.8381570048713823 0.5788951896174288
Ni 8.381642092043801 6.79104936302544 0.5027376763285599 0.03792634273212823 1.2861362495018238 -0.45462297519920414
Ni 7.698078148902331 3.853701173706844 8.006467213994103 -0.8195638152502274 0.17046388248293867 0.25671565179333206
Ni 2.9725328222297995 8.432523512187581 12.306260429781803 1.1019365054900314 -0.6851678821344394 0.3075304204523542
Ni 0.32335381699107546 4.928755085710481 9.8712058213738 -0.8270300417202855 -1.4363606650094358 2.5821517057905723
Ni 8.628539286507667 2.314594628917705 5.697947304919712 0.15772869430445738 0.23879943363454362 -0.5270859182556212
Ni 3.701038860616237 3.020417500935273 11.393225524166812 -0.3327747968414398 -1.1533539407300588 0.43993734816257135
Ni 1.272757609965179 3.2594527622884013 12.516829355369909 -0.9429819091982727 1.6906774775532882 0.7487754316827556
Ni 2.8613103884863795 8.491546681660736 7.803547200137387 0.8977531192674604 -0.44208987572919994 1.4227577295140206
Ni 5.744265915433782 7.934613116946992 3.443802908190212 -1.1060183888688888 -0.31877334035602517 -0.15912711731388077
Ni 3.0112557763573173 8.44516940000405 3.333980458172941 1.4025737983669782 -0.5532376369503246 2.2435384478904847
Ni 3.4089378073480328 4.371740284030035 9.392348202723507 -0.22511653683081229 -0.2503755685079172 -0.5862647426086226
Ni 7.341195127854826 6.0858763867414805 11.340130847996909 0.7678895268043873 0.25772095312939486 0.25330919721494444
Ni 0.3828436477062807 9.056567837726055 0.16089883888113402 0.7096260151768037 -0.11462749223960904 0.3692741773190544
Ni 4.5689746128506386 0.28332565559856043 1.5761190094511175 0.07161370768224441 -0.18248019021752443 -0.8931732132062616
Ni 6.1479233766418435 5.858494116945142 0.44330290622411883 -0.9164422110365312 -0.979556622998513 -0.05522472480125973
Ni 7.922608098534498 -0.27654778467679986 11.42564539231129 -0.21813496330665655 0.12422567745100542 -0.10458424907099408
Ni -0.09353534082666692 4.775478982204799 5.908675093909365 0.1393645899749729 0.4487629168740013 0.12119254705163644
Ni 8.157400984959905 8.697410181610921 2.444553015081285 -0.14383291015897165 0.03532232945037787 0.18393209217270257
P 8.377264322171577 1.6463212881753058 3.45236347921458 0.6843464146744085 -0.04173157541083135 0.6832089586358556
P 1.8175236823330276 3.1859333074239187 1.7067354150449767 0.4586585787211585 -0.7200060728595471 -1.55523690522307
P 4.833193333881104 1.109065122062491 8.190799307236647 0.07101181243218738 -0.014034109495562927 -0.06890299361930069
P 8.529258686869307 1.781427390128845 12.21823566319636 -0.01034611912101444 -0.7992942663679138 1.2365895489219478
P 6.4693780538780405 7.851552831659949 1.233813510761642 0.24569410387184784 -0.160531196750259 1.217641289954219
P 1.6972388136376197 3.455748352827125 5.846345579891476 0.05102637044919599 -0.8512714307661532 0.46869950789692827
P 6.587568814098487 3.961060338367146 5.900576670962232 1.3560424875746584 0.28549735191171477 0.08945639229062012
P 2.48253851807775 8.55189672159001 10.090335317986273 -0.20818813650658985 1.1846807758677984 -0.025195782539337252
