# total energy = -340870.88899776904 ev
CRYSTAL
PRIMVEC
9.24525273322215 0.00000000000000 0.00000000000000

0.00000000000000 9.24525273322215 0.00000000000000

0.00000000000000 0.00000000000000 13.53136189953358

PRIMCOORD
 96 1
Ni 1.4830402614077112 0.29614394058644233 8.342246852020077 -2.1631937880931456 -0.7137089269969257 0.8677149210341571
Ni 7.75846830160755 0.5022317218177268 8.774344085410958 0.2731776540040972 1.8070785167535526 0.6023205105199045
Ni 8.986801845883752 9.078070982418136 10.805076826149246 2.0841791599611397 -1.441047271851828 -1.4747989143809763
Ni 5.8818483794010925 5.06328293373479 8.413503714147824 -0.636366287250704 -0.9248741438539684 0.47283666999375346
Ni 4.56697926807041 5.355506887095687 5.0700254966677845 0.24886761650382297 0.9842416871790081 0.05118809283804087
Ni 3.020377893040952 6.212735980349793 10.367621044183071 1.0228578568893094 -0.2049284919187116 -0.8053587273944388
Ni 6.986979683659346 5.443577166129979 11.219515626519394 2.2946265248155515 0.16125933316553517 -0.8497097427059882
Ni 6.366540007435084 9.031428681585886 10.636868695060656 -1.215075586109572 0.5153367481394932 -0.2478846837652634
Ni 8.242401818904526 5.600330428887319 5.002801413850847 0.4303515042463492 -0.3162490312722747 -0.8005253105615374
Ni 6.618325224653216 8.871855616696964 4.33543468300531 -0.29850764812845365 0.6250382638323946 0.19150527653427019
Ni 2.2103920420569736 3.8128532350504454 5.650737396696554 -0.6553194313144391 1.336458909015776 0.5645242656077375
Ni 7.142429365759135 2.1083706764110137 5.239627811892253 0.030476828432618484 -0.5824762221004678 0.2628626452313344
Ni 4.7235476257699425 5.776498722714575 2.1797810097367405 -0.4055280174447661 0.6024727198270526 0.47114539833425956
Ni 6.851342578503761 7.485548436281883 12.300400330547191 -0.19513464575674136 0.31382808053560796 1.5443246291859405
Ni 7.008216029548677 6.4115828795172884 3.1402370496137193 -0.6760330097127066 0.4024473216369134 -0.5255280868501981
Ni 1.4616005199547903 8.185552758881236 0.9838798126001872 -0.4254453251939834 0.9964325728182452 -0.8913503010649101
Ni 1.0306792827315736 6.267449386955392 6.318469315031263 0.7886884658276094 -0.08792401480649373 -0.4074512026094079
Ni 0.7509761753601935 1.1879687701565593 4.969663653915658 -0.8353167072091099 -0.2827580986036808 -2.067053041803814
Ni 8.641010897275669 8.036907582908807 5.530037846636047 -0.02181323922034953 -1.194567438853891 0.19910314348618613
Ni 3.0829127835918606 5.685081662133945 7.873033626375253 -0.055606276510394556 -0.7814526102008026 0.2918068390695103
Ni 3.805974766899961 8.457640551446763 11.540668900699753 2.1932096177289453 1.7035021401217825 -0.28695182497005417
Ni 5.021004392266826 1.8230899079708336 10.339340740116516 -0.4673622771427435 -0.5989006862050782 0.3442951387762135
Ni 3.80426439511523 1.7829007936561085 1.9576360732853468 -1.4674298756104147 0.607482000116186 0.2942943813780544
Ni 3.9929045350916845 3.5102745984522596 7.080812528820247 0.6534499822058681 0.030025599827812804 1.1895478741521126
P 1.9491859121434885 8.514064329837094 10.42664551221148 -0.13417070447885926 -0.38472625020806644 -1.8680308880672085
P 4.229629235351295 0.8713475189430906 4.342944601928211 1.416787885083831 -2.493204649036203 -2.2993000190318207
P 2.9365234493246986 7.17730245966186 2.344714472251539 -0.3197025370385139 0.19898153030665733 1.1440774005241394
P 5.068256879789844 3.6297787373140338 2.275027454064589 0.026772125887521633 -0.3798267560239201 1.4164688111815154
P 3.366621859040667 0.25840389376239403 0.1605012882791232 0.8504862158606966 0.4688074942297023 -0.12988467550899568
P 5.219703367388075 6.817495707671876 10.80107178259711 0.5465555969444587 1.365711635233306 -0.06495275072230103
P 5.477008000581795 0.17678125409389175 8.48235126337232 -0.6327490022130909 -0.6337535322182053 0.4646021978991031
P 2.2935900728180063 5.006905381608911 12.29309380718788 -0.0478428305148918 -1.1501318342483353 -0.8495925004018335
Ni 1.8365972224437603 8.6020236658367 6.227484932285905 0.5297133285761393 -0.24631939616067255 -0.43248012055357776
Ni 5.153701507003253 6.703880794901309 7.166426344161551 0.15005472269896739 2.0873876395961086 -1.1449420625172797
Ni 5.114113334126406 9.15072017963118 1.9644831075760039 -0.4444642894986474 -3.8083249444752028 -2.2031196777538056
Ni 2.1004752304425813 7.192889956035134 12.17401772353493 -4.070826349712377 -0.08652404913517357 0.35323280758547554
Ni 4.321305163012857 7.8062755043039935 4.1582688263911765 -0.465389983907721 -0.2654193502149171 -0.18059222916619222
Ni 5.9783780648301335 5.30510176833703 13.447156536894056 0.586669434246209 -0.763960109842994 0.33424649629095987
Ni 9.026611904829968 6.737635213204291 11.22230307026586 0.417398543630107 0.0922079868938283 0.8177740703396561
Ni 3.398333076454862 8.169882055231946 8.410458327845713 0.7837681457078567 -0.9920547554655238 0.18946330640357695
Ni 7.766289785552859 0.618551795584035 12.651633959531873 -1.5272866998670473 1.2728346472969112 0.17585779980500038
Ni 5.472477826665481 1.0774879981158505 12.531123937155622 -0.9094061301253564 -0.5009437126426147 1.2044314761321644
Ni 5.965823011404922 1.5379108373124482 3.0012966156003817 1.1311447516228712 3.340728439834466 1.680545531325609
Ni 8.644477867109583 6.621339177095498 0.8496424387322141 -0.0472501912362154 0.38148588889389784 -0.27933441763411243
Ni 9.031669058161038 3.4239516722142596 4.924739121070451 0.3358950876379764 -0.36338429419718066 0.31891089437515396
Ni -0.018701297546773712 2.5753946261713825 9.002847906800392 1.2177145663943156 -0.4584194661271589 -0.5147947595930941
Ni 6.866856112853912 8.667849866416605 6.965539017681136 -1.222425341606424 0.21509849047317794 -0.7385082454287927
Ni 2.388631272531687 3.850980657970603 9.98487312167076 -0.39719018700303205 0.2519719664607596 0.29104964918851167
Ni 2.1518695912605144 9.221936362646208 3.106584329092533 0.4816774082138349 0.48501572855844854 0.636702073323568
Ni 7.627028541264223 6.393064637977745 7.0589327133297415 0.48458943965430734 -0.7875162998963792 1.6516872123330197
Ni 4.378413090117079 3.062989263612971 4.6116098018737 2.5361158465774323 -0.7628015707585185 0.012060530708959873
Ni 7.124632253945046 3.5480322112567997 9.616753038281693 1.126822984319066 -0.429529522565686 2.3450224607696
Ni 2.9788944433215665 3.981431176254653 3.2020341689839706 -1.7881346286611977 1.392844744004672 -1.0728249328360557
Ni 7.4344961498208955 3.1507359587960986 12.36978965159107 -0.6044288151121591 0.35244450735622523 -0.16275622942603585
Ni 3.205107291044752 2.365934176685667 12.142286166564377 1.017182403771087 0.740052449987461 -0.06179723581245486
Ni 3.7269001189280626 4.027287630591215 0.6422390580146208 -1.2946471151863124 0.22250661001179098 -0.8333616403652679
P 8.81705900281535 8.909234174132996 3.7920560386734095 1.130298601572492 2.7279787635614374 -2.8936691359151325
P 0.06192840196129575 8.476463886331691 12.768721389288089 0.6511907538580463 -2.082685349024432 2.134031564706892
P 8.201112519495839 5.574055420172701 9.163329780048446 0.10664550247539697 -1.8267379428556925 -0.5682806473263762
P 6.081952632961687 7.099291015772362 0.9990558952198377 0.3627214638022011 1.4369612747079121 0.5760731467876014
P 5.23593803146368 3.156523487105511 12.939337908754638 0.4221376009769891 0.2074132060137783 -0.5142645981212369
P 1.5916812281232233 2.4958946965665243 2.3577992786673723 -0.8762337571384456 -0.08132836386684704 1.2768836205553042
P 8.569239999087216 5.002652565279311 13.120089998964971 -1.132250325982224 -1.0355359665776103 -1.8539785237392008
P 6.462773844771632 6.950451689489234 5.244201438497151 -0.893029745649862 -0.3928298531518073 0.12407192548196053
Ni 2.2255819925559597 1.4327368404308494 10.28294192390899 -0.34336697053498927 -0.251292938115864 0.32710242904701087
Ni 3.5255754919859306 7.29692678681121 0.2292647057023182 4.501233132676693 0.6971026858988123 1.4702264645189451
Ni 4.946136334360077 4.7362413579885105 11.334477572636098 -2.6973805790596064 -1.5840623140951946 0.3038750830879541
Ni 8.99055541855727 1.190122914080031 6.921927310746372 -0.38970287748705146 0.5291201750768306 -0.085489180112756
Ni 0.6692601586374977 7.192030147516324 3.1137826829930257 0.05880498595335034 -1.4344022557314844 0.22960671139168198
Ni 7.657926176424059 8.45652187584702 1.993440164154138 -0.3100601288527434 0.3040365483664828 0.08024644365657793
Ni 1.8524435858979673 1.8956651431607552 0.39937643436104947 2.5146700179988306 -2.1361894915901596 -0.8367195010939075
Ni 2.8346037814605336 1.6663828714779454 5.551850171780452 -0.9782224775681218 -1.1470269700707665 2.0384232938822637
Ni 8.665048554790802 1.9027285163690482 2.9825287522327963 -0.06795399944247006 0.4923857957702746 0.3905402857866822
Ni 1.9055020922361792 5.848010753822098 0.7754215485277949 -1.0523417252810392 -1.434765295497858 0.9993456326999821
Ni 7.012163752532894 3.4711024619554824 1.335752288559599 0.5200544653301367 -0.4077453368110591 -0.611680868688882
Ni 7.75317077170133 3.828366769400597 7.2495892429616 0.14331380443070801 -0.12029008984202509 -0.9175560129260004
Ni 7.5536489690728335 7.525931700907306 9.360116836871953 -0.3521722275314451 -0.923917436367654 -0.6921499698792273
Ni 0.7258161441441612 3.7260495556621427 0.5674283206757916 -0.7493796409256578 1.2474324051737227 0.5372543741481909
Ni 1.1463651321495978 6.829949063315293 8.832204576100462 -0.5986307203731432 1.2608473930280477 0.880065215069394
Ni 3.4968967175197987 1.2793118687140659 8.182157902019867 1.4250645232703263 1.0893046756586338 -0.2687455863746726
Ni 5.941313845992377 2.28072992604741 8.189829612868351 -0.2674584921321329 0.8273059210894912 -0.6997288106677497
Ni 0.1428678174411948 4.510472282404066 10.593122007433692 0.39344948901367727 -0.5468548733524324 0.887203368776072
Ni 5.22661881655012 1.25097516860488 6.302597064868963 -0.49898916001940513 -0.7705871282412083 -0.700530994854071
Ni 9.26096982034963 0.8150143440310865 0.9214031671424885 0.32466116659536987 -0.5266064075160415 0.19116486247571593
Ni 8.755420901794814 4.796067389442521 2.5570354029815547 1.0049048719553144 0.19098899901948396 0.5543828062983613
Ni 0.7676675549285864 4.651055597856034 8.006466663241758 0.0117918504286055 -1.2994486503400136 0.2691276523044397
Ni 0.4862254154885151 2.427054543544339 12.002737394910849 0.8905059507867438 -0.25091935682652916 -0.3809834953361826
Ni 6.783094121666564 3.9598435107554852 3.696335312872282 -0.6625717420014783 0.2308611526240734 0.6601934715772888
P 5.879851404776759 3.8542164964822554 6.0422267058167725 1.1923483197153852 -0.6451296352656309 0.39042227215157926
P 3.2774513949124127 6.913711054502643 6.112197553267459 -0.7183520821958919 0.579579360168647 -0.1273634517490387
P 1.0940739818012926 5.065871604544111 4.3973547642390045 -0.509593932118445 1.013417537412016 -1.4466733597893537
P 7.240216405581276 1.2294244841172741 1.2887577435922244 -1.1548886322070306 0.4862118057490788 -0.9778550669263738
P 1.7343354802226492 2.4455080683136488 7.494304615294414 -1.0072538318034654 0.3858305390158387 0.07739020515470542
P 9.060486511420526 8.11015772155973 7.527158545965867 0.8749456344546416 1.048102233278395 2.127324327890046
P 8.217337938318554 1.6800196194913382 10.652335078621066 -2.1639414648924475 2.498209301339646 0.306678099754388
P 4.4393023256534905 3.6722052028282444 9.556348253996742 0.6598450870989346 0.3273104312927589 -2.446683879766844
