# total energy = -340890.91952804895 ev
CRYSTAL
PRIMVEC
9.03703010016796 0.00000000000000 0.00000000000000
0.00000000000000 9.03703010016796 0.00000000000000
0.00000000000000 0.00000000000000 13.22660702860210
PRIMCOORD
 96 1
Ni 6.072459504111004 2.0954161752655596 11.375318293086133 0.7648867354223213 -0.3359488236940472 -0.9980371983012036
Ni 4.622946983025612 0.15112444738746236 5.861621976464411 0.22577782456389503 1.235044315922015 0.4691970163586371
Ni 2.8219030270773433 1.6022473672412696 5.01998709419591 -1.0598120655161554 -0.283638444326105 -0.4296709332395568
Ni 3.4059482100465184 4.083119988461898 4.716250704262283 -1.6255192956884004 2.5058387928604455 -0.36123742305750695
Ni 4.842890222226945 4.51412306625092 2.658508100185091 -0.2800242446122855 -0.02298334826905074 -0.27930664971997055
Ni 7.277927026649596 6.254257439151402 2.5722975438941487 0.8513796742092434 -1.5089735033801561 -0.47642413023469565
Ni 5.2591900520013155 4.581765236742413 11.505401823231733 -0.5999111297474635 -0.4369085886385766 0.06391402504514153
Ni 5.786591130142075 8.161007536480968 12.44960970853692 -0.2504884399366976 -1.5015625556280656 0.5679492321288863
Ni 1.8195879417663772 6.513132204134615 0.37782377031083203 -0.15343855156953573 -0.6387247601805517 0.22232354746670743
Ni 2.9243377635531065 1.3389083093759209 0.338937429679583 -0.866322925782637 1.4287342588124299 0.3540987551301966
Ni 0.6469790607651353 0.024335818425724003 4.52041826143654 -0.2247864071849032 0.8625801709107531 1.0239361775551528
Ni 8.565224856977164 2.4352627301757965 1.4536171401685236 -0.13441187395538787 0.2992080166295879 0.5878053476228651
Ni 6.9155330815755285 0.4859753320441658 4.850580734863987 -0.4179762705104479 1.1966677730263457 -0.5839471502190395
Ni 0.8722098662930652 7.552978075557962 2.5471800223625447 -0.2584732579143871 -0.6643442605208688 -0.19479603147039998
Ni 7.487080051880745 3.947013277737464 4.038334274564537 0.6821190680057865 -0.8552422424884433 -0.26079316429681537
Ni 7.397721897996991 3.595409546633582 12.414030017228695 1.8907067323981697 1.1213707029552429 0.978762666342308
Ni 7.637022455727753 8.756755673463033 7.117263993964369 1.115926134900904 0.816228323119091 -0.6527092473851016
Ni 6.792557175623858 1.0256306230354892 0.36223850815590475 0.846967918294793 -0.6173725197570207 0.04637524483042981
Ni 2.0111097212221196 6.408031543771745 9.069088086452307 0.5926930147324696 0.7764883242169918 0.15544555469723553
Ni 9.192105562742556 4.778058568104569 1.1401641354436516 -0.8354995126438772 0.6521276638500189 0.5061460827791605
Ni 6.382158526521626 1.9328761514232067 6.998091773992641 -0.3642435568736824 -0.5380588723273572 -0.12961650944927355
Ni 3.381268080773002 4.217337959890044 0.6136468788491932 -0.14142018695242098 -0.1641112007920335 -0.656274853249173
Ni 5.802613784555091 5.471659667288625 4.7935733414245165 0.24648780341773677 0.327108856804914 -0.2140119422772185
Ni 5.370607596422107 2.809739184528038 9.079907218918896 0.07183790787790854 0.7125691569655277 0.4035276991852857
P -0.053226300034843195 5.486218322821264 12.237759129813226 2.231356818222628 -1.4571930283737549 0.45502355307173253
P 3.8471179467270464 5.921224804956007 12.621158747711666 0.36290786878139436 0.3906603563043143 -0.008508808801959538
P 2.6609264094467515 8.53929761754629 1.6514079074225225 -0.9004008413029525 -0.27284701013755586 -1.0494623468507152
P 6.194522670019969 7.612703807659269 5.493075621280708 0.9136631056294974 -0.5463874467977107 1.48561991625588
P 4.771813980287653 0.9734327370289603 12.527633619236914 -1.5275844336131241 1.0752744228178126 0.9438545416112133
P 3.9960301291397173 6.265156097483098 7.941175452750182 -0.6668605991848192 0.25823800197512947 2.0268816117912514
P 4.894166331160644 1.0636674828349144 3.6584527724940643 -0.5089429287980074 -0.6841965193601055 1.365997799015157
P 0.0778639552667684 5.595195869108094 3.5879549004828224 0.7963061302738673 0.04960120796689522 -0.5237108311358013
Ni 1.3960946360118827 1.1585201510351444 2.587732791348988 -0.1099254587782494 -0.004289371403973258 -0.18360736184343218
Ni 1.5488023710773824 6.730373371328338 4.844641598665322 1.7699988382924357 -0.34633453780374546 -1.1636686923925055
Ni 5.909069999436828 5.515841707573584 9.051363759266607 -0.3376688917089475 0.1878892770482377 0.4995216354841075
Ni 8.787553872131705 2.325598369599406 10.296225503529518 -1.4004117577186526 0.061093781987527046 0.025693805221678332
Ni 2.28224773608602 5.328883628331362 6.717568803343115 0.13545651316981833 0.17454628008242842 1.0077767941864708
Ni 0.3521269751481649 8.823024215375408 9.406458495108078 2.145033829354667 1.8140536625198047 -0.21782103161066355
Ni 1.544636300189396 1.2118928509580253 11.536630184534394 0.10080678430643283 -1.4020693479267337 -0.660603562531514
Ni 4.229899431764884 6.890410137825849 1.3921138242414748 -1.157101580697949 0.023727168413610746 0.06305321970674302
Ni 5.818889475811628 7.7123099537056605 7.85659156188188 -2.4699852734969463 0.678388911539393 1.117784014045249
Ni 5.09114647681236 2.7832697232896164 4.97596862415623 2.1082264307183305 -1.0152437919874773 -0.14032361145413252
Ni 0.6200441924752359 7.5773328717469495 6.859966190738107 0.021625291579259527 0.4686925659183928 0.06139177284392008
Ni 4.68948663584176 4.584593827171783 6.9654491174752975 0.9221351476562506 -0.3863643000321217 -0.5067657186410305
Ni 8.054442877237722 7.140853353701703 9.283081345018823 -1.402827309138681 -0.267134790244127 -0.5412364987243904
Ni 4.724478016488796 0.2441633836414474 10.461703465865764 -1.520392800960691 -0.18098226551575927 -0.9408486649053537
Ni 8.126269192677453 7.300564787114686 4.61448561171884 -0.16037410234710445 -0.2938824906516164 0.4960717292622941
Ni 7.274872510467082 6.167980912540542 7.011451215627589 0.4553439125256287 -1.0826496322359613 -1.085128432793757
Ni 2.25170257426087 5.184010998384917 2.4934801819491104 0.09407872155397991 1.5274697624121307 0.763206519506421
Ni 2.1760084099273023 5.199690245653153 11.25315752725181 0.20869490093967927 0.6651672706427963 0.9808097786793237
Ni 1.0732738458586228 3.550622025330196 3.6889003343938565 -1.313235933932093 -1.0298489434951619 1.6312322869127778
Ni 3.4138465743764534 2.501332457425404 2.800165354812782 0.8727357712875162 0.28962320115463025 -0.593601642589668
Ni 1.1190915885963484 3.4541155806169477 8.219595506489439 0.26025503240515824 -0.46733039546354355 -0.6857265828513868
Ni 3.785855919504356 2.5106044503344584 7.0881783125045335 -0.7299716687126913 -0.3166100141561192 0.02013276619413307
Ni 4.20662907919099 6.865928823215099 5.8545595374211095 -1.644543145089071 0.06334221170207156 -0.45336030643669667
Ni 0.7501006115304577 7.45009148757591 11.404469944865887 1.0330317120985175 -0.3950610564751712 -0.5867784490202475
P 0.16877647833215645 5.928318873604748 8.007334646598034 0.35472379030870516 -2.6078689080510187 -0.9120391968728292
P 8.511011713252586 1.457103626391051 8.227611352211008 0.4735673775121908 0.7027871378780993 -0.6112432669308312
P 1.704573659355523 3.198765257382792 10.352571386363781 1.0010762422378436 0.1496826840715293 -0.166313607759991
P 3.8638183783994955 6.212804581964431 3.633018051205045 -1.4952237578942313 -1.0726863503756623 0.7592081969803053
P 6.948509204504515 3.8078520508305145 10.19361364126329 0.3694276721777831 0.926514507670869 0.6796898897390037
P 6.1745869815624905 7.733095122994965 10.348206500813028 0.6174568519407108 -1.165898610164289 -0.7507801208176103
P 2.299029501029601 8.570177149486094 5.867481586797969 1.160988574457181 0.18435503864273411 0.0020198586435061987
P 6.750272911665315 4.128268990970316 1.8968274382514538 1.3274006554682494 0.7302166948439618 -1.9337398002292439
Ni 5.367191599034561 2.9745565399620886 0.535604894088947 -0.6475546997673557 0.2797797327016472 -0.6120230825196492
Ni 1.4184612855731982 0.999685309544363 7.24119692140636 0.012666282613758831 0.8071014211171585 -0.19727766024167315
Ni 6.992700281819599 0.5724551918328568 9.42750212345898 -1.4155033619444524 0.42000975600070894 -0.3674651491347736
Ni 2.9536719633414013 1.6296928277332758 9.279509910713115 -0.6267801862241656 -0.8544128046086125 -0.22954346225391434
Ni 6.359547877146913 2.0998533570573197 2.5169836899002496 0.5020084064617031 -0.11510160366255016 1.3378948701313538
Ni 4.101736270521013 6.5988845829981795 10.535786327727903 0.1457000452746975 0.9560384852719147 -0.6305435099213399
Ni 8.465166859424484 7.138720614592018 0.14748975387087201 -1.8701803303100437 0.4687365317824508 1.3462650964729201
Ni 7.6364983079804585 3.8192025606684994 8.10055613086056 0.7607354322581091 0.3065834831580526 0.508584259907008
Ni 3.1319906417833736 8.090274701686456 12.501100898787612 0.6120547070885329 0.8484324186554613 -0.9354370069714792
Ni 0.22049630544503143 4.9249464557690645 9.941766070905889 -1.2995607504378457 -0.3363627713030143 0.516596074467891
Ni 8.532284882168682 2.3583937519258766 6.252944358674126 1.2099297802425744 0.6187231202476441 -1.7131239794822624
Ni 3.601852949113266 2.6851185390934753 11.341921044553285 0.7483565989777822 0.013568225602737922 1.5476135843498573
Ni 1.373230949793649 3.3869252616317427 12.611926517735167 -1.2523067025468884 -0.24727430387477414 0.6201161439404288
Ni 3.2671846124651034 8.469360041402847 7.9817417772818136 0.13299313923099032 -0.4634973948706985 0.23855415039295688
Ni 5.459007825112528 7.544528452390353 3.313542769604351 1.129946360439396 1.4178456369243841 1.105423178487051
Ni 3.3202590903938334 8.511065935433342 3.8079270581805584 -0.8240431911778194 -0.2550092106251866 -0.30707122142774856
Ni 3.5276950799010813 4.174321696491312 9.474205495149032 -0.3579911482060673 1.1368142912038226 -1.0845941575568419
Ni 7.300944342379969 6.029262500109756 11.150334198480637 -1.2308863278895832 -0.6880567736464602 0.918767002514966
Ni 0.7890267150942601 -0.08504839421676676 0.42623514069465746 0.2623854484845997 0.46939062042668195 -0.006640902355285337
Ni 4.721640389029299 0.3997819461104622 1.5150544857756543 0.41853085746233726 -0.8969164822987779 0.8883819624652056
Ni 6.092485562869742 5.917402141212801 0.2972206912129385 0.7092298081796494 -1.1560101474059832 0.11278375416265092
Ni 7.928177492320266 8.873161658513258 11.579219900111188 0.24178011352942236 0.42402401936642453 -0.07407013964253695
Ni 0.16095854357034062 4.936920520685728 5.698736738071253 -0.8256976960621071 -0.7860271169453624 0.9359527702656333
Ni 7.959129320501076 9.113935252154524 2.5491238875426006 0.3500508103130681 -0.7281330728420556 -0.49806253444007775
P 8.383535366298275 1.785021301535253 3.805479830422496 0.7717796058874128 0.6014388792458997 0.22309205020161577
P 1.6653348745493683 3.1823901587948713 1.6820145210525281 0.5042732912364799 -0.5149796219103905 -1.7641680905432715
P 4.8861143373185705 0.9888770215139252 8.168012138531463 -0.42366920713016715 -2.1299152285456735 0.21635935946347257
P 8.720083405212602 1.5841100477788208 12.7150417425794 0.12248401216955034 0.3407105067487487 -1.3362910159793437
P 6.5227385671583225 7.902114697437505 1.4049039329784971 -0.2005822991348739 0.21428807875674064 -1.5066636243000568
P 1.881500635158124 3.26506994741567 6.099568787082331 -0.9048172252030934 -0.2531973542274285 -0.05037253891528099
P 6.645352991904961 3.961228526125322 6.1779496604722945 0.7685757542381344 0.1544096572335534 -0.6107678699563094
P 2.4449233153802594 8.438878138788576 10.168152712586904 0.008790087487804217 0.15445670842140496 0.5953733897781102
