# total energy = -340859.6173603825 ev
CRYSTAL
PRIMVEC
9.41188401752374 0.00000000000000 0.00000000000000

0.00000000000000 9.41188401752374 0.00000000000000

0.00000000000000 0.00000000000000 13.77524362746452

PRIMCOORD
 96 1
Ni 0.6920520594459947 7.256383671932561 2.4991874186805045 -1.6861299673919221 -0.2855567443947405 -0.1065197755308101
Ni 4.375537772218885 5.1298061490902676 4.822767907292801 0.7714831576929164 -0.38448713761406683 -0.4100801555918228
Ni 9.11547545393776 7.473233477312105 5.0572772304602625 -1.5286416712330446 -2.8359373284213034 -1.656622444851108
Ni 2.1463424790617833 5.499834365170857 3.8399319295688907 0.6838864443188545 -0.4417291499556715 -0.41415046900645447
Ni 6.862204561728538 5.877552090409218 6.5200844638298685 -0.0787307783429999 -2.8478986145482375 0.45335387867879345
Ni 3.1909015914939856 3.4644956449912923 5.757638101025575 -3.171927803986563 -0.1769759725698436 1.9566383020939722
Ni 5.368736234132155 2.74763950667823 5.812960213483926 1.9358630172198334 0.18666568905378175 2.3518091446741303
Ni 2.081701660340138 8.872422963741522 10.649406411669004 1.2972572991156495 0.22324888749445423 0.2417451465264288
Ni 4.926208276261695 8.140790167683413 2.122145466707171 0.48461412224465567 -1.3618932899284804 -3.3639092488263027
Ni 4.992044404240424 9.49630851275167 11.686641196039297 0.5767809714879034 0.7225437516797362 0.011952030155553609
Ni 1.843430407172233 2.793230672357853 3.3894396355303673 -0.35422936717078995 0.3859986891625869 0.3055067051541061
Ni 7.212439585937895 1.6425431569109052 4.722222633815865 -0.8103502670717593 -1.257169172845512 0.431370946649799
Ni 6.85555035980131 8.102719097251109 6.071741844077312 -0.8545729843355605 2.344328262916053 0.05320769437123095
Ni 1.7763989699364207 4.022912129495361 11.006185518763795 -0.19022101050520787 -0.8554944677085654 2.8438732954389283
Ni 8.649803673522669 5.768289530051097 11.922514301185906 -1.0890632490717889 -1.1743241152238229 0.8180142113749203
Ni 1.8543105449768662 1.5879918777451139 12.672893687624006 -0.6063972516924395 -0.5699351522106637 -2.6831703489974954
Ni 4.378822519704886 2.3982139044854804 12.394358395071826 -0.16440430655242008 -1.0304037875573675 1.5855152444916372
Ni 2.2968761503829827 6.6979201280089224 9.282117564577844 -0.34929336332175326 0.8217104292795848 0.5692332410476326
Ni 4.9288059562219715 7.184928649257149 4.080626742844662 1.1900731505279634 -0.15935183173017717 1.61246991870361
Ni 1.2277708447029572 9.274338642522887 0.8085024755492709 -1.6813829396252398 0.8470951879012766 -0.03631657504284713
Ni 2.9075285906099873 8.5590072294039 7.7942530726638815 -0.2799723083284275 -0.9910407123787125 -1.9226501180739857
Ni 8.974504256673228 0.7975686900063275 12.93758504012702 0.5448393855843003 1.228392357823136 0.5230860530676088
Ni 6.368852430722248 4.5035111577981235 8.8161558981382 0.14297107637930861 -0.19856372604294836 -1.8852081711774433
Ni 6.818844012536544 4.195544904246732 3.941496510073717 -0.09280859659230467 0.043220244141215884 0.9948708847580802
P -0.06114053909401284 1.5851306650352448 1.5729403929897765 0.4519161177910024 -0.13885371177682537 -0.5187969387739517
P 8.75622384493875 2.6887117014924082 11.515883268563604 1.8615915601997681 -1.4537588058812252 0.940301019932
P 1.7307136854176572 6.650625411340858 5.68402399218028 -2.486236702358802 -0.4898239485803693 0.5271643369020406
P 5.226494432539228 1.038196678906309 13.827589724429945 0.31017634271563355 -0.7896521152924594 0.042861832360532634
P 4.132965288102262 8.988763260803005 9.368047123524661 1.5228245503306355 0.6419059861220107 2.114353626661991
P 6.517381370769756 5.956517796448036 10.386134371260228 1.0244979635958937 1.044505259955756 0.4738160031878872
P 0.9788453389443557 2.1294763830878187 5.377262459769886 -0.12318746599447816 -1.9409520017069672 -0.2955220831375685
P 8.819932887152905 4.671437990592473 7.83453217106242 0.25722498732958277 2.134645029921175 -1.3100413382541953
Ni 7.890339936730736 3.239297498579993 6.568339192657166 -0.7525276996363363 0.0648650761045012 -0.4908081668705095
Ni 1.3027365000783075 5.56463518591904 13.217098227417868 -0.09121039886724937 -1.015491389221909 1.1235455991193746
Ni 3.9759374168803734 4.887600728446293 0.1912908934225696 -1.064677621138573 1.936682942017968 1.7057325721141978
Ni 4.217841657239099 2.7775504737570578 3.9937597602600046 -1.15036529041538 -1.7444906667190019 0.3249401312883694
Ni 2.344227338354531 2.141645948988676 1.0119224637718673 -1.2070887112493534 -0.15806293771542454 1.1646323418573554
Ni 7.116918376094277 7.023637194622199 8.486955493288336 2.806316677341393 -0.4376999741916204 -0.0381032346296247
Ni 3.870976087470969 3.106025222357148 8.045871318410292 0.9889349788896196 2.7797818642756575 1.2588697004763867
Ni 4.012069639226383 3.4461048238232532 2.013843859696673 0.21350029274812263 1.3418685100671213 -1.7910978250545797
Ni 0.6421088386445184 1.4897788691020781 10.235790819994092 0.10698334543078994 -0.15006526422192865 0.6513568471222653
Ni 9.347553687490226 1.6029003018649575 7.439746935534332 0.37424129151634256 0.6077506803965405 -0.7208208554513585
Ni 5.1029352205156755 4.428027848807501 12.206987551299454 1.969646541428182 1.753964153427076 -1.8501573502208977
Ni -0.01634373641673516 3.4710463161954666 0.20040630299331996 0.2910977288176277 -0.8043369709981439 -0.24829837426391432
Ni 2.707770766418345 7.273249767906526 1.0893079145015179 0.7272146747928443 -2.2058954407267297 -1.1018166920827153
Ni 4.395632144375366 1.0862914057070672 7.400349730658541 -0.0006222069650311864 -2.530340891766868 -0.8326612718641336
Ni 4.147083113973326 0.8195972043071443 1.9304489210879061 -0.2702972471325087 1.5054986574576783 0.5255874793332239
Ni 6.6299851499173625 6.319327097566555 13.515387181928842 -1.1081017537604787 0.9677596303635849 -0.8067923745171718
Ni 9.210893133058326 5.1989834958584815 3.6106565550460274 -1.1608715892633428 -0.4199416217669349 -0.29301731443784373
Ni 9.108284774627432 3.547291987783126 9.496831813497291 -0.32521755331947216 -0.4125473861853927 0.82677935916206
Ni 3.0501092200238205 6.390189171555383 12.011295660958679 0.8120680210938144 0.10736335447802799 -0.38657255938818585
Ni 7.1535494282877305 3.882966827577459 11.037069674639337 -1.0878926258024555 0.7686706279447859 -0.08364595625643013
Ni 2.6153648901502735 5.540766648313028 7.156211109058621 1.4679119574531558 -0.16717209910554434 0.03441267315191493
Ni 5.035150832566739 6.601674203103922 8.280973590264338 -3.05161765953988 0.17118996201568581 -0.36233914076211793
Ni 9.081799733293316 7.680040802555365 13.296911944197342 -0.39579690619993124 1.4084649670404323 0.32284879597697946
Ni 6.16535808861673 1.9942746706625953 8.593272133981364 -0.3334574247307612 1.1253926796304423 -1.0084056860197212
P 7.097059301035646 6.566558464220629 4.545389335273657 0.7060784070348614 -0.7249443907014289 -1.9173035090500916
P 7.140890444423342 4.228100610705406 0.0036301636256462723 0.18189732113086093 -0.08484357610895711 -0.2046004191553315
P 1.0757877432589955 7.231206882462497 11.720363034914921 -0.45965488119615683 -0.14990174206087087 -1.1667483597590937
P 4.5515117657597415 7.107675906090686 13.623826202444484 -0.22697210198231232 0.5175358126733409 -1.1023697363727079
P 7.809633032167819 7.594091478652327 1.5799381286798673 -0.029673872915348898 0.95567287440238 0.0686988480282946
P 2.229374118951468 8.680702888412473 2.5227425405521795 1.1636743488194603 2.473820073862004 0.39542949555818346
P 4.849972016557949 4.793274827859756 6.934457712159861 -0.031656707673332576 -0.04858279400470988 0.24303018388643954
P 6.859399820322153 1.01768818385761 6.82333253997515 0.0227977146208059 0.03480785170780457 -1.0171176119714225
Ni 7.4368941935199855 8.705107903401585 3.4526545538390354 -0.0835870779940367 -1.2743174024900248 -0.11140589997851781
Ni 9.105169441051885 8.59735124446971 9.99431105559989 2.419212156709137 0.6959441468143368 1.7582252426962752
Ni 9.20263891086571 6.382207893996274 9.874631422125706 0.6241368350640477 -1.565972032252387 -1.4396290513480627
Ni 0.7933342834333996 9.039314489305328 5.866614540112709 2.07759430765477 2.5547751135498324 3.583956598664324
Ni 3.9278897494991853 5.113693003829426 9.961346873379346 0.08900979167150477 -0.23851764072806664 0.12057368252071492
Ni 0.29386631025976406 7.161662472221635 7.507259320038152 0.43484553546196075 -0.7029226350146991 -0.03635154204584062
Ni 1.7530198502939387 4.473402541157101 8.950147242292077 -0.3530893400290758 -0.6345168927467911 -2.1043589773431237
Ni 5.23851340829746 0.062243611888738636 3.9128721475259387 -0.3420775622996044 1.9869757767352487 1.9711748051472504
Ni 2.0725344854078607 1.7964274589055036 8.35879010527725 0.09196321787287388 -0.2998510495302255 -0.16491029965456114
Ni 6.9224312068944975 2.055461327987787 12.719522984099347 -0.530152472996087 0.517150147199148 0.9941432625634363
Ni 8.69196891345758 5.799941695654022 0.810123201959269 1.5022109878453418 -1.5450985312374874 0.28882153118894127
Ni 4.989973789779335 7.281795758500476 11.05909630656337 -0.4052462245382891 -0.5801925682726137 -0.25338041677251205
Ni 6.823832311010986 5.582856593176627 2.0088160313097916 -2.00902864277023 0.22718190400027327 1.220998122241594
Ni 0.7609404613780475 4.1436477763447 5.728490437732175 -0.4362478151261261 1.4181204878523255 0.4563379010077818
Ni 8.171247024029254 9.087898634069616 7.9669536129794345 -0.8163370807828134 0.11574335101160711 -0.54262720842433
Ni 0.12287120330943614 0.2965261086538725 3.8932690757097705 0.3800013339285713 1.1216933764019843 -1.6491168805026826
Ni 7.158340077199978 1.3116683779127338 10.33566126139439 1.6395253801595053 -0.11995584643105792 2.0691572326310106
Ni 3.253518855174111 9.351064320190163 13.54350236155687 1.6687917332237905 -0.7676781821245295 -0.70314040745246
Ni 8.624062171017762 2.5982352614267157 3.319282511646702 1.0377484008478965 0.9427487101415442 -0.5929321273264693
Ni 2.91344866559192 1.0328224931913905 5.303289758147468 0.14095970237623465 -0.17630722863759313 0.03392030689652868
Ni 7.0273831244199885 8.417960737068055 10.213433830944675 -3.1187252518216546 -0.28605965217308804 0.9765720864488924
Ni 7.219140847284694 0.7110424176193586 1.355756465731284 -0.5033345814722944 0.13798287913609786 0.20918212498874297
Ni 3.48325352963198 1.8995064115320992 10.470232377597373 -1.2846866615394907 -1.0363420074186733 -1.9088612918200094
Ni 2.5655666123610734 8.040271247481437 4.460300257560362 1.3472619131685508 0.9085728355907836 0.18285325728622703
P 5.095688069901862 3.30091710256523 10.168085491870034 -0.24249925108363396 -0.91479593368236 0.36339586416140646
P 4.085689395202025 5.885542779852241 2.531600064503685 -0.2123479243112343 -0.9045428884957842 -0.23836723119313138
P 2.5498299424567943 3.5181622070691643 13.142077983115819 -0.2327480852341411 1.2704818307940184 -0.44924062784136826
P 5.833193881522335 2.4102517040115408 2.865030169984519 2.461331197366374 -1.0325234050035315 -0.6521544033228962
P 7.481525347040376 8.930616641982049 12.272777561047006 -1.0746560725075234 -0.31219234470439783 -0.7827368762298649
P 1.0459803069032223 9.250234807819023 8.540072401345629 -0.8794180684036983 0.34804792095042636 -0.7556641883827888
P 4.385476721632114 8.25141745120907 5.950795371028299 0.24146232517868735 1.3410601552332129 0.06950051799398353
P 1.1458403952312155 5.077052539752057 1.7204180256040862 -0.22498361079737383 0.09807678696977948 0.6147222266183672
