# total energy = -381167.54261429905 ev
CRYSTAL
PRIMVEC
9.25909297260543 0.00000000000000 0.00000000000000

0.00000000000000 9.25909297260543 0.00000000000000

0.00000000000000 0.00000000000000 13.55161848886656

PRIMCOORD
 96 1
Ni 5.107223102984659 2.662674407835005 11.662563720237614 -0.43019338140193014 -0.39073980339199804 0.5546190906788836
Ni 2.459548425795306 7.221435137489299 8.858340928300507 -1.1670044416339578 0.6220596408200448 -0.46306133577454445
Ni 7.766916082876516 7.257888186595429 13.276141226257637 -0.93443479095921 -0.5898809992049712 -1.4292911597571643
Ni 5.757016990010095 2.5781851842908234 0.5134000399915045 2.14493201366948 -0.009404324033035419 -0.5729687968306648
Ni 6.077474198433561 2.5000662167245484 4.29599878147724 0.211171644614946 -0.002502197596563432 -0.8995045547409283
Ni 8.65060391795122 8.642326288817138 3.184739107047621 0.4149675655911111 0.06597013624322187 -0.8531611915896984
Ni 8.061420053645806 5.051455585899004 9.150527348094116 -0.14243448714954826 -0.7516332128465248 -0.10268548938638446
Ni 8.487782767701967 2.6470635770519375 4.853539695485422 -0.06479539920883035 -0.7231474467020061 -0.20407925654453885
Ni 1.0974802922401996 5.080612469728114 12.190927380412106 -0.25076894729159394 0.28277686765675814 -0.1540802989185927
Ni 5.686286778650753 4.960725733678792 8.011107068241234 0.07794530632722706 -1.04050230944395 0.629270299635871
Ni 6.414662587892021 8.112733947002722 6.682343892175269 -0.9014022859842734 -0.4849717626943906 -2.4566918988221498
Ni 4.2509421831637395 7.758962521997124 10.133629138705425 0.29025337853946137 -0.6654732319189893 1.1415065544731695
Ni 7.600733881871479 3.4724839399333773 2.5029707941958703 0.6549057408157882 -2.029610837796956 -0.7060498677897712
Ni 0.3831338606991113 4.60214883941079 5.676664729214357 0.2692443803879621 1.7115530354507167 0.2988344353402531
Ni 4.743294452967777 7.153769685910024 0.4348588577848335 -0.6942217648065915 0.26530622167582046 -0.10084997883954246
Ni 8.800416042547917 3.1009998700357224 7.229815542555582 -0.37060292343280693 0.734845966085857 0.17936452740667821
Ni 1.1638216935217403 1.4110024400132983 6.377879915075406 0.28329391650249275 1.299631198664465 -0.1437820023163782
Ni 7.847562782829373 5.180379196707681 11.797320559630712 0.07063771692222028 -0.007564699721135359 -0.30324002060711647
Ni 0.8901034606082668 2.8315139685285007 0.11154892281079729 0.12186000543230625 -1.3517999102482203 0.18950624382637038
Ni 6.579650365901201 6.526817981293738 1.9986067030544223 -0.013524002628363806 0.6967558440823549 1.4255892854255447
Ni 2.7448303399454184 9.466589265074685 2.0483539578772363 -1.344331369785317 -0.5171223792850062 -1.585595462910269
Ni 0.7426459233592182 6.832895818301958 3.7445559061130256 1.7711486356261625 -0.024611627901093096 0.6046105921056619
Ni 5.509419584333936 4.19182287441529 2.0830598161359384 0.27612799488167283 -0.024700073849841332 1.103887972789447
Ni 1.9259006012507698 7.141584719533681 1.4900000955044328 1.236366120057232 0.07961832315427578 -1.1917132572345475
P 3.261608097060092 1.4236503610392 11.626665290801654 -0.2392331787378525 -0.9303691055302686 -0.698757705003732
Ni 7.648594133542698 7.223277696994536 8.43576055373123 0.39027803326423105 0.6542300549050023 1.1633827857209704
P 2.778042706504649 6.605659158113322 12.672186330903454 -0.27189338797503493 -2.412998828809573 1.153942209133361
Ni 1.8812625139404686 3.581380132602212 7.494275608387212 -1.0884641820352092 -1.6471988375443631 -0.9244421985228725
P 4.286635986644597 3.7818394958604618 3.9212018081073543 -1.075233285167232 -1.1982335748515685 0.9159698993858032
P 5.789803438291734 8.975181422755744 12.300302268188581 0.05570372132020729 -0.9774010101080909 0.6922533282263109
P 2.846532217360135 7.502337500654599 3.4228274242218766 -0.0802353879129844 0.9220276755441088 0.10039592202125935
Ni 2.923410466465597 3.44334557429025 12.03393205147288 -1.1021172540422697 1.0315175894468365 0.28500781386980595
Ni 3.1990444057189373 2.6881183953746666 9.47552243799254 -0.1520290728165188 1.1010494748993878 0.7017741232325526
Ni 5.969374287761965 1.2907731175233044 6.734218886567448 -0.006578681658782218 -0.7155171838502581 -1.243424055345278
Ni 5.676675840125946 5.159759196616405 4.363201278406957 2.839598579322974 -0.46670973116040915 -1.1491931244841498
Ni 4.800950825023626 9.124891697329538 4.999124118222362 0.9181319400341285 -0.29760750491168747 -1.2882669226915815
Ni 1.1481645672737173 4.580251084486737 9.419878992752965 0.12036002384801206 -0.7166440983658496 1.5836491378171758
Ni 5.582205314337313 2.4725018968899155 8.568634093609928 -0.8438684534338627 0.604014867503192 0.783688955730489
Ni 2.932438082131961 5.529428484287796 4.766483851364095 -1.1972511563336414 -0.7763988498269789 -1.3706190998372523
Ni 1.0898322814295154 8.622937748093683 7.304065135160859 2.08526030884046 -2.72749642460838 0.1441931217118678
Ni 0.1517639413992294 6.682852216380483 10.355130716695347 0.42237722779162096 0.30161971139487403 -0.19043261229538172
Ni 3.371115389866342 1.0502959543573338 7.737215690288827 -0.2872349034281118 -0.11669234518843774 -0.09870259347923646
Ni 6.288248191283944 3.5914725439625586 6.29461844726185 2.255009167534246 0.31776495369616886 0.0745697049867748
Ni 1.2168855554539817 2.0520650023480864 2.844430403251145 -1.5712229962386812 -1.612094280531746 -0.007841093310973593
Ni 4.791367663777792 0.5150176035370573 0.6191453633154532 -0.3352170877343453 -1.4535970834923804 -0.8439664124643078
Ni 4.359597639414805 0.5987670255512463 9.662412600472269 0.0427175934731845 1.1795323988976396 1.7296595152434406
Ni 2.9971406239540697 5.61871391800139 10.639551535197281 0.5535495117637886 0.023697343616939835 0.15031337567699274
Ni 3.1979425736529916 5.234665258914754 8.036245505712188 0.7177509582767833 1.1223538928041188 0.7735541812893324
Ni 8.83591540507596 -0.1533796531261839 10.058864740529842 0.2393889875894264 0.0030922657720785455 -0.5397246900655543
Ni 2.8237085531369672 3.467150702370479 2.5216176815707336 -0.2226724461656939 2.0924524557135253 1.1198648078336777
Ni 0.9820471799196178 7.980588171833127 12.340619136799917 -0.24209970165237013 -0.5077820757206868 0.5836478738110659
Ni 4.111028028974575 1.4535664904935832 3.344824195317991 0.2261804593189524 0.88801506604409 -0.151487598490752
Ni 7.100363237537111 7.6337147711059306 10.981987978563122 0.18002555802944478 0.9859614980835922 0.36092323425119777
Ni 7.178769236986112 0.4434272224388374 4.618933723185135 -1.4004675506572526 -0.2071650945587142 0.20871958353002765
Ni 2.307708559833549 3.0762132780984324 5.126889416497848 0.4392151252845662 0.0010379543462111158 -1.3124532901297976
Ni 3.8579492402476583 5.794007066509712 2.557624442394691 0.17250610972394806 0.2827490997426163 -1.1028685303859973
P 6.646528794576228 5.194712272657971 0.4216183548074988 -1.303092160629872 -0.16722943470604104 -1.7286593561137003
Ni 1.3102449900836783 1.3520127585667252 8.66875359203246 -1.8443880518372882 0.6469674598053181 1.3639982520866252
P 8.989283021381254 3.2644413795153815 10.541844956408243 -0.3624237300561242 0.11020133814745538 0.15157810132202926
Ni 7.8580070397233825 2.3304488922197972 12.548337628963221 0.16333832718175095 3.3526832982034964 0.15859644162139136
P 1.929798679400041 6.662695170938765 6.161839350131661 -0.8005209396861633 1.1282959693201666 2.0357999973268033
P 6.182851935765761 7.176343354622432 4.472725237580591 0.5142537994879596 1.841566780338409 0.32905312501547845
P -0.05779525845071565 0.38800692134035 5.050281532907728 0.7548710030575323 -0.32772180779856463 -0.3108692550176001
Ni 3.7050445785919206 8.17564022478455 6.647515813889084 -1.808357640576292 -0.6253233991729811 0.7154503351680646
Ni 1.618656118525666 4.7217115072054225 0.9836712248302641 1.426545221580911 1.784083855630592 0.49736525126273695
Ni 6.366385677036201 9.26696322018564 8.785622789675967 0.37573407401178516 -0.43425186774201985 0.2423681248224084
Ni 6.737508642307201 3.4872707114402335 10.326536785720098 1.1872287391006326 0.1691626471730119 0.1954848300073085
Ni 5.408004738801945 5.834311898300159 12.182823822226256 -0.11674453858261184 -0.6970306950102964 1.1847427394539853
Ni 3.3437547700775143 8.484356903295245 12.16433896897874 1.792683938594777 1.8847302030997606 0.8761720506625749
Ni 8.994236636131516 6.907403739601688 1.4725189279371544 -0.36375144772861223 -0.2975992773815713 1.2617637341947303
Ni 8.60379920288099 7.514855794378626 5.719149151494918 0.7517275723325441 -0.3745274552981937 -1.4291530915174033
Ni 8.292110355520139 -0.006616547851470907 7.149806794109815 -0.7586592664553707 2.9474314172382527 1.0679238959900124
Ni 8.653576086801376 4.638916697678621 0.49446704664321495 -0.3264236578124314 -0.47460661740998267 -0.127909811170812
Ni 2.172340620303036 0.29287714813074683 4.387539730243476 -0.016469715520249055 -0.6539444053437835 0.4440053475843579
Ni 5.089399348976708 7.159926982749135 8.136514075531876 -0.43114777489539935 -0.08203824544967807 0.7870421884734381
Ni 7.539290540782253 5.748119001645607 6.671745934337607 -0.6405913810756452 -1.617752764369104 -0.5873158095809563
Ni 4.638175970239329 5.90948647429525 6.094122047631636 0.6524066285430183 1.775589959226968 2.2082755109231322
Ni 4.207489259756304 4.390874855538886 0.2883800066649486 -0.37332083658460224 2.763034983834622 -1.3310757903269916
Ni 4.820200479352213 8.17775129798653 2.629637038133307 0.28093955733770326 0.3326938070918593 0.6846323213459435
Ni 8.662057415981264 1.375429004741326 1.3968462127391394 -1.2687229391213828 0.5547638437868639 -0.013298002660486776
Ni 8.288527086532566 5.330172803118395 3.426513469141651 0.020172361182816873 0.8078015325079765 0.9057237961777628
Ni 8.484542085155068 0.2785227762665776 12.51061052866151 -0.5748840115755067 -1.9373162047265926 0.6725795039464675
Ni 1.000565365901904 1.6442112151812214 11.670207101501802 -0.05689799873862458 0.3810873679038985 -1.0325210910106863
Ni 0.48834123072027463 5.944865468614408 7.675555686423607 0.5477048800575535 0.921320107954123 -0.3692109281812867
Ni 3.48862253901694 2.441104312556949 0.7889886096891889 -1.6421183376976622 -2.500121173650378 -1.5048939339941438
Ni 2.010047238354279 -0.1847781633684495 10.363789820460662 0.04781172016664024 0.0007145095685213501 -0.7708892328626594
Ni 4.1082503010772315 3.650230748084353 6.610099819111874 -0.46366451657618213 -1.2803132150621435 0.09880235228189435
Ni 5.7705260066841735 6.041706322208774 10.056019421253664 1.2394259899294784 -0.3530895971393919 -1.244832248546714
P 3.7409513412115736 1.5370649910877123 5.804849464402341 0.18656053093448516 -0.023875778176333073 -1.160868503939549
Ni 7.924941022956356 1.841244714032748 8.826345206560314 0.21147143524355194 -0.05654524338489617 1.029867455437923
P 4.696471219711566 4.239322021459855 10.03636977410786 -0.8797728806399558 -0.6140005179609942 -0.12184509303397081
Ni 7.005800120818566 8.8662944891799 1.2614866063923185 -0.0590528402980983 -0.18330320033945208 0.09689587928780087
P 0.7472569516688076 3.923105477626333 3.7550853466625536 -0.5652356898524652 0.3796953726523783 -1.5669243688633272
P 0.8944200497607377 0.2247274459880358 0.5577992427026343 0.983867334558725 -0.7298361715760914 -0.15123794437379112
P 6.0605393173527595 1.2250613345651613 2.296633758706843 0.7624375025508804 0.6217881323262131 0.7499861641614052
Ni 6.758350860630264 1.0802213429047087 10.958679137867218 -0.2943167499755576 -0.8652484617715356 -0.8703675281656559
