# total energy = -340891.7328880136 ev
CRYSTAL
PRIMVEC
9.08621466350110 0.00000000000000 0.00000000000000

0.00000000000000 9.08621466350110 0.00000000000000

0.00000000000000 0.00000000000000 13.29859360868963

PRIMCOORD
 96 1
Ni 6.508582654366241 1.8373234343310303 11.610749236780885 0.2143284450763728 0.7868979495860899 -0.4201421678135151
Ni 4.700889365524323 0.2603018730365232 6.004633939474287 -0.8661750873508631 -0.20765308993872628 -0.21665349366512365
Ni 2.902691170836384 1.5390411846785943 4.730682154253012 -0.5698855299196508 -0.7906553597459931 -0.30102990032967514
Ni 3.394264461577411 4.2156945973632896 4.868149310687812 1.2758263829353833 1.0724246120738434 -0.7657817364327649
Ni 5.061048735931393 4.515630538054983 2.853093160358963 0.8370138924058745 0.025940888235477907 -0.6469211799484149
Ni 7.300646144883547 6.331710402881706 2.815126413064802 -0.2856505896601274 -1.0818042535165304 -0.5699024992005153
Ni 5.180496111766987 4.459395956505728 11.47364098581889 -0.011748398785179767 0.11979566670410981 -0.11377337176942985
Ni 5.390360408106159 7.644604794834594 12.372306670731142 0.6252202979362135 1.452818039234511 0.613378310995963
Ni 1.9579974491243164 6.678167761820641 0.36335226618286587 -0.22104339520270316 -0.7635813863473365 -0.4715765723344072
Ni 3.075192953145739 1.6558172134507738 0.49287352803617945 -1.7820025476215309 1.2296714816458756 -0.21933618270360936
Ni 0.26110782026279866 -0.21061845214278857 4.742531486584306 0.718520489452956 1.15290425478715 0.5590730126851792
Ni 8.531855468468718 2.5011986106623807 1.4264466318199658 1.317736650015924 -0.7563349891975684 -0.18463066090162397
Ni 6.818731500157524 0.9111655902018481 4.9725835343027205 0.6667556981758388 -1.172861157525051 -0.7648430266685795
Ni 0.5869222084759707 7.488349164053768 2.4003034675957737 0.13758718635957595 0.05366560784425596 -0.24325027031704557
Ni 7.910740017581026 3.9258443547681665 3.697594103385383 -0.7212389168253838 -0.4645934561483547 0.16117551520247728
Ni 7.690835454217791 4.072441339533988 12.663359019504803 0.1363566563865845 -0.6088071466855128 -0.5938325276535515
Ni 8.003828285148018 8.421403444989524 7.114681318547447 -0.7357833902984618 1.7237328653463604 -0.3016911880627578
Ni 7.160945596924299 0.6136638463750838 0.4675502482207371 -1.2037501337944239 -0.7903388569468388 0.3284234618512795
Ni 2.0976979970835647 6.625040665630871 9.151001028052507 -1.2918932065902589 0.0650792489978363 0.28390943859930456
Ni -0.15750589389622013 4.9120439043226956 1.3599409933983124 1.3188234553221996 0.5065345764668309 0.26422173036239016
Ni 6.538276403356864 2.1552591659500258 6.998663988686136 -0.5618726869175034 -0.6098684980704916 -0.35317161533023694
Ni 3.3311697880795887 4.420824975947223 0.785103450209223 1.3508609433737186 -0.036481382755485556 -1.1801047264613418
Ni 5.976348553731384 5.775670420253142 4.9696041645677065 0.26672315662800516 -1.090809028118302 -0.16348076629688618
Ni 5.32002402165071 2.8929689213198704 9.218425282760252 0.6579409280976863 0.41929241821871016 0.5315462680198201
P 0.19835206256587898 5.630881592173102 12.353515470520767 1.4977496096398786 -1.5952594683625945 -0.2616724815779751
P 3.990719926308266 6.017345553561766 12.70676568342096 -0.4248791682778682 0.4424410884210316 -0.003821687738935354
P 2.1912224029466243 8.653329070138131 1.390089053114006 1.2648097201099056 -0.7540698473124755 -0.5978071960305834
P 6.209600766197196 7.847472706007676 5.786683820850308 1.1092595215140058 -0.23249740267591573 1.4307489752496134
P 4.949688091002056 0.968635896923295 12.902229238396838 0.3555858811986844 0.3608895527997849 -1.278286671550418
P 4.021994676622135 6.116821429923252 8.170004244921486 1.2667614445196378 1.9571113850756487 0.7743792482937889
P 4.84192558701528 1.1194943162902802 3.7082595019671434 -0.4329735152502285 -1.080809750813745 0.25587490105959154
P 0.18448740785817055 5.679983495338747 3.4996182100998627 0.7112854051570976 -0.4546360878253266 0.857163370770556
Ni 1.3883281447436315 1.1214932834805915 2.5441409690175156 -0.4755653817788261 0.6242116541660411 0.5176857079876439
Ni 1.409462679673922 6.801912917115406 4.9343096729584115 1.7433686372994168 -1.2069660696285602 -1.3159913851900433
Ni 5.985552889021316 5.844407632956344 9.300278446096245 -0.22477483722067737 -1.8133759197264898 0.43604521219701675
Ni 8.4540047826206 2.3072079310571807 10.080413554216095 0.8477536474208819 -0.22651033185454536 0.39934862810693156
Ni 2.559795607982003 5.202239423068872 7.03305440195254 -1.8433500974910768 -0.8428361555146066 -0.7768655050507525
Ni 0.44395425778201375 -0.005349054476982729 9.478200155355694 0.685061181353246 0.8931552154841327 -1.0481490273559302
Ni 1.514681043600302 1.2912692014395217 11.580215921570332 -0.16602924375035277 -0.08876476554023423 -1.3323518288259377
Ni 4.103098227261761 6.95424330323162 1.7714520136815755 0.5366802468122757 -1.0841951223462103 -1.2589429769164835
Ni 5.653124645272565 7.8691887586660565 8.186095022182043 -1.3412529879703095 0.5470294512570837 -1.645302906073231
Ni 5.454191064978596 2.8719615933926 4.857403953418439 -0.09181152278635801 1.0181247130796984 -0.12768561097514783
Ni 1.001100941336849 7.4173858287977215 7.053427512107611 0.5407081370247462 1.0978358530580963 0.9920066758364077
Ni 5.125987910973002 4.55897178122673 7.073481696133683 -0.06046874680901844 -0.6314040581494222 0.31634776163366807
Ni 8.158221241956053 7.201442854957104 9.182559268258819 0.5048667018461047 -0.2426686867819627 0.1904855770205042
Ni 4.750363803484525 0.4263642551287254 10.568923882048693 -1.2925035864807481 -0.45495490461732613 0.3845647849295377
Ni 8.076445311443322 6.946956159201486 5.1226714426799855 0.34742391421318225 -0.03583037943504797 -0.481523399134474
Ni 7.124755204565165 6.0739163250475725 7.26192342454287 0.033509701721671316 -0.4242430773557661 -1.2694883565324975
Ni 2.3312863994859296 5.421944089713075 2.687792203041979 -0.5354242629179876 0.548113942570514 0.7514267532626736
Ni 2.500535317003777 5.108987603640855 11.452083941914283 -1.7693565767227466 -0.3005509038107275 0.5972220129510747
Ni 1.3515653208709084 3.4234221239124505 3.734790339689823 -1.3071413909985812 -0.3546417721178602 0.4367340107339253
Ni 3.5828942746267765 2.675126928648458 2.6212329559547674 0.5093111107707035 -0.01980083677601106 0.6013964560437385
Ni 0.9360345592922197 3.6589913210761233 8.006098930151921 0.5486878127961131 -1.2136941323810129 -0.5280122867246326
Ni 3.8769241758925506 2.4762569518559983 6.74881035370479 0.10315060194826108 0.6968705152833483 0.6157421832424492
Ni 4.0435653498484925 6.799050759547461 6.087603798572504 -0.13844773458765833 1.4758594944350067 -0.49984867980622305
Ni 0.6581862974320148 7.359851918574765 11.206658019259475 1.3928231467381171 -0.292751719481283 0.08441625876355138
P 0.09386423028541256 5.7242333599606345 7.856077351140516 0.6682279118459911 -1.2027039519180964 0.8203464590525227
P 8.58222944166456 1.530572832763276 7.63268731589454 -0.29270132585932174 -0.8213797854130434 2.472787261722116
P 1.7840146138512312 3.1904879289541874 10.22781557758674 -0.28390198240013687 0.37065151728255524 0.6704133495330842
P 4.124905142065155 6.145742850681255 3.949615709146767 -1.977176274146324 -0.31307911818472534 -1.1362789875256432
P 7.072318660677501 4.101299156790481 10.479344710522149 -0.42010308704546356 -0.35159707175426547 -0.8358779790292186
P 6.34631194958548 7.960641507622794 10.226485355783735 -1.0694233633536743 -1.1290397894647264 0.7463449678643921
P 2.3248624458334293 8.666022511796607 5.732092935504358 0.7619657051207844 -0.012696621631062003 -0.15366840819215472
P 6.9662007615154815 4.00307717803019 1.6505944573553606 -1.0993312066567003 0.7156030586958451 -0.0500938313325976
Ni 5.5239186750624505 3.050460277272889 0.347178804370348 -0.8139333564373272 -0.43384589055285283 -0.008504952147217611
Ni 1.6916441572298513 1.1342775872840818 7.169856447485836 -1.194099498078537 0.7496215817331348 -0.6600983407603213
Ni 6.7007379186421545 0.699580364836109 9.180617544219867 1.9321490587033565 1.1032883915322353 -0.3206528167669252
Ni 3.056393575342312 1.8740499133457476 9.094974520815335 -0.5224733591842744 -0.40015672583052375 0.6684395136361649
Ni 6.444070531406198 2.010570286229501 2.587520374290169 0.23114217419960192 -0.0033959130554264095 0.09392959757062533
Ni 4.06294624538001 6.744651593327492 10.48197789548466 0.2546366577771163 1.160420360658537 0.4996255080518234
Ni 8.215982307541545 6.968899367222401 0.19974497924894583 -1.0645953458374118 1.2756068107254097 1.2234707521518027
Ni 7.604452812952844 3.706575826420031 8.289040015240168 -0.10434565069762675 1.243330467190207 0.07590230775526927
Ni 3.02638180884414 8.68840185811359 12.547209939533222 0.5730353884025422 -0.7726566091757274 -0.385831053236471
Ni 9.266121548542529 4.762203140979869 9.973878597808461 -0.1886428673848106 0.9478736900729352 1.342724173199197
Ni 9.009654058025601 2.269799985954857 5.670453873569663 -0.04657064867068754 0.5376876050308675 0.034553312494837264
Ni 3.6318871432184037 2.5815570917128907 11.592755806203733 0.21161361724837105 0.2407804686203144 -0.3402464226281366
Ni 1.2059133024132338 3.2270235974643757 12.773045983722978 -0.743435764637397 1.1987891902447225 0.36426258303707587
Ni 3.1556968136282717 8.607952514918066 8.082433126799755 0.4059774462773589 -0.7288280420265513 0.24325129875831009
Ni 5.495278926953993 7.799715562588241 3.7387800964773947 0.20212958901733574 1.735766913692759 -0.7540801317251206
Ni 3.005465343061884 8.205024332852838 3.4476605097164237 -0.4326580408923388 0.5913910080915944 1.1761012617289035
Ni 3.487198263497879 4.513831467583703 9.406094682936818 0.2204209311273559 -1.588976206457044 -0.03130266676802351
Ni 7.244511511693808 6.282653930788569 11.31163741574447 0.48957840822846654 -1.2389050844290017 0.7119184107554062
Ni 0.43257649998334247 8.940853241820891 0.04149038127780912 0.7859348143418723 -0.11676587873885051 0.7455916346381353
Ni 4.483519856006984 0.24317254145845654 1.5856043995125433 1.3428753540650809 -0.5958215330591222 1.0977432933442899
Ni 5.94979863495825 5.640294910396568 0.35571439427297674 0.13307670008373212 -0.21425156909185036 0.8433089813859671
Ni 7.889778120726262 8.677643780143915 11.491394540333204 -0.1108968215525832 1.3240024284199778 0.017667335372776025
Ni 0.10514294834601841 4.762066847762347 5.674057466240924 0.2570856335382411 0.23565703135081995 0.8773455021453856
Ni 7.771720935709383 8.79098521983456 2.869769998454859 -0.6989482237479833 0.4092430044025081 -0.6773113622044981
P 8.562794028846035 1.5933585749680501 3.698271934987188 -0.44538423020975554 0.3064197038866787 -1.4562638316912662
P 1.7624530268393745 3.2810684013187887 1.6151536776925932 -1.0556916155898786 -0.44501322002358196 -0.47121250412676907
P 4.844415209788667 1.0149301598080018 8.11034688636955 0.15022878638298645 0.038360344945753286 0.04293767990379056
P 8.611069086492051 1.610667813593245 12.409701895133164 -0.5471338380454319 0.7902378125926003 0.24939932063757692
P 6.316336527945312 7.633256112922327 1.399038974397899 -0.1694593524778243 0.9249217092624523 -0.3205342889111899
P 1.9474210954446698 3.201409558784888 5.953872893540685 -1.00419653303438 -0.14807754436793852 1.2792328375137711
P 7.008442572732558 4.1547624429168035 5.985004990286881 0.48086519672518474 -0.8083193526846596 -0.026854915409315037
P 2.4743488468107007 8.81384613552012 10.385762152886281 0.01669160172306803 -1.1202928965100318 -1.1159292202246975
