# total energy = -340861.100736456 ev
CRYSTAL
PRIMVEC
9.28922530655779 0.00000000000000 0.00000000000000
0.00000000000000 9.28922530655779 0.00000000000000
0.00000000000000 0.00000000000000 13.59572020542741
PRIMCOORD
 96 1
Ni 0.07289162278922949 9.104453417314982 6.801639577958489 -0.1923411421720042 -1.1137054731005014 0.23685516542397916
Ni 2.7246691481250997 1.9356887887980785 1.9099130461588762 -1.492211710540785 -1.353053065929031 -0.6172552774528659
Ni 3.89244554080277 4.595082550039197 12.287064657041604 -0.5751202959560289 -0.2210819617501225 -1.1420799104781365
Ni 8.3929637762726 4.132200448370091 7.943095879388533 -0.4648230556606575 -0.38149128821053657 -2.104796064880543
Ni 1.8497448753996724 3.1939979722216263 8.165698232255231 1.393537913416955 -0.08840275421512517 -0.41055735233855745
Ni 7.336286519375836 8.816793974361195 5.5419007827459215 -0.8845196512963217 0.5642910665510088 0.747262594582655
Ni 1.2135629846729943 7.795926681380432 3.1178383999367676 0.3793886400452369 -0.7104287135837573 0.28805122868182004
Ni 4.276935869323459 3.493817011223674 2.8307781120212643 0.9729355181375695 0.6456250868448107 0.5727353406636201
Ni 8.016592230751284 5.646892252826497 9.544562982916622 -0.22514739006874773 1.5128070181936335 -0.8472245143902893
Ni 8.909296080891817 5.06271144588757 3.5873530085412884 0.2975388564572811 -1.6717472163076887 0.8554481878516622
Ni 8.222004872015763 2.581503606264288 11.616808958626136 -0.9066280531595869 -0.7671066258917757 4.2735519204424985
Ni 5.513099539394023 5.673069290002967 10.383921598354059 -1.8031997505244366 1.0548112698674543 -1.0819520919483043
Ni 6.578908104858734 2.2522470119704603 3.8945077488415123 -1.2600292680021268 0.08976312489776155 0.2791184449685644
Ni 5.357672220005553 5.369813237603016 7.267170966711602 0.12726574982890987 -1.0118774466184057 0.4220409274981248
Ni 0.2820924101717219 8.1129958119498 12.001092137420411 -2.076324954024044 1.5394526458056197 1.9653648833336927
Ni 7.331428254491772 4.050055828160179 5.583871360947033 -0.5533001147571439 -0.48393046591406974 -0.20733170204356552
Ni 3.2248939359011657 8.926555461684536 3.5204622253602924 -0.46228357706825546 0.6551895906047942 -0.5185483130982553
Ni 5.784056955079076 3.4496188767717055 11.519299959605052 0.16858594873393545 -0.4836072782466961 0.5875158414069043
Ni 4.486872363357611 2.139002065122215 5.608629004482423 -0.495463920474966 -2.204906080230267 -1.3118843050002051
Ni 6.638266255163081 1.81501246163004 6.65014252983665 1.0567570807399156 -0.10353652453277007 -0.04658273285554558
Ni 0.314359463520263 5.943469352164035 11.508465007098794 0.23653840551450878 -1.5312066037467436 -1.1524676814703636
Ni 2.9557572083944623 5.337802566875507 7.850264005356219 1.4094149896585275 1.0125929846281916 -0.6739257335617167
Ni 1.2392198252270796 7.340689612215313 0.5082255976128626 1.3386140076855657 2.1864447882012863 -0.06482702377771417
Ni 4.431016251028967 1.42228259017978 0.38229249779111063 0.010380314793059542 0.7473502692004548 -0.023494997798146636
P 1.4709859989506233 8.404974744714465 5.398575466208234 -0.23881331759161453 -0.009690744925202666 -1.403237914313538
P 5.141010326781989 0.12237718433873099 6.452501254541596 0.9714831019617591 1.0892185437027309 2.7005939437905813
P 4.751150825980249 1.360648579652497 2.964234555494267 0.12979828644277647 -0.6912405706910805 -1.6063630344749238
P 6.474989540311829 4.107983437752965 9.193045688874854 -0.19195624802875974 0.7115707976080003 -0.1813188229195716
P 1.818858200945533 5.709891779487542 2.0164762531770877 0.7856766755844791 3.9319780372521898 0.07857805481521951
P 1.0256512440616288 0.12652482347971544 1.7138630151747976 -0.29671276101155997 0.6278032281720414 -0.39397065162446987
P 4.007381126673768 3.5160647060560546 7.042719129067813 -1.0834379324652115 0.09357067156930983 2.8923529882068704
P 7.1172744521261375 7.531220914389406 2.617842127105536 0.8174357131636308 0.405727792160398 1.0196694318589987
Ni 4.714467674876671 1.4167555010669342 8.452295916745829 0.8194375740850081 1.0028071088860215 -2.256529975054146
Ni 2.2345603268093526 1.2389225700142878 6.145429188347429 0.4630291969850283 -0.1441003048877454 1.8190022647743318
Ni 2.8569570070428147 6.114019530503284 10.320878412333636 0.19907871800615393 -0.0046878923939725715 -0.47145598759614293
Ni 1.2268001308676255 0.9297214133585011 4.16597328515593 -2.1881445445012124 -0.4870607840129354 -1.7041870820039489
Ni 9.096761938683995 2.005664523734329 1.9657236412830617 0.5851244583565922 -1.9932826927898832 -0.29098640005074405
Ni 5.424759005842485 7.35443766580693 1.3437301134319481 -1.8496094481372276 2.9631557699520457 0.2672710587116752
Ni 7.496116931603784 7.566789358445015 11.279172554099201 -1.126563560010092 0.6794134961491654 -0.6711576838982763
Ni 1.4649665808915913 1.602279910750566 11.41814865530473 -1.4738020976853456 -0.06005994140637399 -1.8174197507785603
Ni 4.203002924366919 6.71187407723063 3.4640534041203632 -1.189342700119842 0.20307806897353411 -1.375790616735863
Ni 5.859188210112182 9.17125223716452 9.57949047041965 -0.11682218589808267 -1.4306489593366392 1.0199044306879401
Ni 5.2262018129230166 -0.065945140035303 4.4743653502794 1.140753478357229 -1.0652224378984492 -1.6436923670530013
Ni 2.153892693438 0.661818294984884 13.32577748093781 0.14160736326256257 -1.0764956968194235 1.2075579375762882
Ni 6.769262911750231 1.2186163232904534 1.663014724259154 -1.0661182102398412 -1.756758685453078 0.49418608220380694
Ni 2.835331690312217 9.103608097803605 8.563400626061973 0.11332985647410804 -3.308429984812076 -1.1128752638897224
Ni 2.4781052383397686 4.8996019370935135 3.833286179921978 0.14991305491478055 -0.6052276568643705 0.9500989798590282
Ni 4.182120745668301 3.6921326842827495 9.493579069310142 -0.04410058986364018 0.26755465139036505 -0.8470429945071025
Ni 3.7701435991897765 2.010764308478787 11.22143165793695 -1.6382156602091462 1.0174078895183318 0.7902429547989229
Ni 8.371710028557994 9.247293836286802 3.1998074537866246 -0.5601158521273966 0.1848872569971203 0.0020401703584803574
Ni 1.6809596498863744 6.254036024953584 5.7361022578754515 -0.1674808885952148 0.2823402943399718 0.08250078690839341
Ni 8.696795760647337 7.221434536533435 4.567251101819032 0.37002185411835625 -0.1613819747863285 0.3543905753390026
Ni 7.577657752162712 3.6261327378175885 2.1658116985484077 0.05214480032435536 -0.06707262527878127 -1.0381276385641864
Ni 1.1114372406282391 3.8987993709761923 1.80639577614924 -0.46223446899787496 -1.3067420986776335 1.0347294115159147
Ni 4.147648430209861 8.445466478231937 10.802520104697518 -0.6504057960629057 -0.18148363063221004 0.7965817525327571
Ni 5.261918884585021 3.7219139409143205 0.4718489909474759 1.777835560728035 -0.08718765086110145 -0.1929337814506806
P 7.162317906089482 2.56277652785841 13.801151732924488 0.7874453374491278 0.7071335877722531 -1.6809103708641955
P 6.3739320571880445 4.5793373129866355 3.6614225051112053 -0.16943209878431464 -0.09331793212855542 -0.8450601597491187
P 3.485531022167105 8.296588062750285 0.3337516504647628 0.9908689626875387 1.6149584894534186 2.238004662556449
P 2.8164838519761424 1.583218420230297 9.299621900808624 -1.0059952768060159 3.9580755056701897 2.455611007053145
P 1.3628687045230352 3.7595353037832724 10.981644238080728 0.9537849133510475 1.4144420105594737 0.8342188461592407
P 9.117244680690424 5.134665785833966 5.7306095388965845 1.9841923004528408 -0.49621288282584863 0.06861143052081087
P 8.160733141279069 7.56948323381094 8.250644482845706 1.4504958188592376 1.371964043900921 -0.39872153604589394
P 8.471058294208225 0.2992319599567844 10.831805316692742 0.03570876625551915 1.255764579188502 -0.4354674853166758
Ni 1.0341415960769924 3.2392922352707645 5.4234417936808015 -0.8038962839162993 0.5569292268692989 -0.19615717348398476
Ni 9.1253355960136 2.9848975084734506 9.80191632800375 1.2119079870148677 0.057453099911146215 -3.0457069504824
Ni 0.8662992269417679 0.64544789306292 8.974656928649477 -2.362971589048853 0.34734086758107274 1.7640567617763876
Ni 1.6413596820072773 5.251607844391308 13.214958879763977 0.832131881723225 -0.7667988648433697 0.7652978548178111
Ni 0.4010465149506482 7.427107276109107 9.608380890335384 1.4634104700383765 1.1129459692266574 0.5691337393552909
Ni 8.969323055424946 0.8042834292505554 13.25040284819923 -0.72939728426646 0.2886299840034255 0.7625295480440544
Ni 1.055841226610788 5.241686951664384 8.952238312069742 -1.0969727337268527 -0.3820008808571034 1.3522773641052712
Ni 6.1749382706747875 7.108951306167969 8.343312866510985 -1.1266242380446985 0.6261813762979023 0.799304807890875
Ni 7.579682803299857 0.3936717989057936 8.43428225085065 2.2444776718753023 0.2973491090439782 -0.9654973166919696
Ni 6.787609131914721 2.1473995248835807 9.85154029901171 -0.1150823203888405 -0.9400719346403293 -1.1086763953170262
Ni 3.399884363981491 6.8651370071009605 12.558557132109682 -0.1455987438101428 -1.1831954495715236 -0.8920846081277733
Ni 0.128300923376146 2.0289154549098813 7.403549800495363 -2.122128128401087 0.4320836564461075 -1.6260558849181608
Ni 7.355115779261111 5.267371659894669 11.549306015491295 1.2493059680473517 -2.0422570658060573 3.0428116312124756
Ni 0.9707705003999577 3.022667498948799 13.33793150345083 -0.5123162161456145 -1.0823850657206648 -1.063528080915162
Ni 3.321232492521882 8.216979401074504 6.496225638498178 0.8179234514333268 -1.2911838392280601 -0.8427502806690195
Ni 3.948329520807613 5.622851737491967 1.1739602300262775 -1.199056070752864 -0.2669591838982112 -0.1253713610196744
Ni 8.948914627221715 6.472676523187293 1.8575831237919742 -1.3802082861875844 -0.38599766072132236 -1.079210010426793
Ni 4.8297098051858605 4.3623038507470815 5.279232142885059 0.296235050044193 0.24248228180276948 -2.424341507515902
Ni 5.4612377939872685 8.88266387167076 13.209941769125576 0.9342602130545586 0.18012531683210267 -2.087470943338534
Ni 7.5828132722595685 7.897151370561413 13.793266109482648 0.31318170520086064 -0.2986133204683825 0.30747951260976075
Ni 6.63830341206468 5.61196476532347 1.5373630879670144 0.7796746923647734 -1.000478974973477 -0.2703810650955666
Ni 5.746955788832509 6.469546054227581 12.670748680797596 -0.17634322408185113 -0.27837205372084317 0.6900334377568568
Ni 6.054744983227535 6.489016270665438 4.691624540696168 1.662598459928885 0.6360145603382402 0.46549874157144344
Ni 7.743721234633886 6.34282244132431 6.626526532102887 -1.3408153862122587 0.6150166179303342 0.28623268741584257
P 2.0975442521631695 8.13850402489749 11.36606303956584 2.3597597669797747 -0.23012787400247464 -1.5328695932714633
P 4.013177603323206 7.4184868749381465 8.72506751815145 1.0000843106382196 -2.2567328350935716 0.5381995116702796
P 8.663428863011466 4.942908305907108 -0.19050157665281328 0.09819068683982445 0.17411099231722274 0.3044926620672949
P 3.137055020521212 3.5961564074526233 0.47950052590924275 -0.7852524435628669 -0.609867469629227 -0.08104451407784106
P 2.5080351225777346 2.524774306748068 3.9106598539665822 0.8159814972156076 2.5029956669846958 1.7631903000110343
P 8.365541982892564 2.086146372597687 4.904057978517769 1.5247464499436967 -1.379969944924533 1.2740844605436124
P 5.512923044111429 1.0501376422153468 11.36497527127153 1.5881346843923552 -0.9707295116251864 1.130462637954182
P 3.8703929197037845 6.206363720202112 5.510154854942305 -0.4947684370698382 0.6572904389978809 0.7621461965627067
