# total energy = -381170.521358911 ev
CRYSTAL
PRIMVEC
9.30864870899937 0.00000000000000 0.00000000000000

0.00000000000000 9.30864870899937 0.00000000000000

0.00000000000000 0.00000000000000 13.62414831824911

PRIMCOORD
 96 1
Ni 8.537296970935907 6.037394161948326 -0.0851136307524211 -1.052079215648272 0.9624029940373621 0.6094144412522086
Ni 1.633360687617988 2.5925145563880116 5.479087468191656 0.2064127897737219 0.9398130245519879 0.06625989956949879
Ni 5.94404703128881 3.1523366981773275 1.425426882219797 -0.3755114164780178 0.7852161910082929 0.5580772244308131
Ni 7.59169649489028 2.55513102260973 8.002361501844858 1.0659462034383516 0.27705513468163256 0.6876744506063769
Ni 3.7951361358081783 3.7826532377014366 2.735810965907309 0.2791171594169838 -0.39150522080311284 -0.8215952438579592
Ni 0.9955599944191432 3.360226752925927 8.643963847233705 0.3771900897320214 0.15931480784465465 -0.8384668228023173
Ni 4.757724896003547 8.65389710642066 5.5350287243156515 0.40005773835881425 0.21929761615619006 0.21941177313655114
Ni 7.170014702022705 2.9279889522633886 10.603034158084286 0.13302887756493217 0.2641476825913451 0.08223930571689061
Ni 3.2443992352956568 2.439601381742633 11.723075920968776 -0.5933561022377652 0.4401108976259581 -0.23633965924014133
Ni 1.261936289887102 6.120017729133593 6.900127184208838 0.2357336502250263 -1.2874991912876215 0.2421207846982927
Ni 3.3264270489545766 5.841260930696233 5.853124803654506 1.3534978667759334 0.5851344856589213 -1.7035579330603823
Ni 5.247778714668304 7.557338271987979 1.6807835991801041 -0.04579983194293403 1.3991395758744485 -0.6145227090130514
Ni 5.046069602755557 3.8691957460522057 11.429325681830052 0.06560272560147412 -0.30332975210744534 0.05962516786180054
Ni 5.1790064169706085 4.040809996235574 7.165103458889881 0.46709899617902784 0.8047380630913044 1.3984410071455269
Ni 6.007289991570097 6.220048469666816 7.726472698117929 0.668019652489927 1.226724997423042 -0.14607722610845808
Ni 0.735777945795939 6.000103714658535 2.1027921256222855 -0.07888838696678672 -0.4720887360841353 -0.525059888964528
Ni 2.059948138429078 0.7911765076920274 10.472719590250048 -0.4076507202147237 -0.34859350904125125 0.35015365443951957
Ni 7.339283172696082 1.1804018346171883 0.6195715661575074 -1.682417037316709 -0.5916218931554778 0.2389619273543368
Ni 1.4418724721416327 5.873143053004654 9.18187249876718 -0.21249344875016307 -0.8181515082837328 1.1476108675986947
Ni 8.555690861061874 2.1647821417684736 12.448152644047706 0.8472034313443668 -0.07637513362662975 -1.1110623790506995
Ni 4.709748119834906 1.226330708039012 1.9893029405829277 0.535245057027646 -0.6963313549504266 0.008666160315430235
Ni 1.5654075510190189 7.545013620911673 11.308152207165701 0.01388961349789866 -0.9152268505721916 1.1087334738072068
Ni 4.600455273696756 3.7069180706645577 5.069109439522147 -1.649934234197655 -0.3621635344162021 -0.23698526324394023
Ni 8.781956188638743 7.4235822966742 7.849075981245512 -0.9808321472768271 0.3910833027743459 -0.40836291579039996
P 5.535406655458927 6.535546505111864 5.586064322496132 -1.2748393364317658 0.8925042121636952 2.0908897392120958
Ni 4.564291172917715 0.666213482081178 10.802382596648885 -1.3821849502979808 -0.4675301701791755 -1.5181875657792563
P 5.7249493633258055 3.2080210355930854 9.118806402814029 -1.6685950438319521 -0.1154427890520528 -0.39118846089364245
Ni 1.837154936872951 4.483789977670059 4.028333614183027 0.6411935334360183 0.006168847814873247 0.3598222878775352
P 9.035011807603535 3.740820169773249 6.7982188892027375 0.7348359387835279 -0.2963013845057542 -1.756237779952601
P 0.5135804977661593 7.520392244705608 5.630492641723469 -0.5018618535815098 0.7844641433336168 -0.7902264997386906
P 0.22981564624794365 1.0432947457177066 3.285790142403508 -0.5450337609832936 1.0262046618743552 1.2389948159293307
Ni 0.9707989884803406 3.6029683889658335 11.009115586345532 1.2519395490154566 -1.1057355675211473 0.1541692590879732
Ni 6.640343273855864 0.8296426373314685 11.551901969875974 1.6471530719080925 -0.5080373862646025 2.910661556708071
Ni 0.17209457646398646 3.677428271110375 0.3265194756824711 0.9200710660383703 -0.14819992887841574 -0.28151291334267003
Ni 4.192038305439253 6.12152573024716 3.4119223343098137 -0.8818981545130746 -0.17459204571869932 0.38352117415637177
Ni 6.131132255859507 7.6274323978222585 10.712995365209808 1.6298035248860512 0.9140996789462837 -1.787386951861896
Ni 5.0843467668233595 8.783482807050008 7.967143159788894 0.3030585007239297 -0.01784834103533055 0.7491047899977165
Ni 9.120902710534862 1.7503424777055556 9.874960050075925 0.3669794677476067 0.427627934667599 1.4848272451512556
Ni 8.83268832486674 8.764483854748844 10.770693163371641 -0.879223435894389 -0.771258186166304 -1.603711970005322
Ni 6.957395853658725 7.86369521426314 -0.23970701651507578 -0.6943773165478493 0.7536088485156569 0.047722759997259744
Ni 6.194086648026469 5.884918493798858 12.33306981832537 -0.26171207656665896 0.005133721682139545 0.3368949896574004
Ni 1.207359681684396 7.682316191436988 14.095817001487333 1.7645519562452514 -0.48759634480143116 -1.788393024528907
Ni 5.232419444067168 2.0344610578800397 13.21929321595677 -0.6912122885563062 -0.41740317161579726 -0.8880960557936705
Ni 7.312558041850104 9.184871745426385 6.728967196089308 -0.003989580775367323 0.35172228447822007 0.185160565263165
Ni 5.9924985485487605 5.462855046328467 2.000420259903496 -0.26118962840428567 -0.2691785601470332 -0.3023751015036599
Ni 2.419504008877267 1.541810126186363 2.782555276968321 -1.424440259422766 1.1839593243207416 -0.3174335384986791
Ni 3.360822506452274 2.1244943095492492 8.735354299905124 0.6227252994285017 -0.0515552463694725 0.2724986256592017
Ni 8.544446013252074 6.33323233102392 3.8689043853432263 0.022318718101858336 -0.8914050655622455 -0.18535879731690014
Ni 8.538944601782212 8.550319770675902 4.25156525309995 -0.2377969605119582 1.2785139570698756 -0.09136132262281685
Ni 3.4264298635412516 0.2512367089796625 13.540578438391352 -0.0031385456289816913 -0.3717537492077985 -0.2615917489387108
Ni 8.063263336940578 4.683153310072816 1.7567114552481604 -0.2413052307755328 -0.1854698689734677 1.5018772586550069
Ni 3.078305013879848 8.030589979479977 7.004624214459893 -1.4330585972193965 0.08874265405304717 0.8222753006441195
Ni 6.450940195721723 0.6876149966503136 4.350368182849966 0.20273122715707664 0.3485004351068127 -0.2478972821707537
Ni 5.619957112955974 1.7003922679808887 7.177405769208949 -0.7461734752835343 -0.730613158951432 0.27851989215261713
Ni 1.3290609567384946 0.7167156946826008 7.328402293056283 2.2042633044399453 0.37963957971377843 -0.3520169329005034
Ni 7.006824779047839 0.603893008900844 9.418251673318675 -0.6715137816861144 -0.4788155132850077 -2.1662456875455915
P 0.5865193466887458 5.223306276843827 12.322006489168126 3.3899318981423097 0.4046664407754192 0.0021041908271963758
Ni 2.7350672048642606 4.104062265165711 7.141288211674155 -0.3832460661181142 -1.4518433340260672 0.26622847637977376
P 6.759950102918898 8.996315754337518 2.303066774747376 -0.10828818028514253 1.065249691591959 -0.6176041761518525
Ni 4.543802836800683 4.691242525922748 0.1533246169245123 1.6229546202850178 -2.187795645802226 -0.2814401511232056
P 8.936395981695387 0.4318747633574207 8.328046922590444 -2.225985783718702 -1.7241372998736308 -0.3807976045776216
P 1.5190877143455297 1.355264803248919 12.723510854790232 -0.15698744526305866 -0.108285094961349 -0.6535980777479582
P 3.337150612428825 8.454533774017902 9.275320162834268 0.40059998401552943 0.32378673441021655 0.2689785283210851
Ni 3.9511677078180303 1.5575882859857126 4.412507137377741 1.4281004818831728 -0.6383012994898878 -2.371850893816354
Ni 7.79114360513268 2.4143656347125226 2.568669521495968 1.251991742409631 -0.514432748267985 1.5373793082163587
Ni 1.2213878155001008 8.210814729848833 9.112116276886127 0.38794450003504805 0.8383130708332723 -0.4385067863636319
Ni 8.421013329512027 5.066688259956477 8.384600687808716 -0.24807931627457275 -0.7805493816602428 -0.2763784203295821
Ni 8.617174486710669 8.153808564296492 1.5126349589632824 -1.4951006020528057 -0.0987208483116816 1.1425627636518259
Ni 2.8963116202296497 5.067367791322466 11.902982315546991 -0.8757822714233239 0.023508881755217575 0.16699649275962852
Ni 2.3932908537179935 5.118444347557883 0.5817458715588896 -1.3922922139353118 0.4128289219815535 0.7839023572928757
Ni 6.2889510884484 5.045613478961948 4.446090880695791 1.792575952262003 -1.12927864494841 -2.0724734414884374
Ni 3.406872392309137 1.4892255688373799 6.404916374081639 -0.046820817008280655 -0.45505620608188074 2.7806652953218753
Ni 3.2903746519617263 4.349773360188504 9.657123704031982 0.04002513424268591 -1.0901199724710773 0.5554331019397467
Ni 6.1880639522210545 7.571049911742813 3.823698793936983 0.7293044674423375 -0.45442371470420445 0.0988918266719071
Ni 3.6038713279042036 8.570584699220554 3.291594084960968 2.2755790212657976 0.5144682294916108 -0.4356631462672497
Ni 9.1452541359243 1.2710587657592924 5.623339875947764 -1.0964343447248794 -0.5347118102319952 -1.0776305817548149
Ni 2.7572310977741434 2.6395883936182845 0.43597708490525167 0.06871658864010746 -0.021202345109228 0.854692026411928
Ni 7.2486355502028275 2.7295471760967005 5.677727518578831 -1.4979990066465232 0.13394110496655642 -0.4150475268994271
Ni 6.955571358484287 3.8042586116803685 13.07884152952578 0.6171069248004598 0.25144257631985084 -0.05337892984177258
Ni 2.308731087572098 -0.24798519793664608 4.995757286590657 -1.9971280346779021 0.792572631373364 1.2548482380218196
Ni 8.881735595653039 9.243227665061855 12.929453540199583 0.6248125209748336 -1.381373510140279 -0.6641311160687982
Ni 4.059008404735709 6.82021429556845 13.465794615266859 -0.9256871266735671 1.7152590235473943 -1.2001626735534814
Ni 8.824319849551333 3.8884181059257497 4.479728614177165 0.3779084559552846 0.6000589681792377 -0.22320337896849946
Ni 8.40432292212546 4.994713787054665 10.895081845348496 -1.3108872311942585 -0.23543257404483967 0.3653347330553321
Ni 1.4101579055124973 8.752205746916784 2.597293616707178 -0.581622872961237 -1.0481387429432854 -0.2887297428060834
Ni 0.35037754268290366 1.1117319320568329 1.0251028532717663 1.30843851254345 1.342525684035146 0.9760599226991642
Ni 7.718936416009638 5.927561414176924 6.077923088172744 1.113074781495038 -0.06527928082378434 0.23272494530568952
Ni 1.8012887128570843 6.814321920846923 3.969178081611412 0.3919070842272218 0.24099644128586237 1.1922943265489983
P 5.134045643029099 8.515868461285109 12.276597969216972 -1.2751967197711844 0.15107519354368174 1.9948358962096162
Ni 3.892616306556727 6.869512899873675 10.722872772503667 0.14572447075472966 0.0941774519153733 -0.24789419684696018
P 2.972530837006685 7.214826537582628 1.8122710567693392 -0.5479817878680241 -1.1725654806615031 -0.938393518496642
Ni 5.981979775349195 5.408678710026275 9.95126862988191 -0.04255355709149446 -0.6609668594082037 -0.5113093721476549
P 5.778976761246411 2.663828115221533 3.553681885904113 -0.12604936092330551 0.19014413452068543 0.3561294124069802
P 7.917592291099856 6.635446924561198 9.706497708392885 -0.7228003477752326 2.078291847942427 0.33846130570325583
P 1.3498192436721523 3.626184159195673 2.167370877013429 0.9419920344811777 0.11690857496430188 -0.49649159040853197
Ni 3.728132481391825 5.992293758274079 8.18459785123002 0.0710714620255292 1.3189522675905798 0.25308371146769965
