# total energy = -381169.29588457855 ev
CRYSTAL
PRIMVEC
9.20324526265246 0.00000000000000 0.00000000000000

0.00000000000000 9.20324526265246 0.00000000000000

0.00000000000000 0.00000000000000 13.46987972017770

PRIMCOORD
 96 1
Ni 3.205352260091185 5.924635124093776 8.147499542762262 -1.5884725273477482 0.07058860885183972 1.507235437643127
Ni 3.5035466083382083 2.0423841783580565 0.09811395659985386 0.02837675137048016 1.7063084992223256 -0.28493453742970926
Ni 0.6295949255582755 0.19900637293044987 6.32228986371577 0.1158654784117682 -0.9857193001657992 0.8221251482195003
Ni 6.498301008149259 5.048081236731056 12.688303425128732 1.754255973635882 -2.207348628233489 2.142608764852942
Ni 7.500230705090979 3.8091127560033313 6.648274331217343 -0.2096636926108518 0.016364814511268592 -0.29913474018949127
Ni 1.3062718129931017 3.6342510968973336 11.362220706483443 1.26489842316897 1.8620466454593154 2.120910196833586
Ni 7.340931733645414 3.2343056695410515 8.89692256168327 0.697432044213773 0.6714204506413599 -0.5935450783201197
Ni 5.791491775552382 1.893282402611937 7.472805954671506 1.441093551708731 0.329919843891148 0.67554398589143
Ni 8.878803212501802 5.446176811798901 9.847411639814093 -0.23896732667097556 0.4497162819262061 0.6155611775798947
Ni 8.028138053931986 2.0182900823822933 2.276840531536422 -0.4961640318657842 -1.0814353002128858 -0.4453240663957815
Ni 8.984852207126982 0.7295495312013504 9.105881323990417 0.21950099041624777 -0.6893585231770193 1.0571064936595342
Ni 3.7853407736101317 4.0705953590833115 2.699471958350403 2.324811533039364 0.012145634223598437 -2.282037632406947
Ni 8.366513770792524 3.431954563802126 4.055053838886875 -0.7684803663108507 0.594859426256169 0.3389562430618034
Ni 1.6799511785026195 7.139684370504843 6.617967124396188 -2.1859292820174483 -2.375251434857471 -2.122429204581274
Ni 2.984842504713305 8.371851653017867 10.105036242499482 0.5936003570380874 -0.6084029692685587 -0.8761375978802137
Ni 4.690700818499261 1.2210681687824 5.439218238091004 -0.46798679810061977 -2.5232004240673445 -0.8738074070851403
Ni 8.64943993522603 6.33442802383129 2.7814627496561624 -0.563575528541223 -0.24789599661917305 1.5516201344060891
Ni 3.9457993539529252 7.278414088892412 6.349000442306471 1.294780555440383 0.10422892261410438 -0.3731632279608154
Ni 6.3670811378580305 5.5805810049349 10.481182998051436 -0.6616482017459444 0.05059005424272578 -2.6438018745022016
Ni 0.307190520445766 1.6461752685595135 11.592623030144113 -1.8829255457908538 -1.0721235358936567 -3.337295760003833
Ni 4.708334236333318 5.9752529727823545 0.7197968522458437 -1.5919556008003422 -1.0325789408318151 0.6822368245305733
Ni 6.00215405854903 1.3863400463732165 1.2773469336034047 -1.3179757626099236 0.021890629425504238 -0.3099043200011695
Ni 3.443743920923957 6.149645266382331 3.9957048714617773 -0.06062661254312139 0.7930413434796666 -1.2479257998703732
Ni 4.3169570302732305 1.4269539675118885 9.531986975873478 0.43507410653299905 -0.40205805661829463 1.9361890331006846
P 4.250500396567735 6.612678939695014 10.39742702431323 0.473331607352301 -0.18138644293271342 0.3091977808524481
Ni 2.7762417486450657 3.8525520734233476 9.483993892720532 -0.3273212299260363 0.2285124498862387 0.06465218876274671
P 4.970396643861913 7.988085530751497 1.8319436935711177 2.3954078552006877 0.6148659512850829 0.6413012626584762
Ni 7.777515280207011 7.918361744994285 9.843518667087679 -0.0217769866657754 -0.8180026414106945 -0.4570488110318774
P 6.7715729683510695 0.2012326379482257 8.881984774373011 -1.713055331027856 1.381583055047924 -1.5297786130509652
P 0.2508473329082486 3.8203131054313313 2.165902773052447 0.4004567735694458 -0.06711402003967797 1.5365843231188892
P 9.249629571994326 0.16557374403390468 13.163978676070258 -1.5478105308520118 -1.3633379927948068 -0.073474415040067
Ni 6.912493059100071 0.14450659540971836 12.59321917685402 1.2439120507252899 -0.10500308177596755 0.9706688335905799
Ni 2.344213808465441 5.426399037829491 13.356274962913645 -0.13051870954856876 0.8807483571793476 -1.0279193305726169
Ni 8.19167051817696 7.488837087513441 7.101966710635679 -0.16228186089277857 -0.20680025502012772 1.1149108062625122
Ni 2.1012205250246168 3.762691587133297 3.957814190582551 -2.004714588775909 -1.126933541755001 -0.02265553261598679
Ni 0.8008535141621683 8.478876191635953 2.289569539994817 -0.4127787854699085 -0.04309760252042255 1.6229780173237853
Ni 7.795130291550636 5.60281604537701 5.161401715401481 -0.793638353633717 0.7617852136788622 0.15045452924054734
Ni 2.5052613965020654 0.7297115083171538 11.839822196648699 0.9378165629472495 1.0989900212671977 -1.132449586477224
Ni 6.45571759253434 0.5791565401514112 3.927399305792366 1.479911553017193 -1.3771702706922089 -0.10346890451962824
Ni 9.040633076381795 4.352895702842121 0.022148529937078672 0.9447731967707406 0.13951474239959197 -1.6096427336674601
Ni 5.13358858803389 4.810536274458166 7.706387999554343 -0.7818351903512019 -1.3188967317622964 -1.7588217386296936
Ni 4.409587693373329 9.127244817110562 13.393437667096277 1.6349117926468941 -0.5040300648774222 -0.31341696114011824
Ni 8.621627728182961 8.016514355224045 4.829800507344517 0.5689283082127041 -0.3110644017475417 -0.6857587216409029
Ni 6.245800772400198 8.43538165474464 6.326237135588957 -0.3270042129062497 0.7008618958309284 -0.4607817957117484
Ni 0.3066484493025374 3.166431736072276 9.467048877628638 0.8582596891585283 -0.9732774748580206 -1.9791850770462367
Ni 5.776352437171889 2.6424173599576806 3.34849125326179 -0.444443463563041 0.8250217530410049 -0.3542669052769447
Ni 7.458687256185479 8.792541195091248 1.8390826508852505 0.46706017252129245 -0.4276392475215087 0.33131312469424873
Ni 0.17925896967025304 0.8974121223205004 4.116799331366246 -0.6678227059877725 0.6390191514925188 0.30612274147155016
Ni 2.0087923333192728 3.6898847142286892 1.1449738966865994 2.229436975492096 -0.5721686695268726 -0.11299561306314088
Ni 2.993051799446071 7.491966190886917 1.6920727727767515 -0.5165757627529168 -1.2129413133753884 0.361185743883965
Ni 8.144393447501827 1.3709798301075369 7.16528871902057 -1.3466170804957003 0.7553667117470282 -0.8238940671944649
Ni 4.389644260990028 0.1108512479789434 7.74398233593761 -0.8752528812824153 -0.7941834275039097 -0.9601913310980238
Ni 6.827271008398937 6.8135121568008605 0.7560088611976526 0.30557972448388665 0.23808261007317702 1.4056622074843148
Ni 2.0746507560857212 6.131054711045798 10.635156971814963 0.09658117626085948 -0.672360445957126 -0.08842795102610577
Ni 9.301259777656679 5.442016944961222 7.4306053940575785 -0.6921008618088467 -1.0170417644281646 1.12929458578801
Ni 5.2638421175774255 7.171840509289915 8.35299604421911 0.8048545340645107 0.43098785227876746 1.3487894055566705
P 5.185200387205807 5.51820140886014 5.3497921449751535 0.8663422090563466 1.315415200971599 -0.6305501947895593
Ni 6.67419343071946 7.250279768266779 3.885225434589564 -0.03245040721922154 0.05609555744198726 -1.0342051635813285
P 1.307265763476441 6.8145061072842 4.411021558977998 -0.009738824554318713 1.7762473903053089 -2.0752561464398966
Ni -0.07573350488332935 6.953898459327329 0.6721654566298915 1.1937063764051763 0.4965792650263319 -2.1587118410623924
P 3.65512405704746 2.7286793773682345 11.183165128532464 -2.0035203113574913 0.07468000531239397 -0.02141960332635666
P 2.3520641766347787 8.645491743028321 7.657114744991837 0.4501045185035603 2.684292121306764 2.0961802981870736
P 6.801547938019923 2.0675550540241043 5.47239409644602 0.38595549462947726 0.04142947078938026 -0.5752179978761577
Ni 0.7508863349103686 7.406955814825753 8.911335764016213 0.8883984175254377 0.42371960075212833 -0.5843736962334968
Ni 4.741337073678271 8.155639813155908 4.389766664151403 -0.6572361887211777 0.7899825020486847 -1.431208174274219
Ni 0.7123459049188849 8.502878255159557 11.05001533771942 -0.5219213433355463 -0.5210631091003091 1.001298899771611
Ni 3.111994540619014 4.93469725566864 5.875332419146578 -0.13754939114310505 -0.5896133473658813 1.814779999162868
Ni 0.5355865366493261 2.925150256241647 5.815176327116029 -0.701640682978482 -3.1041689512740347 0.682416030420915
Ni 7.568086232069321 4.385281922757595 1.6568353874933281 -2.79206273852554 1.0523445534945166 0.8000020910682158
Ni 7.258433843528248 1.6129055371032932 10.593400007620449 -0.9202297031034217 -2.389512058541543 -0.467453294194653
Ni 1.6843227199802695 5.616169954185579 2.2451592802045015 -0.19871696379136097 0.8812075562039534 1.2547577351905421
Ni 5.308569889327696 8.996798019417486 10.921082473864395 0.17462187051537023 -0.37941692218001105 -0.8210853941010763
Ni 3.589053959641041 0.7198474700945323 1.9879120105729735 0.20209693600718745 -0.12771800687498006 2.0856256625996794
Ni 7.901887936057456 3.5685307228091268 11.171594808646777 0.44675334264314026 2.360799006877566 1.323398733397708
Ni 3.672177670432903 2.697554002047367 7.69510021929679 -1.1535128349054262 0.5539665446965492 -1.1147578256244157
Ni 7.712015784003991 6.836253375729856 11.815994074459681 2.5873265651232926 0.5032286520220495 1.4493491068493038
Ni 1.130057276840336 1.7833404352603448 2.21147172141547 1.9240675672468024 -1.012735937963959 2.3428640196657002
Ni 2.9725009528785082 7.5039396129130695 12.587279402391545 0.3417281493799857 -0.44405779808884815 -1.372385447709056
Ni 2.4357032691587426 8.895148176005605 4.281563189821133 -0.35245941975456074 -0.4226286816807947 -0.08602731200441313
Ni 5.454524155209908 2.2292284627354233 12.020749714676631 0.7016432540816433 -0.6818982102442321 0.40252651161428094
Ni 0.9294541408648921 2.098073015160709 0.09625766203976546 -0.24123812498302322 0.012726446427732923 -0.6241327212989896
Ni 2.016421823603424 9.071353508913155 0.43645194015500616 -1.1568208162327367 1.2336854879012753 -0.04092502034913597
Ni 5.277656188646799 3.4390962820898237 9.516537488129202 -0.8521430347378292 0.8391988158723352 1.569762866753387
Ni 4.896614226964397 3.375124524592677 5.541791166998061 0.4897092773793759 1.5023907079563157 0.16164705552225708
Ni 5.89676769757941 5.018115470307418 3.249016136694474 0.2711379978662492 0.8674107595301771 0.5647816330341823
Ni 2.4761055156574443 1.4167291620767957 6.055559570213566 0.21352471822815483 0.7322581507540227 -0.20364885387533957
Ni 5.534656811306537 7.127342818670046 12.347326871170122 -1.7421123962948126 0.8709645383197065 -1.1500104781791225
Ni 7.3486164434008625 2.637880160066141 13.367266398675238 0.5500582107810785 -0.1607343139000006 -0.1454208234713818
P 1.7129448126023565 3.868409264930697 7.224489514197687 1.0028580167286147 0.16491672741246438 1.8797569182548852
Ni 4.5366200870912285 4.676767105242077 11.798941381398759 -2.4398151776714694 0.20233630571150316 -0.7932830271768274
P 6.882784983542484 5.718832154571232 8.072526225933784 3.6542893827516156 0.546246293234156 0.7778003581601959
Ni 2.0278706606522587 1.0876671293749558 9.214245855111969 -0.26952694462538745 0.5019415577795098 -0.5992503562350131
P 3.3184233308162527 2.0708130028306053 3.684618617316034 0.7145915867121951 -1.0878481457177651 0.7552962635204089
P 0.4932378037874182 5.798734729537458 12.090321646887777 0.0896088587080844 0.5999448111988764 -0.7101140105568158
P 5.452462628281501 3.8580372075721465 0.9956668885721607 -0.0009662205680112393 -0.8671580200894227 0.22078911310005203
Ni 0.8623652442130504 5.012114954426517 5.296706906244137 -1.1758526360532071 1.6439067970566528 -0.10318454050999006
