# total energy = -340894.0951422612 ev
CRYSTAL
PRIMVEC
9.03727423418867 0.00000000000000 0.00000000000000

0.00000000000000 9.03727423418867 0.00000000000000

0.00000000000000 0.00000000000000 13.22696434342027

PRIMCOORD
 96 1
Ni 6.655852947310582 1.9117539954120535 11.39354808679852 -1.6664000930631624 0.7517113743826279 0.4193384409652971
Ni 4.604599589254027 0.3811280558998633 5.880456639003658 0.5336358035589971 -0.2836908948305953 0.6889484322227941
Ni 2.654672148142934 1.3529070410708592 4.801322067623374 -0.33543511728242226 1.1173086170707274 -0.004250804856553969
Ni 3.444737759730797 3.821962616957029 4.926633813695214 -0.17019288820973913 1.5886211371104704 -0.5051456665391042
Ni 5.07463725124568 4.506599389168709 3.003247942819327 -0.7083522906707026 -0.10165139169491526 -0.49154658769843085
Ni 7.099610216287839 5.9675470418238525 2.8656744232805234 0.29933502912575544 1.0399585211253382 -0.8454607376216471
Ni 5.191841658743513 4.790315571525634 11.529468688908736 0.15896333804250687 -0.7589770548061058 -0.4049649458524445
Ni 5.72241098249941 8.007051943580988 12.5884058564555 -0.6923844544875366 0.41640095560352797 -0.3854708416835748
Ni 1.7489655774724706 6.576559904563572 0.3660285783728853 1.2750622510758491 -0.024211050028564753 -1.1692351307366895
Ni 2.6609259418038564 1.5480850493005365 0.18100665875035324 0.11795784216442266 1.0209506125642676 0.8564840853153443
Ni 0.1412887429116438 9.031517332890438 4.696101085550951 1.8134070300747416 -0.26442818994624134 0.7221308325120338
Ni 8.458084218189809 2.382361005670525 1.3370348766103424 0.8255786539857394 0.7498807489317924 0.8012609031759813
Ni 6.835730850528783 0.6359123090283532 4.782248900684969 -0.5728618389391553 0.038503298281520784 -0.013358680695093121
Ni 0.8173916172129062 7.443514643994101 2.317681235105178 0.18187006743735132 -0.36035193512876007 1.5327916888456763
Ni 7.870923484167013 3.7431395124619957 3.6463963972007156 -0.5959004659261737 0.037357614712851796 0.05218696641620044
Ni 7.764717439220252 4.024352369899735 12.656591185635113 -1.4615865294557604 -0.575742245810744 -0.6942569889199011
Ni 7.979795524966332 8.856158066710474 6.946590187897521 0.33057984607265006 0.19407355148207867 0.5001788094521321
Ni 6.82347630688108 0.8935423997635257 0.4492853695298388 0.5611324663173691 -0.998081678385894 -0.008990376424068388
Ni 1.9810427757564038 6.3214738064809275 9.050087123662783 0.2622849183509935 0.9238277048673251 0.3490696773467214
Ni 9.03364109229841 4.92831474667344 1.2704843903111647 0.178562343220357 -0.30065220527528225 1.6571307519460943
Ni 6.566347784857153 1.9074884020479563 7.008280428198369 -1.7082658800590127 -0.9490453417835332 -0.15923921741171285
Ni 3.5766909985214395 4.452420931080229 0.4985204386984863 -0.503151776037527 0.3327884236881946 -0.4923788537917391
Ni 5.923987380775233 5.635978493231983 5.001657648168497 0.21322184227575539 -0.6149361424013862 0.2394290967987425
Ni 5.156984892630541 2.771370468292484 9.209604048386682 0.42177327565903494 -0.09911628397788737 0.37295496860475125
P 0.09009981508766192 5.77612853960999 12.471545769099981 0.545372375269635 -0.870721569070965 -1.1420706545067556
P 4.049973041906548 6.2937293750661425 12.603153784020902 -1.3457058815353402 0.5164397513956848 -0.1480394920411515
P 2.306565387991111 8.757010132817443 1.3121977362659605 0.8995816878357669 -1.2251980192555545 0.5503443745629295
P 6.460114628088164 7.7454499708892035 5.943694964353806 -1.1391663363757671 -0.4584480053722491 -1.0269014308310638
P 4.852573352638483 1.1423747041852474 12.526027879597432 -0.14128957491182764 -0.43270792029366767 -0.03178809104487429
P 4.1863183958983585 6.063595190708653 8.039573478072597 -0.9015128434202088 0.07976359048288843 0.2135082631679226
P 4.589597714287075 0.9497452072451371 3.702914605547596 0.7315824648432369 0.30809117805183067 0.7134610726521778
P 0.17644735397877054 5.573865308504355 3.572113619201704 0.8576433957307682 -0.3056887392579251 -0.6366426808405422
Ni 1.3974336904456621 1.1005140506630053 2.71250618359535 -0.39974483510408576 0.3816239571336589 -0.8783338342005841
Ni 1.9717886071020911 6.273024980156934 4.776825632511676 -0.6657203149327889 0.5237591678752335 -0.3713017492720444
Ni 6.238159176769885 5.754773460967274 9.283186437644765 -0.7674876633802782 -1.0905598882219736 0.5105922914759722
Ni 8.670243264409187 2.484879842794082 10.33994110350206 0.2596461951765658 -0.679450777145004 -0.32249501218198656
Ni 2.3786376487510164 5.23128032281326 6.862915874678235 0.0014539588377071734 -0.8950218363792262 0.6391222527292864
Ni 0.730627459986872 8.919798550757028 9.044888883613993 0.4121609493802515 -0.5126149783329558 0.3778066402700977
Ni 1.4385442502195567 0.958213133054796 11.362822258665906 -0.2560595062665719 0.6309726270389584 -0.2860879343078621
Ni 4.063709698502793 6.970268749705299 1.5961904592096243 -0.15225995788040228 0.9476662020478194 0.11370138088091385
Ni 5.66027972322363 7.667440221061052 7.978505002228212 -0.6384972175507778 1.669836886658853 0.2625715963534768
Ni 5.50794743139053 2.7961597110842606 4.832272923880494 -0.15457086540176604 -0.02888711534799541 0.4786121390249499
Ni 0.6744842985141652 7.210434308287679 6.899184263001953 0.5069251270370302 0.31413789846654283 -0.20591836663580668
Ni 5.235166350666144 4.286342945376808 7.251696694266059 -0.5288779771590376 0.3628263648111816 0.015188534814980295
Ni 8.162601504985313 7.209729400909714 9.044968411625865 -0.032738370773285556 0.29825670845991215 0.4578185993183663
Ni 4.498917706203703 0.6694116765750386 10.411882323787857 0.10730884709100874 -1.6183325481319741 0.2192431087691708
Ni 8.267126616953847 6.998528305742442 4.891939718515618 -0.5630469097312626 -0.5439618680753535 -0.07988931742747532
Ni 7.326265050125887 6.053825897431981 7.1410922080262775 0.3357634471561185 -1.1782761578930352 -1.0737883251905893
Ni 2.2627074968979675 5.2948575459412766 2.386303064622684 0.03452374480848247 -0.15077180337065 0.9773627006709878
Ni 2.3463113193794576 5.414610464728674 11.26889696546167 0.3513394472175046 -0.361959388825196 1.2919222600559814
Ni 1.2876398476905413 3.3981506118665568 3.691421000377132 -0.5305003432538089 0.19012973634298222 -0.7434144244811584
Ni 3.627326845171941 2.5743307816030527 2.5525925225394945 -0.19522849102212828 0.7157318709642254 0.40836291579039996
Ni 1.123062049483816 3.136892055589679 8.304654801283826 -0.5834946360626531 1.552761961320016 -0.3343603961610048
Ni 3.451389193451084 2.7122034349137882 7.091821893488732 -0.42580579385719575 -0.10540185987628299 -0.09613329009016347
Ni 4.135601213781169 6.939542017845277 5.941472698658401 0.07467794842986494 -0.13671815349106134 -0.3662438751331628
Ni 0.598043419465691 7.313287524552066 11.034939110442421 0.82997446906059 -0.11593206998364548 0.23227165981835485
P 0.27446201370261114 5.48016685087944 8.071027710495777 -0.4187776833658208 -1.374722837592981 0.12083182127810801
P 8.544634192020231 1.488267332188334 8.261575019488667 -0.26498406244971134 0.9141171624477806 -0.4254301556853319
P 1.7873107313789631 3.0654975903855095 10.60797219297185 0.5872309631766338 1.1477651337883719 -1.0237315177435145
P 3.88996810438252 6.249446732091405 3.739408021995818 0.5205375756141423 -1.0139746954670665 0.2779385657278503
P 6.77342788304555 3.8571537622108316 10.328367066592318 0.7570744384667543 0.3812935703774336 0.28438869222856833
P 6.381878946408102 7.904505994635201 10.272060330458826 -0.8675758243531317 -0.4175597517983196 -0.3485042917615546
P 2.007657547911629 8.498797137904338 5.656630471951548 1.130866301150504 -1.2643433219964482 0.19534213378185714
P 6.758019330745157 4.187719173380213 1.632749847758605 1.0410131876420974 -1.512898549466175 -0.32550885930764584
Ni 5.3209300816519125 2.938722709640688 0.3910076039202682 0.5865593910309059 0.4795696178422128 0.016138814543391562
Ni 1.335835630340394 1.0180760365373809 7.021070882198807 0.11527181069182726 0.7735531528480678 -0.5425691014928848
Ni 6.67807560426464 0.7332301949208974 9.179685248829097 0.1617786960041149 -0.2737381544932576 -0.12243927497454397
Ni 2.645210122184863 1.5992540951215501 9.226323005428164 0.5204876962128133 -0.7818431607710018 -0.30729387896151594
Ni 6.2762783988244655 2.1466779350300773 2.677692796397945 0.4588889495644097 -0.26714198933297867 -0.46328502174957636
Ni 4.118367132117327 6.8613424852615195 10.348723526449582 0.6770275124154921 1.004688127958818 -0.025328194352143476
Ni 8.17848903281176 7.170353997758503 0.55143367841626 -1.5215562251411732 -0.162508632191604 0.45779365961770185
Ni 7.562183089892323 3.573835219913273 8.222026100675187 1.0490219168791868 1.362258643687699 0.8531521927286339
Ni 3.1701582614651915 8.469335624415024 12.489719727267778 0.6960282218877109 -0.9821549798533084 -0.6311037533001841
Ni 0.164519959652636 4.807070677663422 10.290114996608812 -0.4761598208297154 0.5923955380967088 -0.30293585910313636
Ni 8.529614242505126 2.186830543751865 5.675306902557996 0.5642568708789637 0.9634712874008761 0.4635966394527242
Ni 3.745995291070163 2.845792420312273 11.558250599387499 -0.313896214769382 -0.04294976408864861 -0.3625358301539563
Ni 1.1567530072409227 3.7091051382899827 12.604939549378416 0.05241887992134844 -0.6430758380603957 0.24576892297384126
Ni 3.037210922526136 8.181064655923555 7.6527374798660315 -0.07308823534524186 0.6282030347136214 0.9915063391612214
Ni 5.543328359399938 7.8861693655340295 3.8547606920353803 -0.3741518171263298 -0.3726353804818034 -0.9577603530590278
Ni 3.0028060201169873 8.343934409329826 3.5724579393440177 0.12258557074442114 -0.5115150604005577 -0.4847514191534683
Ni 3.6294325300317603 4.467404731499028 9.44454154391582 -0.519035794257635 -0.005922793242338188 -0.4048520744236641
Ni 7.204090141885993 6.345802148294805 11.547404063040911 0.5082790699617633 -0.5616091488434715 -0.33322371145340035
Ni 0.5413887482802556 -0.23913530933766194 0.05604104027564248 0.5119560045927183 1.1854806460612746 0.24787619912483116
Ni 4.686170025068311 9.758087056816972 1.5089455190027217 -0.5762690648484914 -2.1213354572964627 -0.12981088484826678
Ni 5.896071241152995 5.778893945477392 0.4417491866774645 0.66909334517008 -0.35949987154110985 0.4825664956870076
Ni 7.9874410588350315 8.957646654589313 11.326884634573386 0.0702934462089241 -0.3559252668159741 -0.22683917594887384
Ni 0.03393767533939465 4.680982629748412 5.688533856896328 -0.06792571730769592 0.3593191229888715 0.7370835971671242
Ni 7.932304649694444 8.70281360018081 2.6026960737468916 -0.998119473602365 0.3501518546673067 -0.19589877761627553
P 8.44851374494282 1.569440127943252 3.5741370648674273 -0.5850748360655795 1.6083029318101139 -1.5851277792452314
P 1.9134258911162019 3.2247885832574954 1.4186577286142688 -0.8877083334369485 0.5210957621104575 0.49164171851539845
P 4.552535853299442 1.0688835913953354 8.011267831937664 0.5035011889571458 -0.9798237606169705 0.19596922584289478
P 8.616381110913384 1.6634820019830732 12.5101421592258 -0.19785513001169797 0.30636493938934334 -0.020982515788938057
P 6.295943507214879 7.704547268419068 1.5596310706606435 -0.6476768271675168 0.6328094231373812 0.16140305783225103
P 1.5758475552634743 3.111470203612549 5.816451952811824 0.8628581071624881 -0.4559121263242729 1.5882917787955098
P 6.946654352543464 3.889706023434302 6.048174889951959 0.996906170020554 0.5375564787696419 -0.7489515522493037
P 2.456683547675473 8.36013824174895 10.289889968484307 0.34084034745839364 0.050850506992964034 -0.5785120952463971
