# total energy = -340868.851160225 ev
CRYSTAL
PRIMVEC
9.25470453973217 0.00000000000000 0.00000000000000

0.00000000000000 9.25470453973217 0.00000000000000

0.00000000000000 0.00000000000000 13.54519557376896

PRIMCOORD
 96 1
Ni 8.77224752298475 3.34891663395974 12.567489866579718 -0.732330655863171 -0.5524614209059323 -0.5261340958653132
Ni 0.8008021787460631 2.8044346026666376 2.325330580546344 1.0130475556671068 -0.23563389142236837 0.06319360193934924
Ni 1.8197895694812083 4.983908263494648 6.544293092504862 0.18058991517334705 -1.0311995439857853 0.8757282782569369
Ni 4.1245256560490615 2.100123824234482 6.312087928631533 -0.5342945201889185 1.1826483188188022 0.31022570789633025
Ni 1.4835568993996264 0.567902912033392 11.51053134865078 0.4076905723137237 1.2289603145114643 -0.4098492705279393
Ni 1.8295440280500885 6.630764424230034 12.711447720929613 0.7126344629858243 -0.8794358090155113 -1.9002681508343593
Ni 2.9066713235493884 5.106542353149517 10.445526790608191 0.3146822010057871 -0.11975710015669053 0.9778792352960901
Ni 3.9001638542602914 3.5029889548845197 8.702286584131382 -1.2210050642201293 -1.7369113117098476 -0.37054918737673603
Ni 8.973592874620953 4.365971642390158 7.905910930559413 0.2894429668230241 -0.3995319477623313 1.5488178890706035
Ni 8.62609722913299 0.8049325533753716 11.999133474024623 -2.7427932028664506 1.4160438078289548 -1.3254872404956204
Ni 4.673385162582278 8.914057360414496 5.018576386643629 0.8728203605815227 0.5632271440628687 0.3907799126013141
Ni 7.0528622428904315 1.0725462167596458 2.9336450853566545 -0.274292741445147 -0.8395574847633348 0.213179161963278
Ni 3.2525381410410317 6.871025808391988 8.918806874776497 0.4286643463519133 2.033094682580499 -0.21257186739658226
Ni 2.4673134809506982 0.42103167669916797 6.172978613982052 0.43914673394047593 -1.39857496162023 0.1906753244338071
Ni -0.18484606440982776 3.968324753083634 5.63528861033952 0.2933302176925723 -1.2075407111851075 -1.0418148576077864
Ni 5.09100370425279 5.417611481628835 9.114047823308304 0.7954080439396302 -0.5594833607497204 -0.4958022776509913
Ni 3.268909713344968 1.165916930707874 3.756285590369308 -0.3284327178226602 0.03856114810264972 0.029944867188548427
Ni 1.8467485237612349 7.19024833155744 1.3063700284543196 -2.3362213175382025 0.07530786870437998 1.3911730127292041
Ni 7.158051214516515 4.254683820482392 10.535737948431738 -0.197141391774125 2.5358327681193744 1.9887914897877492
Ni 5.338974257283698 0.46699053936810453 12.514392850310992 -0.33324736560248414 -0.31017685693626584 -0.5129723616723746
Ni 8.9726303853504 5.499932078374746 0.037451938269966296 2.277057919804169 0.612426488605655 1.0174675391116736
Ni 6.774055014383709 4.69617024512173 7.168930119685129 0.2467672823313686 1.0430338176165521 0.6243342957868344
Ni 1.6130209609936164 7.7228380675364905 10.669712753010995 0.6662849291870074 0.0760203213903723 -0.9033480968567347
Ni 3.2975437691439393 5.539551468444364 2.770547576579529 0.15330742530831015 2.2488187224528176 -0.21379468406008983
P 8.246571051285542 2.6449020060723702 1.0422944386097828 -0.2478042082363152 -1.0630087180765821 0.39442907931812715
P 0.04521108254335262 0.5604297381298144 9.787988363372682 -0.13403109357720142 0.04752298528162783 -0.16431534638303957
P 3.381048968068993 1.7015699738845518 11.736086081852763 0.6008729794401007 -0.17806817719275783 -0.2799149727279308
P 4.64924889318224 4.47068862408549 6.985582391937827 -0.16153598386568954 0.07105680673750989 -0.5223093228025842
P 4.297348008340588 6.466641494191589 11.603776198617473 -1.1073291372605125 0.5072359734092297 -0.3910624768387394
P 0.639332572494807 4.959327768277432 2.945646586184097 -0.573180912841471 0.8326234766476629 -1.831245858028375
P 7.984301979764198 2.5367422742939043 6.9978134094374775 0.6691668787204926 0.3625047198057047 0.4084205085012128
P 1.720042364115562 4.127339086224525 8.887436202849615 -0.33088760712105597 -0.7190555360208197 -0.510463736317908
Ni 0.5681574164078174 5.508279821855894 10.860673400700195 -1.2600508652686815 -1.8218212222803656 2.035621562767411
Ni 5.523263188481147 7.833172654878227 8.344653335307221 -0.20315545917868885 0.01183890161645703 0.4598225171222726
Ni 3.597738619806907 3.339735967071382 2.799981238849422 -0.05399033817352637 -1.6101610680647753 -1.12118095554194
Ni 1.996369331809704 6.791638952980362 4.283438187440183 0.3726940016338807 -0.9604880364028361 -0.11393766526143603
Ni 7.95063336470387 3.7544485315211844 3.022949282136794 0.834203162429957 0.5429413972306392 0.510899795414062
Ni 3.1044258498300645 9.036321261888382 12.8569103902352 0.31081654740279374 -0.8020692580098896 1.3667930412229428
Ni 4.0552541926827725 4.903753267607483 4.871367354594258 0.2260318495562301 -0.23746091732877816 0.3358796610190087
Ni 5.9901260129268135 2.6825038705556348 13.236459704843957 0.6188802146507986 0.5189640604794352 -0.8958253061171282
Ni 6.728364538145985 9.013600962280602 10.6668687823106 0.009667604996751093 2.3413977195328193 -0.9132566142196982
Ni 1.0578034724520309 6.236153078007565 8.849875059066258 -0.5015908593083103 0.6731947689329632 -2.4030705139522675
Ni 4.375772374481661 8.551772697096293 10.491498609863463 -1.1353521048359994 -0.921300053349465 0.3012852108735908
Ni 5.674707173320954 6.749807688529377 5.518882011359223 1.3931018543208007 -0.8984807414621042 0.3499477090763005
Ni 6.06006381501887 3.7384934209208525 5.148082094407979 0.6966751114430906 -1.0524548538201357 0.028081331617248413
Ni 5.838978178631793 2.902275338900225 2.218906105866232 0.42355042216411576 0.7492698548206709 0.7978266806834517
Ni 3.543866984769476 8.339710397620657 2.114594480229075 1.5118515962588994 0.9883307696467174 1.1257063542161194
Ni 0.6412705076222487 1.176402510934194 0.29917683316526655 0.7825399297277105 0.9315217310774732 1.2683514147145771
Ni 7.312475214213228 7.088853788786423 0.9384029765580412 -1.0416932444282576 0.5237820506933689 0.13072259802925876
Ni 1.4465565907104583 2.2737513358196453 7.425489963985276 -0.5604513810899444 0.957022446451739 0.1844529976731791
Ni 3.5736301145204425 3.1603890480900447 13.56402349319739 -0.08518964659446619 -1.1301150248067762 -0.7737845521325835
Ni 5.175119713676464 1.0551473722534837 8.97367894337303 -0.8326445596935853 0.4443601598206154 0.5690807746301683
Ni 1.9814414934115983 4.187300316839113 4.217053266415102 -0.6538251061570998 -1.2377468024548426 1.753671818997638
Ni 1.1352005663908782 8.881230923465901 7.991638184040812 0.9163671348242218 -0.5149143158900938 2.5746127171010498
Ni 6.322869659402638 1.4454922996901345 6.207776302994376 1.1472326583236694 -1.2073530206543337 0.06612311688131838
Ni 6.070475357608994 5.189779165643359 3.26840163006657 -0.6110051827780961 1.1063004388856819 -0.42689285627378737
P 5.375521085451163 8.404410036951816 0.8455357185359487 1.2756721167457061 0.038553177682849736 0.37493600359052204
P 6.551988379317029 8.473681500318104 6.60622187330137 -0.9797078038643965 1.7034617738021502 -0.41523290343735586
P 7.831534572177381 5.821024051854157 11.939670146513457 -1.1632467743637387 -0.49414802987702 -0.39222744368111806
P 3.5416180915700095 9.346973928664097 8.134715915990421 -0.13557889768029552 -1.5759659102403052 -1.0296967341880137
P 0.725472585798001 8.386724296605392 13.211875507744931 -0.11845355085391858 -0.3025805326462466 0.18126071598812654
P 4.822478452472848 4.765099284420611 1.429885165979926 0.4528342587298976 -0.2658808632323679 -1.7156390325946322
P 1.5439438464223432 3.912361554823654 12.519282110711314 1.138957819909387 1.7026906999640807 0.4083202354779226
P 2.1029650185235202 2.2978320769925356 5.278264321073075 -0.49309490602215716 0.7774476028064675 -0.18570615335398982
Ni 5.677890791677401 5.104672902835556 12.673155455488818 -0.2947831480890149 0.32860009663845985 -0.521729024819082
Ni 8.49714217628785 7.578594242816788 10.164138425009572 1.5216449282002376 0.5163998992966848 -1.3613950101358232
Ni 8.003514746357173 7.912383670903886 12.33834615896311 -0.11541167870380124 -0.4469153221423013 1.860425564916125
Ni 6.2034469522177895 6.818912567214224 10.613595001185455 0.1091351016664701 -0.904162879448546 0.6832688653395136
Ni 7.362607948622738 0.8044179918038064 8.329469141593785 1.3338487250864384 -1.765338713812605 0.3589915644461237
Ni 7.9804057491593605 7.87577205980475 5.114882692867046 -2.493230617178132 0.982569698793224 -0.7912791093729211
Ni 3.5704650055730447 6.383793379287779 6.557080317746438 0.14705810196448865 2.024758909021293 0.8535324588861881
Ni 8.944310989505263 2.9163980180046956 9.978027242491237 1.4887018976153137 -1.3723931610185396 -0.14759134876013935
Ni 8.89819479685941 0.4454381834713225 6.567510369745611 -0.9382402807482293 1.2300522620240624 -0.8985375628419687
Ni 8.314417290155049 6.471463195248883 2.9856593011960073 0.6569744504193589 -0.9127398224842797 0.34482555735838677
Ni 8.49035847787135 1.9954623707662977 4.482145948286888 0.8312816179077877 -1.2487482957716687 1.0643354073078057
Ni 6.62951503911922 2.8202879115171986 9.060151200568656 -0.6101883433037556 0.4028651259006223 -1.6522641678824124
Ni 4.099140001538209 6.771658045911849 0.2706890016977835 0.5131040021542325 -0.0806508781838482 -0.4305919023919294
Ni 6.278872794092908 7.723411859217013 3.2219411624124024 -0.5980226544754991 0.8233425655663691 -0.9285937587974007
Ni 4.713643127264089 3.376366087579568 10.92378030538268 0.21336762382500027 -0.5573981960859175 0.6121768344886941
Ni 9.223192255648183 6.307793745732139 5.952314066650842 1.561093621114163 -2.2893423935984765 0.32669799451974063
Ni 0.8349603676757404 8.654897869613402 4.86368687530933 -0.312146836178443 1.9574086046010934 -2.1251890267145983
Ni 2.5987025210857952 5.08021271877716 0.7400172794287905 -2.0468313154403006 -1.4028903011661324 -1.0063107511639058
Ni 7.110630108532699 4.445830487732537 0.8389232321531547 -0.3798342122230878 1.127093207261317 0.5973531392123003
Ni 7.134849670273458 0.681670994753738 0.5801635445875215 0.7759622765101927 -0.49401587517452983 0.005767498611396519
Ni 2.60141414951149 1.319137818816395 9.526715098058181 -0.3090584270611064 0.7912868226824049 0.6848390380401109
Ni 1.2134768572595585 0.1516226006371303 2.4983843004509843 -0.6830094410305398 -0.7137048132318676 0.6015039281558803
Ni 4.702778104152262 1.280591974471626 1.1304010766244446 0.08671431076910872 -1.475396181645343 0.3591473732976976
Ni 8.106038363080184 7.378970266222151 7.6110319821753505 0.23218912740687755 1.5547203705979677 0.21772564368337988
P 8.428176118170871 8.659562240693777 3.0866790284337795 0.5976940674914867 0.46224655318273294 -0.32537310506073
P 7.600638948994276 5.409050879943623 5.097896608182678 -2.599229487208465 0.11020442347124891 -1.9428304496766025
P 2.68529879132205 1.3019981060369203 1.4799882853349582 -1.2378694440756357 0.9338092415600692 0.282612574164752
P 5.4589707561490695 1.8380583562126784 4.299637622239962 -1.1653527649631479 -0.5959305478331608 -1.496694686012803
P 6.364080858650479 1.8828973996341438 11.190485156782643 1.0066519365534081 0.5954055285676262 -0.8013676039571747
P 7.695740292688595 5.974772458120578 9.040876427455368 -1.164483474984317 -2.430058098284705 0.31675708125694485
P 1.5400568705220303 7.4614019194223555 6.410345126568726 2.6647836189601914 0.11955372589663282 1.70712842402046
P 4.22681790515896 7.106928226722878 3.9157265653887823 -0.18094498451992064 0.10670900872348074 0.3025779615430853
