# total energy = -340891.16672469553 ev
CRYSTAL
PRIMVEC
9.11685276489890 0.00000000000000 0.00000000000000
0.00000000000000 9.11685276489890 0.00000000000000
0.00000000000000 0.00000000000000 13.34343556702960
PRIMCOORD
 96 1
Ni 6.521111590085761 2.3606540469489286 11.699003524287725 -0.06926757604757103 -0.8326910966608045 -0.5533067996253633
Ni 4.676617281455473 0.07309072061032874 6.318797686154423 -0.3631485240372907 1.095781798742545 -1.8691909698135807
Ni 2.6667250292654714 1.490085772749992 4.670629332534184 0.9577665237066152 0.9444590079644315 1.402479953101591
Ni 3.2421807782175804 4.44976263314788 4.589928774888838 0.07035052469910465 -0.7853308622092862 1.115283873331215
Ni 4.981858630166904 4.678276548665696 2.6539021757974557 0.5294952990280622 -0.04111631042433564 0.06866953745225593
Ni 7.331499518929298 6.299097990616786 2.6969483079941012 0.3190101389571796 -1.2490416586423716 -0.07840142002803915
Ni 5.067894370072815 4.696683474475809 11.470564366962897 0.4569590795315485 -0.12322294721810392 -0.17714489404754008
Ni 5.680100152675524 7.941353153508724 12.464810042922519 -0.8859085612240485 0.5317092759602456 0.8781566851927716
Ni 2.0483197867564336 6.503734868642436 0.2841549798623926 -0.5118351627441379 0.08386192892197816 0.25572911951034666
Ni 2.8506119503105287 1.8306366923690838 0.29479617045454876 -0.33743697820379953 -1.7988707841317793 0.6661000668697109
Ni 0.5050089156547729 0.13990084132437886 4.740816335526623 0.14326186814685002 0.4287692473608938 0.5712875524735
Ni 8.719640643631404 2.2734057656201627 1.327800322737367 -0.1286222638568043 0.4470461912932107 0.46854884125167695
Ni 6.664264412805122 0.5080238588768651 4.78519626328841 -0.09888976978937809 0.29518012641711744 0.7120207406612253
Ni 0.7390923165502014 7.665139864123394 2.3470836115510325 0.5024583495149282 -0.8744720372523327 0.608819745091003
Ni 7.934433462230925 4.019483648237491 3.7775798110072856 -1.0707433677166787 -0.9459798154843321 -0.061379945769378164
Ni 7.678641923125264 3.9902367844441073 12.838839869406344 0.1787754876724276 0.3059890441071633 0.0410152660700971
Ni 7.924432274705569 9.042605154192692 6.840405655708389 0.05940225321771705 0.24885476098801657 0.5762299840804399
Ni 6.9413985043235975 0.8380922211425802 0.5054893737975132 -0.6395310581319309 -0.3033168965916389 -1.361100618823856
Ni 1.882402182586924 6.152106972867184 9.173211364083981 0.9461158268415641 1.8372905215605584 1.4620701539603984
Ni 9.0098756526284 4.804690829637971 1.4049170455456874 0.2867461367171513 -0.19076222772065857 0.5414830675175578
Ni 6.412037563145599 2.0228928842876845 7.237973372760095 0.48337845006534164 -0.5199071411189949 -0.3187386304633478
Ni 3.3900470138363104 4.190151132717584 0.19335750773725416 -0.4732164219306753 1.2720329773312222 0.8780929218343716
Ni 6.039212984602387 5.513781406982665 4.864790035003421 -0.5720966786383567 0.9261144440189729 -0.20936030243782008
Ni 5.091461434569666 2.904291979617088 9.537673965235893 1.3689499396649456 -0.40497368760319286 -0.4384031709062321
P 0.2757765921360461 5.5350601414258565 12.547540012001907 0.3284656279431246 0.3550024978913886 -0.49743158572429813
P 3.9712828474657895 6.18527408336604 12.583406622615856 0.16323214062118985 0.760463152433329 0.6681618344947461
P 2.620657572049771 8.70902862696822 1.3411091044598047 -0.7139197574561511 -0.2600524294760489 0.13525930955734772
P 6.457047465436103 7.561946207241441 5.865988222910934 -1.0242814767097133 1.3092203850147968 -0.4461776726453283
P 4.881956157146988 1.0399593992865501 12.621902533578313 0.03356318066742607 -0.0283510403388673 1.312081765722992
P 4.113405465818363 6.230101648600474 8.225681353574382 0.37542554163243086 -0.47072553718802157 0.002460545725350601
P 4.73511100904224 1.2410498215716683 3.8699563220379773 -0.8846402360345861 -0.9944044866446228 0.9975031801746047
P 0.36417633197388405 5.46519769839322 3.458885634299122 0.5380419030464927 1.9404501223698838 0.7280950205152686
Ni 1.2158326067173981 0.9700240214314862 2.5829156248141576 0.8960402503414117 0.10890730192638019 -0.6229620980296562
Ni 1.4307077104412929 7.031473010021424 4.804344389231441 1.9260015510447217 -1.7737395362817903 -1.0440033806186728
Ni 6.039732645212182 5.919007280389245 9.249016171773889 1.405464746761528 -1.5565489391662741 0.35127645519005307
Ni 8.59745658235992 2.5739154677266174 10.270855826113634 0.7728311870803787 0.08570001057198144 0.6467252618875249
Ni 2.4915811700588972 5.252738560662232 6.923228616686373 -0.5386602533567819 -0.08794021275640984 0.08267587903367697
Ni 0.7109969112658904 8.98492282650543 8.926357987466796 -0.7785398074293817 1.217436887252897 0.6705007670405678
Ni 1.4400342508591957 1.0548654536201478 11.424942723849282 -0.28102106130791604 0.31692754539653806 -0.008150139910960157
Ni 4.135723521481144 6.975896675331753 1.7169668599307157 0.013695752319537702 0.1678956075351302 -0.9158369733523647
Ni 5.651710273045663 7.978321991626607 8.10821891036979 0.34289697287710624 0.5596484255726748 0.24606742805086648
Ni 5.02876483784052 2.9869636008385347 5.364167470681519 0.09343671709460682 -0.48042270987112745 -0.6167929931044668
Ni 0.759824039825187 7.697267653402659 7.012015822768357 -1.0782890412744204 -1.453464157458942 0.10555098385963758
Ni 5.294375227415468 4.3641553853237305 7.413692505378564 -0.11811827900168688 0.7748631299087428 -0.16368002679188584
Ni 8.190617026007134 7.304303947016684 9.087800128595104 0.16641208101106822 -0.47844244621630505 0.08859121607684743
Ni 5.064028824484163 0.681276882812009 10.532373660465124 0.057446157932610736 -1.474850593554518 -0.7414303041715941
Ni 8.294840887255873 7.411016709080759 4.661075782481476 -1.588828625135586 -0.7925451205695383 0.07279178715074561
Ni 7.405482779429081 6.063573215293136 6.999752744062472 0.48830956881837195 -0.41841464359944713 0.6020279189801503
Ni 2.524957968172232 5.161296527043892 2.498051400493487 -1.4262328325468145 0.9157999494668423 -0.6387643551692354
Ni 2.308478298354934 5.075060216376307 11.431094776121034 -0.16507330759498667 0.10820539076334913 0.31430810549582
Ni 1.1076702650575783 3.044737097053831 3.869636320504577 -0.4538385316246958 0.8087710955100975 -0.11609379237249037
Ni 3.60674548812089 2.635818898261865 2.5768447125323575 -0.27240220929065345 0.2753810894133193 0.07344253336086706
Ni 1.1610129708104109 3.3261925768011302 8.136186679714852 -0.11762771251851355 0.8910363693689171 0.8835452031981945
Ni 3.475791014452511 2.7645215092877984 7.565060524159089 -0.013780084503227881 0.13542231749777325 -0.96739401949405
Ni 4.1249838688787115 6.852399787256575 6.157381983899245 0.5494889685411698 0.021678770525014275 -1.6729327519753576
Ni 0.8255884575226845 7.434127930937439 11.163118563243597 -0.2625165747458253 -1.5497072336540925 0.6436867321715172
P 0.4218869219048369 5.678203847292412 7.911870163227732 -2.5658681381392 -0.9482292736401411 -1.246099545294912
P 8.76734913435172 1.7616859346167897 8.1627267499109 -0.5680117099357056 -1.2247668452554068 -0.34946125635818526
P 2.2124504877764717 3.1149003962289807 10.339388120322251 -2.469729705842714 -0.8959862571750248 0.2525468651276231
P 3.9014659886971703 6.348866890070676 3.862817826292896 0.46961096396760416 0.43242072807055204 -0.027690523936732953
P 7.000566879017818 4.21724641924936 10.469339740182253 -0.41543319237362003 -0.3289086290178142 -0.40477571265977386
P 6.509186746618883 7.905560389402482 10.375294845088535 -0.08714677032083701 0.02701535224657928 -0.15135955755331998
P 2.3509445987132818 8.603382536682146 5.927220653079849 1.7306298495765098 -0.1344033893149556 -1.9121060240095522
P 6.89389970121776 3.8989497373234254 1.6645139590114975 0.1466097015731604 0.7569289140278254 -0.03894835623873938
Ni 5.262174503313776 2.858680365041559 0.5928917299386566 0.4220967204367247 -0.3851638519661173 -0.11924133686253659
Ni 1.6421731112167075 1.1510482506962687 6.874644908096929 -0.8784145668398485 1.2514314990307867 1.52760860198284
Ni 7.375160127004894 0.6181982899504004 9.468074999249275 -0.323489771995088 -0.21641232418859505 -0.2485665403236364
Ni 2.833800473741016 1.166829522898995 9.45024790527746 0.48469716887676517 0.41303358179319194 -0.955594712866277
Ni 6.316274141298436 2.1453686848488793 2.877818462446506 0.9603283708965202 0.5571223167167115 -0.8224853597723963
Ni 4.343487480018369 6.943522731026795 10.413577421695393 -1.5503978319632137 1.083246899500328 0.5524858463859647
Ni 8.380083460967885 6.94497231062254 0.5193159927591857 -0.12855361540239796 0.9707981600795925 -0.5877402987128846
Ni 7.765014986584901 3.770502398175988 8.194804396499746 0.18003609955240607 1.1025129468187915 0.4171586597051589
Ni 3.029110811348763 8.405446545467012 12.366442847914698 0.6961755460988527 0.20334417815072725 -0.16210239789212083
Ni -0.04436260574146009 5.007376701163688 10.392681595069943 0.27370884391721895 0.3684933332889718 -0.41028327274156434
Ni 8.732404237556198 2.2297360406917632 5.856180312665011 -0.5740448035036629 1.0268626071733282 0.2010831500306924
Ni 3.8076900407611536 2.732749277267866 11.63769086581414 0.22700475499246064 -0.7785313227889495 -0.05211574685863282
Ni 0.9879477540430174 3.4081074992398928 12.900953899241351 0.5016615646452457 -0.284200230366846 -0.9326288480987228
Ni 2.976825660521128 8.129780267249886 7.9753444275010095 1.0971956483709362 0.49634529463865484 0.22633549683957793
Ni 5.620102144376193 7.843675192572842 3.504880156692395 0.024443477754344998 -0.38902590602468484 0.7512508898064416
Ni 3.2114752179756487 8.65335200689771 3.606864007207334 -0.06970466358498963 -1.4934964907904793 -0.1701293819616554
Ni 3.389974079013883 4.45453074716407 9.264187526524065 1.3920996383085316 0.16875229910847067 -0.24798289990602457
Ni 7.173741498018852 6.2023772992252635 11.686061240047986 0.6923335466449431 -0.33249943169286605 -0.6293127228380323
Ni 0.715903601444693 9.06216992030884 0.2867159038148743 -0.14496368132930518 0.18213231995980247 -0.055373591674298187
Ni 4.708553616825867 0.336176653644009 1.7083332003258733 0.12218987796789925 0.31525118613537967 -0.5789862066693383
Ni 5.944023924481839 5.609225738981708 0.5090185075177186 -0.24300215886198148 0.426610034926046 -0.382543897844767
Ni 8.199068348555906 8.590199567528394 11.89670065395941 -1.3537071545732622 1.0310874438879534 -0.19527297110681854
Ni 0.12624470751013037 4.90845884824654 5.729070415823835 0.1776660566583327 -0.21158070712790655 0.2777717011326829
Ni 7.773375140605641 9.033242146363575 2.5169989556748424 0.6879493015343184 -1.0395972811311773 0.15621534298372453
P 8.315590844236468 1.5546513243038393 3.719709676152273 0.6296575077719608 1.6522842224870704 -0.0066416736862337225
P 1.6742188488207421 3.3785688961568 1.6839146217771832 0.575480250398609 -1.654814702218408 -0.8743995321431844
P 4.703612282606411 1.1106150085130844 8.166115484097933 0.24006313083831557 -0.5181775600223979 1.4695592632485917
P 8.704306097216046 1.6336032695814893 12.456857412222092 -0.9467254354011051 -0.12428172749992146 0.0785788261461679
P 6.460593921176635 7.7271982811563 1.3223046838674628 -1.1165915363990446 0.3516590353404524 -0.41071701784487324
P 1.872957123082577 3.346395522613517 6.017875902301254 0.4183629644259053 -1.0608405067806697 -0.8162663754458781
P 7.009237006033874 4.005507512889842 6.022239228052973 0.35794563968011256 -0.8579048769222708 0.013009781996106628
P 2.3551292341500534 8.229819493061855 10.056253316288561 1.3428828102642485 0.7808833679608939 1.5131587451060973
