# total energy = -340858.18902273435 ev
CRYSTAL
PRIMVEC
9.44351286906464 0.00000000000000 0.00000000000000
0.00000000000000 9.44351286906464 0.00000000000000
0.00000000000000 0.00000000000000 13.82153564878650
PRIMCOORD
 96 1
Ni 0.2300024212232695 1.8510984990450998 12.572345063348886 0.16165862548648288 1.0235937066140695 1.1474002942497852
Ni 2.793372209799827 7.406509343055616 11.662501320023532 0.3561078151404254 -0.30695475045454235 -0.3682233674570368
Ni 5.302220821370258 0.9399090551406462 11.868538938723425 -0.8579652978465612 1.4824512887199115 1.112327361806052
Ni 6.614784113928989 3.911786321967634 3.034822057282636 -0.28676799109402223 -2.553904280909105 0.8982688825616143
Ni 5.167782972640008 9.15211436021215 0.6044443156211694 0.13237196070722365 -0.6400509351911429 0.8434766173120828
Ni 3.6918185774836707 2.6992487173655477 11.258815699427052 -0.5447995334853004 -0.6262847346449859 -1.1519352060056613
Ni 1.2668944644848705 9.016420524274741 9.078841199768002 0.8310597317049687 -0.8109591043003518 0.4201349687246636
Ni 4.858262395934286 6.531360121537656 9.936909939619877 -1.1889092121268492 1.904189340265637 -0.5316313715344587
Ni 3.010318030176339 7.673080823384183 5.795632090473389 -3.039790070777333 -0.05440839954755145 0.491830951708069
Ni 6.89311276773811 7.3068141780482225 10.985867959231761 1.199227563333722 -0.7138521374430093 -1.1035979523528543
Ni 7.395318780345209 8.433198615049434 6.5521953439072504 0.467057601418131 0.32184220908933603 -0.3590494142672526
Ni 0.47620707741889695 7.103542564257929 10.469813035050981 -0.3712474989953413 0.1547133045169013 0.48552532120501546
Ni 5.265655539670093 0.18984199418652237 7.639218275057622 0.6367511813939486 -0.7018322301639978 0.48254309864823997
Ni 8.228840997283024 8.474561201270177 1.276792210288058 -0.778950412604239 1.8285927366762442 0.5427781321798976
Ni 8.74522172265664 5.15285277884663 8.852458477014691 1.6027400930103557 -1.734353578285 -0.49831424543956765
Ni 8.710167403010201 3.4819081741698197 1.0076284856860676 -0.594067526482493 -0.039108021745055226 -0.10864916316898708
Ni 4.735846139043993 1.7713197026083796 9.141618840046458 0.09750703050923852 2.41239204846351 0.5707229382192816
Ni 0.18926877295739014 6.412239650627051 5.099165464023903 0.446588792040818 -0.5060344969019607 2.543568703311052
Ni 4.138732822437243 5.102311098149503 7.669431850024435 0.7194296315307868 0.7348629353667214 -0.7371900408380013
Ni 4.563492586278062 1.5522207613053087 5.867988285821182 -0.25210746359735936 -0.7459747290091668 -0.14260983638514796
Ni 1.6023091533863176 6.801227387845912 8.323329009312765 0.6183551953852641 0.022545232290367624 -0.08746867243663001
Ni 8.426474833910353 7.178089654583624 13.142027808221526 0.8715304381255055 -1.0739420771596344 0.4093309361306241
Ni 1.0702805272438063 0.28553783150795975 2.3501862637138227 0.5330627046643465 0.37174886411179203 1.3137771511475438
Ni 8.579393637260237 3.3604362685631046 10.64758621983337 -1.4161350819911804 1.597196280373991 1.4646127178765938
P 7.391824680595969 0.7530021047434861 13.923262238938879 -0.09001972099325786 0.00765006034609005 -0.03321222508591054
P 7.802589158414152 6.293194727819133 6.726471595886546 5.731363299126542 4.935932115258461 0.25519150183932177
P 8.27691792113001 8.800173523848077 9.523397399566479 1.1974861551625828 0.22224410037902367 0.19000735183250503
P 4.853115681438783 5.265740531285616 3.585665938399168 0.13009422041664048 0.6711754245100893 -1.6240877054481964
P 5.905245777012207 2.9553851160105715 7.470152953461112 -2.655414776150782 -2.4138490926250102 -0.07225545503130136
P 4.573238291524593 7.2061463312187435 7.604802336878882 -0.6743512511349096 0.8081470887728535 0.26246386713101894
P 6.09823340532433 2.8173965064540663 10.766312896258722 -0.2932109185058886 0.14545604758469144 0.25055940238394914
P 7.327580462774116 8.923524688509115 3.663094244491061 0.21462746437403035 0.8917238823542448 0.30905662728889355
Ni 8.656688789821144 3.2159694092012505 6.729263098280804 1.4554246236194224 -0.14063420071601587 1.6195006002981465
Ni 8.982386104014568 5.084019013786586 3.246595665678988 -0.6525997183904308 -1.1396630735065274 0.7231456469297933
Ni 6.525684570323349 5.171220411312235 12.264843509687454 0.40065731961602613 -0.3161929812233587 0.6218575521115677
Ni -0.1347183210614723 1.2522853501279099 10.402377854241918 0.20567539738706514 -1.525368656908728 -1.2763984533887696
Ni 8.569780141193407 -0.2882122343430544 12.051812025381375 1.3738442916427696 1.3325863134342468 -1.260841479490777
Ni 5.0418065114106225 8.382241419787533 5.843040413611602 2.0771484783666034 0.17266063302394133 -1.6190347164053212
Ni 1.1988539545030326 5.210278780401045 1.5780601011265867 -0.9872563056356158 0.10737800976604732 -0.3256559264084714
Ni 5.856460589702537 2.0190608183423895 1.3199112898962568 1.0105492147252855 -0.5103644917358823 0.12858189753717209
Ni 1.2657517994317404 2.9664718000797845 2.243317806356367 -1.1675813971833504 -2.011109436558659 -1.804463190617892
Ni 3.435616074248797 9.307044631796055 4.068175616284669 -0.16138557433075432 -0.07217806482614667 -0.25594766327905594
Ni 9.54191423953489 0.9402027483898391 7.813756112342469 -2.0311493859286696 1.5859209645704881 -0.6983185605837844
Ni 6.495087588735402 4.932752825182966 9.79908186978158 0.15736668297934833 -1.325076635320763 -0.09040950023250881
Ni 6.79327595003818 5.891505465836139 2.121191465310132 -0.11138764514607268 1.6002065279552249 -0.8942631038363309
Ni 5.115390363427068 6.794749138040563 13.490053364163881 -1.2481019204369215 0.3199092537326813 -0.009407923577461216
Ni 7.477279028246996 6.906012606271793 8.673124279560547 -1.5414110550835711 2.322848238665406 0.49197210527162366
Ni 2.435472516836373 4.439555923821207 3.328073350074866 2.270021838892994 1.679417845479069 1.0872580775422502
Ni -0.10469172764880716 5.152569473461557 12.943024662233007 0.14946208342029096 -1.497096549436912 0.08429207448086128
Ni 2.5495123778413253 2.079159334029332 4.027360753808401 0.22303959969712553 -0.16414771045692375 0.33564029131469286
Ni 6.827706997837456 6.140606447418502 5.033540604625459 -0.1417559730252849 -0.2225418341251006 -3.374651317834156
Ni 3.9777681461512713 2.878666017732646 2.311679395774622 -0.17493040289472453 0.40047837083600063 0.5927788895780565
Ni 0.5098675345707726 8.515300515643757 6.611642257208523 0.7650489720317986 -1.3181068888711494 -0.3604802331765082
Ni 8.49304215588981 1.5136723419096305 2.8193305378828355 -1.162093891706218 0.09817603155180511 -1.0155106724956189
Ni 4.790807383748266 3.588298789777785 4.886700590487972 -0.11945833796934908 -0.0272439233176176 -0.050558686784158084
Ni 3.807577157824736 2.649415300131105 13.42635025962752 -0.17128766393581468 0.6202156456327705 1.9168664215126727
P 2.0108260751495846 4.080485235266115 5.288216091834787 -0.5478041246395791 -0.7867629666701225 2.613870634160408
P 2.413724106775558 5.734535395479704 10.134709982073115 -1.0485794300251297 1.0320009568411581 -0.16081067566389082
P 3.465259261040329 6.996188710340714 1.5754196949377006 0.7717446388844192 0.20355783682343007 -1.1466089086967415
P 1.417886791216253 3.571772642315159 13.768128931829002 -0.4028306731182611 -0.9363980853331679 -0.19429312369205246
P 4.85332343872117 8.40853215952236 11.339160162282635 -0.1410471198837184 -1.9881674830505047 0.9071669563821925
P 7.68397863719668 3.766733964809961 4.9722144322698645 -0.6364529334272394 1.0228023210610258 -1.4929660722083062
P 4.279252293433739 4.97250057070879 12.456866010987758 -0.4853947091644221 -0.5688925698787622 0.09157883795026164
P 6.56637666713275 4.145296063858114 0.5874705456501276 0.39334433089438064 1.4404546325731515 1.0768047434194101
Ni 4.544926640042907 5.993013785308003 5.544882271549898 -0.1782209007205382 -0.15914408659474527 -0.08161195654553685
Ni 6.7617251736538195 4.760370941878528 7.012480658685012 -2.82189062052025 -2.8435562784191415 0.9038520330763465
Ni 6.285167741908714 9.589603979355608 9.98124912108646 1.417969564096758 -0.7842700250449397 -0.6260484502644638
Ni 2.285358436798719 5.644349847897948 13.497752660178898 1.9782651363351282 0.3459565856390364 -1.139933810669411
Ni 1.345077307252343 7.595974541079991 1.240405410980491 -0.7368889646578147 0.9752333130328107 -2.2850751336816906
Ni 8.979996895267115 0.6710881300545948 4.980120541215984 -0.15990359046858912 -0.828580931147173 0.3284761694660859
Ni 6.594329465126677 2.638271954984878 13.047322595396562 1.0682555682978183 -0.495927747485262 -2.741867091507755
Ni 3.1794891191166093 3.0356172010634093 7.725146687053005 1.2547145406574327 -0.01237266263273998 -0.6107447300278579
Ni 2.1161212432685983 6.9100355427398386 3.2698578708473796 0.25860644105814173 0.26284721861236665 1.5885476035600576
Ni 5.600503617801395 7.629716212442253 3.4227653419818593 -0.8559924903909064 -0.11741919605213326 0.06915341906720994
Ni 1.4414011381773602 4.603646402855824 7.686598267657327 -0.0901197369062319 -0.8172945596000765 -0.9780733535847671
Ni 2.2001873945327652 0.3264197429253609 11.330410747640281 -0.2570897473032992 0.7358224710665133 0.2122967593583247
Ni 1.8234195629234111 1.8276408131610076 6.245924279968323 -1.426409467333995 0.3019804371684025 -1.0185391749092976
Ni 7.22885797958881 1.4710254379432208 6.546114665992287 -0.9845157667760011 -0.7935949019902914 -0.3152524716869603
Ni 4.685304458346866 5.076350881363928 1.282258115517411 -1.2193353898271901 -0.48209341270533096 0.4914105763411989
Ni 7.316947067321021 2.2826387051020127 9.004232726608876 -0.3323076273970341 -0.514938741370126 -0.8527475010910474
Ni 6.609788495638859 8.47706373217166 12.791900126321925 -1.740705231534641 0.9983899536549322 1.3078967811073667
Ni 0.20019775036224527 2.946479883406425 4.545654734882546 0.7468329632444041 0.3858801613068516 -0.5423842391755884
Ni 1.9508314381038359 1.9402641472405913 9.354539835252357 0.9021836442349882 0.09728720118894858 0.8985439905998719
Ni 3.9658882070038524 4.424587955976485 9.769862696716373 0.126882141237246 -1.9925769249721104 1.0621800515276998
Ni 3.877506370373731 9.092044175063716 9.579595744452241 -1.419976824334774 -0.795377704922327 -0.5787208688230936
Ni 1.2581403280860972 4.064034635906176 11.218774260652035 1.7036607771868337 0.04001639249193753 0.1795272782367876
Ni 2.033877689981738 0.8156314818704188 0.1431485449699785 -0.7589248614119317 -0.09137443524893941 -0.661393405422661
Ni 9.103442495056509 7.668869016659422 3.3567259123699245 -0.09957239767869949 1.1864430099745435 -0.09310221657332353
P 2.8425917986999436 0.7254119376424537 7.646446339782131 1.3532878076476564 -0.9387758415367251 1.4481460876801382
P 1.2608695032956392 8.767971145078047 4.550436929782588 1.1015881210116771 -0.3960715000175566 -0.05801000085588075
P 8.76435427966194 6.4519685091272025 1.6112313843135682 1.08716577493876 -0.7400275102867966 -1.866190235314044
P 0.13252270432715207 2.89553213165736 8.773730743556593 -0.10716743641713801 1.4397054131119527 -0.057151252400011246
P 1.1055614911983027 8.521712660859256 12.775189830359 0.3534683206350493 -0.5253871903969597 0.5461431919973885
P 8.413914961838758 5.609966017662852 10.984222899295768 -0.4835034056789802 -0.34324124359040237 0.4407577871813377
P 3.7492445790380855 1.0308255306158922 1.314566261631202 -0.5283136200151353 0.27808948948341783 0.6026285286786267
P 5.909438696711296 1.5914868876765071 3.454209406671176 -0.376143650745378 0.6207571199585374 0.9912381731014993
