# total energy = -340872.809767858 ev
CRYSTAL
PRIMVEC
9.25801785618760 0.00000000000000 0.00000000000000

0.00000000000000 9.25801785618760 0.00000000000000

0.00000000000000 0.00000000000000 13.55004494731567

PRIMCOORD
 96 1
Ni 1.5320075114839693 2.319133434615476 6.423994984876017 -1.6681918948562624 -0.051965594434013725 0.7869406298985674
Ni 5.781335798991845 3.7306663617295803 1.8969520887260367 0.8256532159774167 -0.6600183794520053 0.32077828660119595
Ni 2.437784189497839 5.3006780358845935 13.452606109290809 -0.9743611948405024 1.2156761958080484 -0.7532527507278189
Ni 4.884243141583441 3.6735351344840232 12.668099279367496 -0.18213052018758955 1.5793798210178607 0.8257079804747521
Ni 2.56473012824214 0.7232678202229088 11.496522135693585 -0.3274096758747845 0.4289628514289387 -0.5555626855390755
Ni 8.547501876417073 5.520657794526903 6.498628494589201 -0.7064643296193704 1.0327573753912085 0.3154409335486826
Ni 5.9985937004294545 4.975980839003021 6.4054039595265095 -0.3384065412059204 0.04940040480999879 0.05562967354916226
Ni 6.502914956785715 9.08750353300091 2.1623840852814977 0.25069335685865207 0.4491316130673297 0.07697574332510614
Ni 6.343584472116126 7.558791875819229 10.804209423462614 0.5879737548799293 -1.2171574083392651 -1.1506504257559667
Ni 8.600763252262752 1.3726585107789733 1.4289741066648913 0.03848864299350146 -0.780177857253437 0.3909161810688622
Ni 5.178194461673166 3.3167126161728464 4.909682322627898 0.0019779496619772388 -0.9537005811673576 -0.9284688031837623
Ni 3.264191881743411 1.0109940492090985 4.55991533960822 0.3870333010746883 0.01947636355705678 0.5241833998968457
Ni 7.898237094901769 9.064710293415986 6.458357969184449 0.25390235071425304 0.6119706320151589 0.836590688825527
Ni 8.337270810416081 4.848534967302754 3.2317666005402286 -0.1974283268869245 -0.47319765287759796 -1.0968130682205368
Ni 7.595083305215208 3.648797711181458 5.275113871601146 0.7815688240636925 -0.6161468748800356 0.7177632995719574
Ni 8.95586377928116 7.443714715770246 11.38737658758695 1.1011646603210132 4.054591890131385 -1.7330109482141767
Ni 3.794852198464866 3.8133126857647595 8.723925439171815 -1.3915244825313517 0.6160154915084939 -3.431287578270961
Ni 6.88902984310936 2.18490143593887 10.058767725039115 -0.9976739014245141 -0.6424739428103388 -0.014513877345458875
Ni 0.9648428309593655 7.671110146592701 13.250819281236774 1.2363231826344385 0.06356512634615503 0.5612468804080463
Ni 5.054877665868463 1.5661973708613544 11.731574872958237 -0.9011909413044157 -1.0691855363112555 -0.5783681134693652
Ni 3.868351601009426 0.25996606290357693 2.328941378570093 -1.9417757831598428 -0.10584846049539834 -1.5270344746469249
Ni 0.5909216797524154 6.9721112939765835 3.666574030973095 -1.3695366654063512 0.1558672156156864 0.6733953149795435
Ni 7.738434451329324 7.439317157361294 13.559529733148711 -0.17618330146521916 -1.1170967581702373 -0.1680275051273042
Ni 0.6575710749984843 4.353193988118458 4.915089004966482 1.0173320419750738 0.5242523054615681 0.8459111948955045
P 0.0590411562976977 3.9976768503034124 7.693660826113804 0.9421650697239322 -1.0993402055177648 0.5077016001917385
P 6.240931571824643 5.110175805608815 4.077100458376158 0.49780902366837493 0.5306232419849184 0.08982303160141951
P 5.054433281018715 5.842244297460248 11.646399258486584 1.1592883039366229 -1.0794218693272828 0.3333388968750259
P 3.330062677700653 3.8481783804344674 1.0302081391500206 2.627621408087597 -1.6865428865596246 0.3069218403340779
P 9.05281374066756 7.462341847388793 5.672591123051751 -0.7891810891933119 -0.8432884125606768 -0.9376514981242949
P 6.857098940051522 0.09908300866518431 0.09135719289198425 0.06346665309507779 -0.22663040237217744 0.15552937266029343
P 1.6167831795908514 0.10917702536682604 3.219273831451725 0.4086447086968769 0.026919192988347187 -1.2269443125226998
P 5.5553661028956585 6.8378237471937595 1.5330388546560898 1.0797805382182821 1.0864168125878775 -0.3366499635261299
Ni 1.8962364439575905 0.7948341486710707 0.815730420428638 -0.6972973184081216 -0.1816810913549968 0.2609865112545441
Ni 2.8467200894595166 9.204737811174706 6.896363118931951 0.621044569291969 -1.6774787194748273 -1.1938909816121566
Ni 5.242287718231421 3.894764725516244 10.255690390591962 2.7853177064922225 0.2991059438340849 2.356851077973412
Ni 7.920298951088151 0.11165076769708254 9.17045352001675 0.7779134866992926 -1.7703649633826026 -0.3519804232356132
Ni 3.9391754364378024 6.652385652601552 7.0350611853485105 0.9355228818170663 0.5457351579256924 -0.07278921604758432
Ni 6.226350193942331 0.7952489078641677 5.090819142195265 -0.692609426014149 0.19146722420748316 -0.11746933256377834
Ni 6.033070558355634 5.520120829500126 8.630037104239815 0.12308410764739447 -0.4051724338775603 1.1549529097860625
Ni 2.597660897211909 4.728051124915186 6.794358279879682 -0.9669430479995605 0.3672530331239675 1.4174990522182427
Ni 3.1240347517368496 1.3643633269170352 8.546595516483944 -0.9043703674736618 0.4237563675273347 2.7223683593531955
Ni 6.065334750050783 1.0396753880531655 7.81977169166129 -1.1624160509323271 -0.0477070762679759 -0.1468004774277278
Ni 9.005227529673853 8.400817843929858 1.7658150453675623 0.6709635656095994 -0.0033609460524329214 -0.4347372920188707
Ni 7.4829409367780935 2.3157264841007517 3.3459262910348393 -0.08941962551541374 -0.40916689974893405 -0.05640691803481898
Ni 4.213388662784612 8.364276448055895 8.854981011974502 0.405087844583554 0.7321437366633454 -0.2997965421432063
Ni 0.12381950616597909 1.831939511009868 10.553425462516927 0.0035056991604133178 -0.4618117796381595 -0.698591611739513
Ni 9.243658517598353 5.149735315253972 0.6226322419889221 -0.7997940888224677 0.17936324185509753 -0.9826332050413076
Ni 1.36798321183893 3.4044508499447064 1.3633921608599846 -1.7357080354303653 -1.9250193896371102 0.585941554941249
Ni 8.246912557634257 2.0513730466076963 7.889310514232483 1.3285859340256023 0.669253524897028 -0.6683765216087134
Ni 0.8769879461644473 6.178680660789295 9.71034130298284 -2.057132183145676 -1.0615259628834686 -1.0564567758906773
Ni 3.459786021755871 7.3295355834384575 0.7190137610883547 -0.5495771573796019 0.7981267284223739 0.5496296078840922
Ni 4.37189518387863 1.8136734420817389 0.6863098135523101 0.9461664775738414 0.5505492914848842 -0.22613340813110086
Ni 7.41485747458982 7.138968547038758 3.2408588997263994 -1.5353712766473944 -1.6366506297148717 -0.9259048991113279
Ni 6.867292017542585 2.145054927744918 13.264978493511828 -0.22318435280510598 1.0978705629507737 0.8332359134206812
Ni 2.7985413653328144 7.347375783552247 3.0653315130853134 -0.1259899684402798 0.17379577506964908 0.2219373677718823
Ni 0.6283870257931415 7.644752570192102 7.607455720073571 0.12801316951789568 0.7401126138014351 1.3735388445872088
P 5.786001839914184 0.2145453022506149 10.040325753774628 -0.9937455129043853 0.5157396400048667 -1.209213213791524
P 2.717006003422002 6.011471603054405 8.793477222967791 1.5453805812542805 0.6668233181889807 -1.398548736367985
P 1.5932678146250896 6.220962027639152 11.659312341578806 -0.12754471452190938 0.3797269972212622 1.226287138554675
P 7.818923657239691 6.709563169935624 9.32484300063822 0.6420605094220039 -0.257099517495312 -0.21275184461787228
P 5.365030516938535 1.5470055001629197 3.163677583541334 0.49372791162046586 0.38069296067895725 0.1837559716061545
P 3.6004893748069127 -0.000813779756098604 13.21947811390662 0.7601237668160393 -0.3885286546732922 0.08182458677697521
P 8.680595138916201 1.619042135910397 5.407673872280579 -0.7642609289128645 0.3058969986139893 0.26526765512840117
P 8.072797018692887 3.4049230088475624 1.3549108908422152 -0.704630104624109 1.2114562441894297 0.5514306656485729
Ni 0.4961158752660429 4.147591930968995 11.60012583440317 0.9851477439330453 0.9090749720381828 0.5433116360858643
Ni 6.243005367790127 7.756774584399078 7.937426283838805 0.7802449630459466 0.11591998579878746 -0.714691345514853
Ni 4.901824117201545 8.200178084269231 3.704270827456398 1.729994529985356 -1.733631612517311 1.714958718698156
Ni 3.868129408584553 7.47614555178405 10.94865301566569 -0.45340401519043844 0.2952240922811754 1.3506015190647451
Ni 6.605836339590587 7.115249505683528 5.44248401884407 -0.12761027765252217 0.20622792745642549 0.18432135719132126
Ni 1.0828455246025146 -0.07845521942100571 5.338392422601531 -0.12422516323037315 0.5489904316381964 0.05265465008123835
Ni 2.0895716276505043 8.391763502616268 9.801140237407331 -1.6611468150840232 -0.32936988492494884 -0.8471057294242378
Ni 7.445288578779765 0.35134177183096726 11.512389452234851 0.7138284832939256 -0.3779966447937167 1.5846775790816903
Ni 8.416482409883427 9.054609796101953 3.8281588429533797 0.06724720318343258 2.106042021472502 1.647330478026221
Ni 1.941350764224581 6.7294679079971935 5.580694187727678 0.25233037824144283 -0.11799563738089357 0.042370751656727025
Ni 1.8571028031267736 5.0369911756661585 2.9283813604110907 0.3713043203752057 -0.10283924135542935 0.6300871391102115
Ni 7.918873216361881 5.726056175286898 11.610030987543672 -2.2266216175304883 -2.277726149515787 0.3077775034661538
Ni 7.987447353488415 4.1049217273756105 9.86203392304741 1.2038316377646363 1.296086161625684 -2.2925819835816967
Ni 2.5792652160359375 2.8185109095183054 12.869981465003873 -0.594573519584634 -0.18274090007807883 -1.903012032128084
Ni 3.8466785815665725 2.2551975643581725 6.605429912613423 1.5266601220266418 0.4798956337230638 0.2542471356481815
Ni 0.9086772149602369 2.203093440725375 3.9032395149216215 0.3117071775378632 -0.4948489125987865 -0.835027458103465
Ni 5.3741866964468565 7.725528774651264 12.927148798518472 -0.0003823230400832125 0.20456673770391867 0.792678303713293
Ni 6.814039899714609 4.938300706951583 13.54509926095496 -0.21313082522384583 0.004404299715282737 0.48540036559137695
Ni 4.136806340344934 5.418912179970319 2.1508254501792328 -0.04488991853415495 0.5128854583855231 0.674079999751394
Ni 0.20651119448790312 2.3132731094094416 13.019167939676224 -0.408277040944813 -0.41717948564076535 -0.5702120600211341
Ni 3.2123469826062987 5.086243829846415 10.70897960176544 -0.8024207278120374 -0.2843493543502006 0.7469949427435651
Ni 4.08304503154329 5.531397095062447 4.587069105531283 -0.4486577587547047 0.4495949258569934 0.4455102142646586
Ni 3.7193160320256338 2.953168777009252 2.995888048096462 -1.6054965727095705 0.3892519059925619 0.21716128653947764
Ni 1.5683267149330573 3.500799040180408 9.590044472552874 -0.7148764649424656 0.3309868517030816 -1.1958115956736373
P 2.85382098903776 3.6378084441679306 5.104301593376225 0.2936438922782491 -1.3785424684493872 -2.218473791612373
P 3.391628495425974 2.606743012578607 10.456488462355312 -0.056673027212012075 -0.5180909138458626 1.340260285039737
P 1.0330929374662927 6.678289586134702 1.622983274046588 1.5136896779089029 -0.3210755061266406 -0.2273009460766408
P 4.814585816385649 8.45070004331392 5.854364894237089 -0.48111793616593923 0.23593393916129043 1.0607163224979796
P 7.598268063305059 3.528869349856073 11.883429508332611 0.43655917571895786 0.21106417250280424 -0.7341648808584323
P 0.4199927505044369 0.27780904042267635 12.034133372106494 0.4463134268922442 -0.0668975331534977 0.6768706751226536
P 5.721630842824838 3.2176610847678524 7.852372875200831 0.30746639998363823 0.391925339059667 -0.2888510988752961
P 0.9697773543950942 0.5874054846287948 8.576961814549966 -0.31239751873666843 0.08909515229645946 -0.5443632172788303
