# total energy = -381169.72381556325 ev
CRYSTAL
PRIMVEC
9.24983828298073 0.00000000000000 0.00000000000000
0.00000000000000 9.24983828298073 0.00000000000000
0.00000000000000 0.00000000000000 13.53807331512291
PRIMCOORD
 96 1
Ni 0.29064749128053263 6.349801185535763 9.39448903085669 1.0479042583349758 0.9761229147266157 0.26557670172838777
Ni 7.618102001667872 0.9272870308091528 3.8896235665380257 0.8503262932440646 0.003985209899993136 0.8215991005127011
Ni 3.11813896058641 7.882647374500935 5.958999221058567 -2.2961205928625747 1.0409915903755425 0.0029858221012013094
Ni 5.956387066747796 4.316825494342937 1.1719045522005533 0.6594969597308964 1.1752270866540664 -0.5653357057654392
Ni 3.5114420813158453 0.1576792170305378 13.434426168257877 -0.8337804730702414 0.7922373595211324 -0.9842694550931501
Ni 3.453658342012064 0.4651586389035294 10.653610307548258 -0.9409332541993601 -0.23102518900576344 0.6613648661775706
Ni 8.764563948885396 0.7653288386222311 9.192338441675567 0.7613013320639082 -0.6517893066739936 -0.4036739949551628
Ni 5.227786560709769 7.760947253159515 7.299011257888679 0.03364057087258078 -0.700872951574522 1.9023836545154658
Ni 1.0236795948054238 8.423106171328316 12.106530494500284 0.8461204826928332 -0.07203305460785014 -1.0186587312062974
Ni 8.066894901824774 9.213292100174822 11.14118407938837 -1.1913607589911352 -1.5280693436693427 0.6961338942276398
Ni 5.57685695511446 8.624151404843232 11.882231167723049 0.3904358989983341 0.6784308205209219 -0.08714342788672733
Ni 6.790389479199556 8.57564525326503 9.161146137260612 -0.09314489688580087 -1.0191356708427157 -0.41384707883342275
Ni 7.0722597990017215 6.502303268119634 2.7608870842841373 -0.48605933933161455 -0.15891911506813275 -0.40792171448792325
Ni 4.303302230878534 7.4828046181563606 3.9397280901590794 0.16864097034158698 -0.5514674324237793 -1.0029377209266146
Ni 1.8698547943427886 1.9237906009508163 8.971776049535553 0.32032860065828705 -1.0371218230074912 -0.12485739749773334
Ni 2.3221348835052176 6.661835227743825 10.717997506350832 -1.4520176548204025 0.626656773272424 -2.0665295652001765
Ni 2.3518638635151987 5.936379666697519 3.9972787335399453 -0.20661333582030222 -0.9958111371841624 0.3426995121543195
Ni 8.377291722669497 4.6217556608049915 6.0805309953445486 0.8606574999667435 2.829281513667682 4.220287661801718
Ni 4.450550405358587 6.058348033347057 5.6870465777861785 -0.68645291949445 -0.847909970493088 0.490633074745226
Ni 3.6482101891028966 7.899287833442427 1.6704218076280395 -0.3922089317383568 -0.3438120284922079 0.20253505198587052
Ni 4.260022237889515 5.499741053949801 10.9140154527981 -1.257366633568299 -1.4775805908911714 -1.011068577563865
Ni 0.19497918961617863 6.806262201569539 2.4285542721221542 1.415814208316652 0.39601365019642765 -3.2991187347134794
Ni 6.945305769556484 2.472657500711946 8.492365259916596 1.1462414980549938 0.2370289719976821 0.4907731998675161
Ni 8.060327516695002 2.3413930466604076 10.92249015456697 0.4990632077904501 0.8064095372564564 -0.18808956598450188
P 5.3564610600622435 0.9597909622824178 7.575512971593212 1.6585528291046017 -0.5688717439431558 -0.1214771681715908
Ni 9.064175458376157 3.183711063663808 0.8188493274945874 0.0857005247926137 1.76042250745791 -2.1267059775797565
P 1.7149107544712276 1.39773380221788 0.5407575666015932 0.6688442052737513 1.1440074665181523 -0.5227011589243643
Ni 1.2539265675522981 1.433077434021906 11.082618728755765 -1.9154844535634816 -0.9822925338724373 -0.9163270256149059
P 1.697474809443594 8.650901936949289 9.571553133825908 0.292551944765651 0.38040062624951904 0.8571764833966785
P 3.0781611598387 0.45635186794288735 4.713131112555645 -0.3063579974108078 0.7215011693478348 0.2799028885430728
P 0.4130515253098057 3.8951253703058963 11.947917968794263 -0.15483337503453334 -1.267367710645069 -0.5158435125725825
Ni 2.637628365204173 3.560706719627345 3.712166345444843 0.9417994588543973 -0.9621546254719817 -2.8004519910304992
Ni 7.062094226807892 2.4287115193717406 2.1231079646879287 0.1365888270020486 -0.16529262269464437 0.6158352571768878
Ni 1.517741203166697 3.868143592244566 7.817533138414979 0.5304234672692865 1.2310359660935701 -3.9173176070265376
Ni 5.354074601803819 1.7552492989091644 4.286763520157362 -0.15263713871416293 -0.24850586228903007 0.07054258610525271
Ni 8.876015249489088 6.302358765351819 4.373623200893431 -0.4602305511939686 0.8593722054964167 3.904186468961218
Ni 7.938627395353582 4.428397042843371 9.585578663505165 0.9381580054470682 -0.034066345556089714 0.04983980634026255
Ni 1.0764406719606614 1.4083896158368903 3.9369531386957957 0.3570496102284044 0.9508273733846206 0.8455388991577503
Ni 2.580251618781673 2.519785426396717 12.332724188143123 0.35430547182436406 -0.5302632875423383 1.9981292222489069
Ni 7.262047979413917 0.1264619380524152 6.62023963029302 0.24627028809029203 0.014867146919819559 -0.4815429395184997
Ni 7.983553859544148 8.501045308093747 1.6040717931571007 -0.16278991087744868 1.5549273444024512 1.089509592580588
Ni 5.66630289061431 9.000055579897877 2.859660556635906 0.8468689308230835 0.012949875292448666 -0.19424632961451707
Ni 4.966376883030217 1.869068558094858 11.928680155283136 -0.4800948942180635 0.278987575817655 1.4485271251686407
Ni 3.8047359513085293 3.1489964208581265 0.730625295622403 -1.258606162402355 0.8922414454206118 -1.0994029404349002
Ni 5.729192540610534 4.559448750616058 4.677241740297174 1.1468313091201927 -1.4427961362221344 -1.2472141185153294
Ni 7.004217989122 2.4882342282591794 12.993273634463216 -0.15166834704299043 -0.8001720409871768 1.5560894830313523
Ni 3.815317766221852 3.318129712545279 5.711320928203165 0.5200122992382915 0.5479792167648626 0.25679972686670616
Ni 5.766016146528312 7.562815718681046 0.6186671038847514 -0.8232726315603821 -0.002609669708705183 0.836932902656294
Ni 3.4492831685382863 5.110036120284423 8.750482920176873 0.5334170026799717 -0.48469279800139103 -0.6652338622146737
Ni 1.4289982553708782 4.321524412154098 9.89497742680693 -0.3809413292443375 0.09386480577096092 3.25262059115194
Ni 2.337693111376029 4.766524878644512 12.548724560077497 0.1407154475759125 0.4417448336849554 -0.8144226373689201
Ni 0.3261724199134929 6.090315474204087 11.908346235944013 -1.3760060751807786 -0.49208343403850735 -2.568825420995312
Ni 3.508223137618436 7.235806188409463 12.409931662706068 0.9120078294142617 0.5213053070181022 1.6548933779751436
Ni 5.75154014972818 6.169864082818225 12.247678400680218 1.0786649365566003 0.7252938036210477 1.8834266537969884
Ni 4.529183279989841 2.923050622879342 8.15123307666454 -0.8658997222022895 -0.9133933969078785 -0.17069348199524154
Ni 3.4774304262141955 0.4132078475755707 8.163783257149152 -0.2999068424688254 -1.3099742324616857 0.3376640066129411
P 7.767024396864107 3.5223661402429727 4.698415544945852 -1.4349303603208126 -3.481740592715191 -4.116315078172795
Ni 6.35749705092727 2.4830913182138934 6.303678717264522 -0.3033919728039484 0.7048956995806698 -1.378798550324251
P 5.0211914242682845 6.0828416049296425 2.324419593543321 -0.5599423026640098 0.28102414663170955 0.4342009598994264
Ni 8.92550188391765 2.1734344844260454 6.12557215752893 0.2294971823970112 -0.5781336288610559 0.22937916876190817
P 5.72290265062709 5.983378094647337 9.1790843485031 0.4119087241601293 -0.22191911293943717 -0.2557905688759014
P 6.724613879681518 0.2627092799481905 0.036303765010321926 0.5019904087395742 0.4884103560622944 -0.172170066540768
P 7.393904423110957 8.023254165145529 4.439269302676517 0.1639924158259821 0.8382701334104787 -0.18504872227564903
Ni 5.808398905210867 3.746221474786083 10.396374156869483 0.26977068520507735 -0.1477204181388359 -0.5215775868428825
Ni 9.076061500477223 0.9498843855584945 12.87941922589232 -0.7387735832750374 0.8608423622840401 2.0817625800998467
Ni 2.6525021050473745 7.196697872453582 8.13711319863553 -0.09990278443492472 0.635978307783666 1.0669283648459624
Ni 7.868883615243048 7.481056398734491 13.151304345345771 0.959854002363263 -0.8823041317022418 -1.5541197608994912
Ni 1.0676440758220513 9.119609738774358 7.319372926742436 0.8600748879903963 0.5105534678182369 0.4608465875114127
Ni 1.2484136639785743 3.987346257269031 5.1810887525018074 -0.95916417538509 0.6086605938053194 2.7996958295907657
Ni 5.602867500163641 1.1624826669988837 9.883958094546228 -0.21759066076741237 -0.15600811206892487 -0.49319235083196994
Ni 4.577985426390794 7.771103575515134 9.856339927615984 -0.2192181690685063 -0.6911485251979065 -0.312628660910868
Ni 0.29356581523608616 4.60765890737151 3.1282157343334145 -0.8664838768405335 -2.5550234821152125 0.14772941699990041
Ni 7.495393647961459 6.6504856762589935 10.764893261096509 -0.42535970745871265 0.267704546704668 -0.9777468234832838
Ni 3.4941171343467428 2.9706317906364497 10.332027657355036 0.4931555840567636 0.7137459508824483 -0.6317205609485766
Ni 1.9122098035107116 8.090444989909845 3.5423448657947953 0.15225404434313133 1.2791937567457197 -0.15974366785195715
Ni 1.3506521257241635 8.701655799212752 1.2038396186238454 -0.36441042146884983 -0.5503816555587682 0.41810508277882835
Ni 4.713097813138086 3.1118490706029664 2.8308380607705974 -0.22252409351328775 1.599457308494026 -0.4789872629761815
Ni 5.617509994051568 4.709989867499209 7.193346656069756 0.8177735561190239 0.6902987756031015 0.9664044018872712
Ni 3.7134400481664898 5.557987285164129 0.7147627480744512 1.4310531367535935 0.9078405854104494 -0.31914949274852134
Ni 7.651281171330536 4.74402927211549 12.449246250054054 0.34104629282161264 -0.3508905326055441 0.10768114282876294
Ni 0.01866524852586848 1.355906033827981 1.868754988579507 -0.13724882918355075 -1.696073708868195 1.911562492801256
Ni 5.080057394642747 9.129719811938921 5.5383582034966805 0.3160513134391718 0.26643236486046373 -0.5371016506204105
Ni 1.3504301296071008 6.706992937889664 0.08552862901751469 1.2501338632652859 0.07812245533503964 2.3024406215433317
Ni 5.034834935629431 1.3616686830334006 1.1507982713708163 1.8950156441861685 -1.1307567721558331 0.02794686292191316
Ni 0.6205318712680782 6.840403354406142 6.824475133006892 -0.025673750617020298 -1.1404907116141456 -0.8506052579370641
Ni 3.0421607895216973 1.057413754760745 2.6093821342594063 0.5046430158710729 0.06032527925261869 -0.6980527085169075
Ni 1.740884300167565 4.853612105400571 1.4637498975294034 -0.09022180970173493 -0.7447349430647948 -0.0003594402219477681
Ni 6.731791754133211 6.4530848789991895 5.813154247035114 0.719673886331109 0.8938946647533186 -0.5172900152111221
P 8.5280455858315 8.240209120383275 7.927029023220877 -0.48503526894247434 -1.0717206440282832 0.0583586424445511
Ni 2.2660253649176174 1.7563685293326887 6.620523600326096 0.018842586627799807 0.4438765353159774 -1.8753978699552412
P 9.171963823048314 2.684219800272709 8.531991566812291 -1.2686362929448476 1.798074256372413 -0.4821751737858599
Ni 7.7830081172926215 6.2221164188718605 7.986068890553705 -2.018150145455524 0.12257760032462114 -0.05610301364115499
P 8.417944761606607 5.210304366491081 0.9367967894738265 -0.04773664395433069 1.5037544210730618 1.2314985075522857
P 5.406955926855799 4.018444213334232 12.547384258520731 -0.6888854401953426 -0.3438503379293111 0.4732393047488107
P 2.5329016969798395 5.687744015587283 6.47696611129221 -0.8667772397112363 -1.1793609063167818 0.17450874197627367
Ni 0.25720840116414073 8.80154480205276 5.06046438734432 -1.060621191681012 -0.5057061670282645 0.38305631870481127
