# total energy = -340886.30308670754 ev
CRYSTAL
PRIMVEC
9.11789950662564 0.00000000000000 0.00000000000000

0.00000000000000 9.11789950662564 0.00000000000000

0.00000000000000 0.00000000000000 13.34496757935627

PRIMCOORD
 96 1
Ni 6.455481975186381 2.2485104922293364 11.583752467142792 0.9622908939395298 -0.41931915769158756 -0.9009052917431968
Ni 4.926027274583255 0.9622028180178328 5.918453194126581 -0.050788029186144786 -1.6895130249315418 0.4622113290694233
Ni 3.0004089579119695 1.768361903719836 4.540598161615214 -0.9184931800282891 -0.7060313558470098 1.5391633966999752
Ni 4.5105063578427504 4.777122857588408 5.426210623699135 -0.9904478159897201 -1.086242234683226 -1.8014861102674395
Ni 3.572611859934419 3.161038993684318 2.800962200320353 1.8432536811225289 -0.1880725967036374 -1.200227465353146
Ni 5.148969035647551 5.13719782737247 2.684673421683981 0.28945145146345636 -0.7321977298297325 -0.3962149675739563
Ni 5.33525684065776 2.6483759755009686 0.42017195728358625 0.56230591780018 0.34543568013855996 -0.02512764830556317
Ni 5.627731703430628 7.973502829796516 12.327733860675732 0.6647836620511325 0.7193846372254643 -0.14233627100878712
Ni 2.293315850450675 6.642271264669967 0.4228444136317088 -0.514042969028734 -0.14843209949387984 -1.5818452518392176
Ni 0.6269112109080529 -0.1050664679121501 13.253114041498435 1.8466537079430132 2.1780848462723648 0.8923260347146181
Ni 8.191967702198484 0.011660881690938096 6.838828559904981 0.7327281484119059 0.78280295358111 0.33102207581639115
Ni 8.722720633021463 2.7977545232706444 1.2237844136507867 1.092756124542344 -1.3712600758553608 0.583908326561304
Ni 7.314214869497305 0.9628957783810445 4.618907241607881 -0.4913678960287215 -1.441477417410711 -0.06473266429169497
Ni 1.011904488279232 7.412943485455925 2.5613930376987857 0.9282489738634723 0.9135186096318332 -1.1285222263983596
Ni 8.024891311468366 3.8359003263567577 3.7673109272480843 0.27476659575777196 -0.11216206141825198 -1.528306142270497
Ni 7.390385802053484 4.024139361863378 12.995916331952746 0.7739092506359059 -0.05530597166115637 -0.5090889674575685
Ni 8.704156589607004 7.458824755820144 9.031954195104632 0.2653933820729881 0.018802220308167618 -0.2673659324183266
Ni 7.039301081192141 0.632334537540135 13.538736802785072 1.1164346991062062 0.17506564292100818 -1.3661086135614087
Ni 2.1268685947871555 6.667363724137839 9.303777927263845 -0.7259512346993885 1.0265455901535419 -1.4927362155856871
Ni 0.2882286569682942 5.117949941494317 1.2051547213598144 0.15375428303774166 0.37977610529164274 0.011775395368373269
Ni 6.748622444623914 2.552546851588419 6.795431005368904 0.41622303526476706 -0.9948163773710611 0.5371229907766493
Ni 3.7514776947386514 4.312082628576823 0.4453227713083604 0.3512821116170079 1.1786283990261315 -0.8388375758781748
Ni 6.359689322871896 6.255444377706132 4.787159841375557 -0.8467005235660193 -1.1897939287246477 -1.3490704271321992
Ni 5.358981615198241 3.303022924946565 9.221025694837058 0.7928726791122861 -0.3918649181353767 0.4344979223145549
P 0.38289616048251257 5.805813398876489 12.419400663459255 0.5603012286653254 -0.07912621400920566 -0.5518934642176043
P 4.2707603079705745 6.24931714923142 12.34121285153015 -2.0521833237808336 -0.30381697615650904 0.11215023434371008
P 2.459070145750983 8.702460660297039 1.3407287692623544 0.18317438807107164 -0.18583753672553155 -0.8170076244872768
P 6.64379395388913 8.129482736815735 5.7891932916388305 -1.394428029331392 2.1925079636762304 -1.2271235184130416
P 4.78107090807881 0.9577168114559894 12.39843587710225 0.208004559740874 -0.002893519497711146 0.9853937985055804
P 4.580194463843095 6.543661181405056 8.247403619465459 -0.08347112124146269 0.018081540092059183 -0.8086970477390524
P 4.682944073488244 1.1754157802986183 3.3995368031127615 1.631140755640236 0.8160902548793301 -0.45119749445742297
P 0.43763455843651816 5.692815270175421 3.5846055449576895 -0.3241688003399837 -0.6471065564863436 -0.14775769913467457
Ni 0.9616101545492965 9.20752846818361 4.7637532815281824 0.1703389268693002 -0.27552250008719004 0.4338502614282271
Ni 1.815474090518708 6.798916778353849 5.004750307213946 1.004866048297579 0.6473798647523883 -1.1272924677563168
Ni 6.727815397928534 6.003015329607281 9.066651449922597 -0.8583676754913023 0.5620966300028513 -0.05544018324617549
Ni 8.856589633714522 2.6674962107858984 10.253752730240846 -0.9862533182923982 0.08896299759396938 -1.1395401747754181
Ni 2.709174129473269 5.553147285390223 6.878597190433713 -0.36775259846820535 0.17222071727304533 0.6174776778763172
Ni 0.4767211700814579 0.49479649408186116 8.979988550393424 1.1180776340262681 0.1140065708261585 0.30893604255062923
Ni 1.3622506592797838 1.2960729445930772 11.299157293131602 1.4227119638777497 -1.1631066492414486 -0.5839733754712846
Ni 4.291795302153853 7.2302390149554805 1.6065337759510927 -1.3365643242453884 -0.26526919779029795 -1.2120758800512996
Ni 6.117016427255102 8.560349078441568 8.119838734497723 -1.0169965130125258 -1.8113678881575257 -1.356085939218084
Ni 5.761682765219331 2.7618026454792854 4.614236141685864 -0.7382277380738964 0.8990103887133292 -0.7800464738818954
Ni 1.2440462099551128 7.967548841412606 7.073392907482248 -0.35962971225075485 -0.82058505742589 0.8140130606353271
Ni 5.794133369596568 4.72429374779304 7.270912141116194 0.06374793178092247 1.0652293798769847 0.5789908346550287
Ni 0.9755423050096559 7.827497904847739 11.19948406278313 0.11576623382974255 -1.9759853391620161 0.055109025159001866
Ni 4.859794852499453 0.7188998755444875 10.267043892365235 -0.1316872759353732 -1.1990750969162576 0.051677373769633585
Ni 8.370076751342893 7.725769499948376 4.075980091351218 -0.6736400840004979 0.23125761673154369 1.6622894133288983
Ni 7.9023923314716855 6.657379624167883 6.390103900287223 2.4675427254937246 -1.7562830313682398 2.878987622643558
Ni 2.628754255742661 5.37190167881233 2.432053809485247 -0.5212819099793344 0.6974904082555342 0.8518995512684554
Ni 2.398746122553511 5.315771889392192 11.1965216572304 0.6696209355387758 1.123298516105575 2.3695752104083
Ni 1.4219729011092033 3.472469969550829 3.6348351416010614 -1.659263482018381 0.5618297494947099 0.011395129210819085
Ni 1.7395493412494596 1.511109486777051 2.199464398943133 0.11410941495260994 -0.6592437060695098 0.013695752319537702
Ni 1.432841437332206 3.6888650787626784 7.68387183988267 -0.569970119213657 -0.3618228632473317 0.742089792132464
Ni 3.8973823227927538 3.155094123199923 7.0969207353931845 0.3077808459002635 -0.5948735673235561 0.41957446823550315
Ni 4.418707345516248 7.079447192760833 6.013456236342986 0.10373758479998263 2.4400324358885976 1.4585719109991526
Ni 8.291216038429512 7.432182253434561 13.174898875870781 -1.785355523254164 -0.9429441139818019 0.9792848573943651
P 0.43752787901218165 5.741778390576029 8.026811541106422 1.0538823302952818 0.6959459465865498 -1.7444837247404668
P 8.955874441543614 1.9879756314608126 7.6536195610787265 -0.9726442121493959 0.8012495903220717 0.9963130165212454
P 2.0303556284109106 3.540908923317489 10.115766086126389 -0.9054700282957439 -0.6777399651014845 -0.3176978479036593
P 4.046368800883244 6.406272671498843 4.024548755551644 -1.0480839784459497 0.13269926213965533 -1.1903788546938403
P 7.13391752446907 4.19298462509959 10.30522418479829 -0.49052020331644547 -1.158826533808856 0.026037304604026125
P 6.885235933071271 7.97756029508111 10.071259795009173 -0.9083242099150873 0.29810912713845433 1.472467180924006
P 2.823494353604149 8.882210931354319 5.910326410288022 0.6265516151531274 -0.7235199995500765 -0.9338120697735466
P 6.875260951000831 4.011410774139123 1.7814597663744867 -0.18043950563841182 1.0431186640208745 -0.5687064220098851
Ni 2.899045268993243 1.6653843465867881 0.05397705334442445 -0.7285187383162486 -0.925193217756284 1.8843784761872966
Ni 1.9883403474414503 1.3751524870948415 6.998701810017507 -0.6938954918154243 0.7484761552747818 -0.2563338429738811
Ni 7.018074611119029 1.2425873460325623 9.210843736447606 1.3094468992033061 0.9166777240861052 0.054523070748544816
Ni 3.038758843276021 1.9124611876697817 9.1854750046244 -0.3327573133399431 0.23618667860204487 0.1311807686125999
Ni 6.722080239133007 1.9813013290151429 2.4013201055868616 -0.11829337112697046 -0.6230713699140108 0.7261998603750849
Ni 4.303858283213444 7.281399549139431 10.359364448544051 0.15116338238211385 -0.14734657973918494 -0.7925104106768609
Ni 7.383465316320884 5.9681940713558985 11.44595182817846 -0.3051837745970486 0.9174747660661039 0.42694607810922597
Ni 8.060761128164081 4.16094432620057 8.206647520419152 0.11387338768240389 -1.0747357767055232 -0.6771347274173177
Ni 2.997317989976065 8.519920311987883 12.259834686560417 1.0018524582822357 0.2606250141500673 0.017580174975608435
Ni 0.18319683707430465 5.128554058631357 10.142695802346722 0.1750435314338211 0.020610220051183858 0.3357212810642734
Ni -0.07984088711134525 2.294656181679519 5.548664014198234 0.7255755965275246 1.0717396701916768 0.008575143263520716
Ni 3.5985249303587263 2.713094826265124 11.629018279289685 -0.47428111574976384 0.2827933227169904 -2.0198018221263343
Ni 1.0193264584852089 3.4175893323643747 12.075074129719129 0.39940699214869274 1.9324915296444396 2.482777540165608
Ni 3.535283179316153 8.927846018431607 8.112566297843808 1.1728616717456832 -1.4047746626730386 -1.196615065411539
Ni 5.61482987561557 7.898581049474022 3.281621391202746 1.2653013150343433 1.4969962764136218 1.924396668451447
Ni 3.2744656636626353 8.638872429072862 3.6189417309548233 -0.5463535082359817 -1.114286799525268 -0.20912221828508498
Ni 3.613979770038248 4.877912118837629 9.178642050727154 0.6617407614597507 -1.0044184192371994 -0.2531785851743511
Ni 5.135948675138785 4.258004366547772 11.599352281424618 1.076896531802268 2.1070452659260357 -0.048326455019529674
Ni 8.470902484190178 -0.042488499954337657 2.0208283352067027 -0.3342040730887986 0.3957436843644926 0.3402186547139947
Ni 5.107865544629684 0.4554381690313463 1.358077396671337 -1.7866896686845553 -0.5152035649957386 0.5308623545789181
Ni 5.922704870670864 5.811001483701061 0.19418664136086944 0.8114447856875187 0.05192882765880734 1.4996082601151721
Ni 8.375374250961656 0.12126715177207568 11.04142618646423 -1.8395381799441544 0.8345829143668788 0.7135088951709777
Ni 0.420678000706721 4.937123758294156 5.607608499198943 -0.19768440876178855 -0.9604612969299586 0.7566990574052065
Ni 7.45849651143757 6.274391372900259 2.539173628368387 0.20421989588746117 -1.3666030366993238 -0.8798039909882074
P 9.159659495724915 1.493739888199182 3.4759639486453384 -1.573944251824586 0.851896723054978 -0.6081543435928624
P 1.9590810078947927 3.572611859934419 1.2055322023997743 -0.8322457815932699 -1.0003203379084256 0.3741631299802395
P 5.112743620870714 1.4345829561397507 8.12390896484164 -0.2929936602887599 0.6993022646532924 -0.5384141987842469
P 8.574591237485471 1.9450120889416944 12.49838993875581 -0.35784588087745467 -0.8910849632186654 -0.2782090457804176
P 6.475422821427746 7.785364091184571 1.3141911227212053 0.946067490102132 0.1815939309578292 -1.393338138701323
P 2.3797808915603516 3.5561266976095958 5.579824435793966 -0.08553803107282042 0.9736585123465231 0.9848530955107619
P 7.090917510351889 4.3652035111567 5.554522264637227 0.04480250102667123 0.19763118692634996 1.3330413986937946
P 2.4696377912899594 8.782151102066372 9.903273437907362 -0.5456785936561441 0.6628183107946456 1.6000237225204574
