# total energy = -381169.6477378402 ev
CRYSTAL
PRIMVEC
9.20996157621601 0.00000000000000 0.00000000000000

0.00000000000000 9.20996157621601 0.00000000000000

0.00000000000000 0.00000000000000 13.47970972397437

PRIMCOORD
 96 1
Ni 0.673411204398513 6.500086921425665 11.733871364750906 -0.8270716935914981 -2.730601545896265 2.014264951468505
Ni 6.50214995280911 2.299791864579158 2.753189981894867 1.8182759281312684 -1.2219394031089406 0.02348111384107569
Ni 0.9096448757336477 4.024080862831149 9.872485642103658 -1.2762855819599892 0.3371819247701999 -1.1972041051457898
Ni 7.625277131902345 4.191499543582269 9.114224904091772 2.1138059816886368 0.5560172565779908 0.5716526491224025
Ni 2.3718137637690444 1.3863939295207175 10.51724649816459 0.7941209496970905 -0.15990924689554398 0.2611901426249179
Ni 3.0135454634816945 7.9899916086183955 9.475265527152215 1.3119573243299856 2.606811927541414 -0.5016484520191231
Ni 2.1391332955934312 7.117172764075382 0.043611930848320976 0.6213515590094267 -1.012919514729675 0.3434351047687633
Ni 6.4903888319311696 3.4668229303013183 12.638858762937199 -0.447404603073894 -0.19499169242097386 -0.09436719932867618
Ni 8.51385422062872 3.2741136951799388 11.474805277778731 0.8702687978042626 -0.33644684637638833 0.5124465710758916
Ni 8.808628249461396 2.88801368778372 3.5094291333502103 -1.732523467054797 -0.3401600335619174 1.6100453684225176
Ni 8.68089529295698 2.5421704222492663 0.5850867522986497 -1.3568840096393469 0.06851064327688845 -0.6294600470491739
Ni 4.756392534223151 3.667010654187683 4.191327317301598 0.7684222593794057 1.076415478400791 -0.08505543500944707
Ni 2.5906884996063404 4.425202317488071 4.329358852792476 -1.2363751189182965 0.39446070388701093 1.6108958893482708
Ni 0.5223623092765624 2.5693121788877056 5.81236988377758 1.2371639333681788 -1.2894195482387858 -0.5828181788209189
Ni 0.6515458347224632 6.619825631319235 3.9731709584638937 -0.3267275622060954 -0.9481004613717605 0.98071439075204
Ni 7.450416802232373 0.45403176266919576 8.930954958545803 0.13704596914412526 0.2638250091446037 -0.8246538281786249
Ni 0.1760309157808468 1.6534183442537587 9.746301801129132 -0.3433787976095312 -0.2902747186957001 0.9309946549294095
Ni 6.081991507662994 7.857349742616765 11.219916829358032 0.2582724547574907 -1.8784168592872228 -0.045482300702515216
Ni 7.293746146590536 5.5993895233215545 11.661000307107654 0.48244436828684656 0.8649016199550782 -1.5582042153815099
Ni 4.032130369211195 3.5199091485788765 0.21990625152901822 -1.9383284480411904 0.45157930327687384 -0.06361269175463884
Ni 9.07255811711927 5.544424472891215 7.537436202782977 -0.28138178708144446 1.1446422718886737 1.9804492884706408
Ni 6.831083728968546 0.3028695850203863 4.232480188420545 -0.5221604559295459 -0.04648734492826187 0.5280721934282905
Ni 3.34013990941169 9.116526473478928 3.6124001872763745 0.3846367758180537 0.4698135668967134 0.47170101372741347
Ni 3.463571813880087 5.62130923177065 7.764083225158168 1.5001265945124873 -1.3206651365166289 1.6860893439619737
P 5.678189954199901 8.682571505956027 9.409780858658618 -1.3360444471861765 0.9679023265890362 -1.4753833261295366
Ni 1.3659017651092726 4.495916402140239 0.14908256833460531 0.6608938400784231 0.027366564938410932 -0.05934903138227844
P 2.747902542978638 2.0987199843856024 6.366871274820515 -0.18207961234499612 -0.7050929031931406 -0.6610943861250034
Ni 7.245753037040856 2.9463587940967555 6.017396521453506 -1.1760184722071099 1.1513135132612624 -2.697478795200367
P 3.2503980442318623 0.0909594220945215 1.549735360301075 -0.6895811807107867 1.7948223250940187 -1.8242604278494778
P 8.867986451543086 5.986917074755423 9.943335113190365 -3.6426497416301586 -0.5994046224246904 -0.25785079383903975
P 4.3794288086679005 5.427936879418877 0.6126715080868376 0.8163640773660068 3.479882970681162 0.6455844634148624
Ni 4.722693284973049 8.094598351712863 12.985448956351997 1.3248223532181118 -1.6304558137580691 0.7670518613944403
Ni 7.798691497611601 7.775436344740186 2.8646268324623807 0.1852677802649906 -0.09734068013470333 2.5635608301622623
Ni 8.935228380697223 7.96084208036571 8.485099799725813 -1.0074754608959682 -1.7004636104057744 0.9771953218551882
Ni 3.3092957482368908 6.948575208248007 4.253805854350747 -0.505733163611458 -0.7230266048534257 0.7434193095771648
Ni 5.708674926874903 0.22286449117349286 1.9540996424138488 -1.7482419062313181 -0.5352142037897105 0.1047148611115874
Ni 2.1827148335686926 7.257772036841726 7.325454202157152 -0.9163416809029251 3.0711194770182337 -0.0700774735433761
Ni 0.4027221459713982 0.9979269620104583 2.188700387569141 0.4488845300535302 -0.4554706679114801 1.6095578872631378
Ni 4.764884118756792 7.533094626916211 7.885913517315936 -0.4218308683698477 0.04378382995416975 -0.770212518510609
Ni 8.35725724467915 4.9844496017090805 0.044926192359113416 -0.27819413338208215 -0.5356623470707227 0.6144861993481611
Ni 5.969878645918942 4.327070177351468 1.5988824780308695 0.23686673538820496 -0.2722402297914924 -0.37664604430309323
Ni 5.537397272241359 4.2973772613683225 9.917952459204773 -0.19476826355625812 0.5224281077686357 -0.09231725877818295
Ni 8.09843890567222 5.3371266587011945 2.446567337549688 0.1613081841255996 -0.4258093934016215 1.0430728983846036
Ni 3.9262342315020753 8.988655367551512 6.312871428358859 -0.8609192382685625 0.16162957202076034 0.21374043378338672
Ni 9.094219946645435 7.561682347515367 6.178586505219701 1.8548066760674509 -0.027495634317107488 -0.3725340790172488
Ni 6.064207071942319 1.1285242165517104 6.578125688485214 -0.9132501864617949 -0.7806036319369459 1.9768916530263696
Ni 8.46096141154336 2.3991397196381485 7.714262859240294 0.758265887671694 0.22474912618906454 2.3732020085276093
Ni 1.5166780453698396 6.352331508547999 9.441647325563606 2.342788686343075 -0.679386499565972 -0.8929083895806493
Ni 8.924379046011074 4.662800905122431 5.511678454659804 -0.2121967434453507 0.5350668795785688 -1.609938667641324
Ni 4.70754289825088 0.6022154387581575 11.077410173558155 -0.2253656767271409 -1.1753178465956597 -1.5506518569555487
Ni 2.363561638235267 2.0547884678720783 3.895110087496666 0.2672111520080172 -0.2972814890308364 1.2027959974112703
Ni 7.519758602616088 6.598246691446868 4.8997667683994575 -1.2871122402618478 -0.636900048266987 -0.10781072642809175
Ni 5.567882244916362 6.1103489792238195 3.503215172303737 0.16655863389126152 0.04778240959060158 -0.17205616667072304
Ni 1.3047752504132013 0.10571285947460837 8.09234191113722 1.5875281611566079 2.1089864488128067 -0.28342375721213775
Ni 4.419676340568131 2.8115249572502155 11.240932119584565 -0.3493746101816499 1.0634098101697427 -0.2426424615297176
Ni 1.3723671581056027 3.3556494846336555 2.3834551551470518 0.6884948896251433 2.2257248167478316 -0.7858700225422078
P 0.9972546348185323 5.549545211503693 1.9664198079568553 1.0416469645713544 0.417954673243893 0.44184793492172286
Ni 4.650229307629567 1.4437719898727628 4.8316130530535295 -0.22690551041043502 0.653685495255442 -0.4985731555279091
P 6.44364827715001 1.8041946245143257 0.4892626285222742 0.7377847369992068 0.2243225801746072 2.179280409242363
Ni 4.624192746375116 6.387559611412617 9.929841598548025 -0.7093730186257331 -0.4194276582449938 0.3766100488588353
P 6.053090648371706 3.1271595489556634 8.096331666473416 -0.4034598220618277 -0.907461861914792 -1.2562474323621913
P 7.230915789010816 7.710128507508026 12.980030735981996 1.4236247055000062 0.6431216036966666 -0.5332766204473656
P 3.128384473839583 6.892504962433682 11.446444122233293 -0.5294060817483657 0.11521190398816934 0.8047185227072785
Ni 6.5766861714975695 6.638890251693028 1.1572482445815595 -1.7515336896087126 0.22382121505815644 -0.20054218992555783
Ni 5.004591787582263 5.352894112846091 12.101450139503791 -1.1324506149184883 0.350550375657306 -0.43524122823848266
Ni 1.5337625240139878 7.887751825637969 2.364192520600294 1.3939711442996314 0.9577598388383958 -0.701040844610954
Ni 7.748174858601813 9.114113463557219 1.1699147046782155 -0.3150007606874704 1.8100399133747214 -1.901468341790048
Ni 3.2180158194810127 4.135374037998743 9.662484704203635 0.8509485002090958 1.0532333838573733 -0.7494349196436255
Ni 2.9185539202279225 9.201341009238474 12.73262353931474 -2.33964834094188 1.5785861214719716 0.23494843531956955
Ni 1.7508044775061706 4.311809271090899 7.0940612866038855 -0.25439188875616187 -0.8665278427045916 -0.676833394126815
Ni 2.29529740335094 3.686544982599672 11.64249288940662 -0.5617893831750775 -0.7639253999503166 1.5832639865636153
Ni 4.231820755174765 3.726276756654041 6.549521389955297 0.2972794321483073 -2.0802142617761206 1.0926121427653117
Ni 4.330192354311234 1.473510955663574 8.73113102814 0.8796607805421237 0.09628678494889224 -0.16255156961439748
Ni 4.221542438103677 7.49153928047826 1.771597807659752 0.24069433666441128 -1.5803151883479363 0.5184624382526684
Ni 0.537135087575869 9.078139353808409 0.06013460183894202 0.8410746927388095 0.6183775639827672 -1.5744517875886241
Ni 6.927604125836835 0.7341186658448221 12.204784986910518 0.6769444657833825 0.04151226031117367 0.052534322453290164
Ni 4.75280064922519 5.776331304298038 5.841068123915136 0.559464848806959 1.6439327651985816 -0.9330173417863931
Ni 2.177676984610014 2.554861749242062 8.438985522328911 -0.7616556300795335 -1.7986949206755474 -0.4274423010193542
Ni 4.36159832313956 2.217316659049051 2.372967771949159 -2.730341864476975 -0.7258314212920726 -1.012164124620889
Ni 8.971082760946102 7.126815593800677 1.033244401501949 0.2939431686862228 -1.1797743397051166 -1.6931429083746454
Ni 6.782316982650076 6.662182244410576 9.063473411062889 1.2810575494273357 -0.8445102007829198 0.9401786354215228
Ni 6.763105002891749 5.12460679632183 6.911195658369226 -0.16455703008020045 -0.1731725396633534 0.4572010203390255
Ni 6.857120290222999 7.682259163908461 7.019046149915697 0.4282036046654109 1.0574294242165918 -1.4330501125789643
Ni 6.551662706011773 2.24388739807243 10.300695435622128 0.4553559967104867 -0.656296707626044 -0.4387160741609606
Ni 1.6845940640437542 0.26432865899226377 5.551969273379241 -0.9022985725462976 -0.2991985035478912 0.09670510343323345
Ni 1.748575666815128 2.0992357422314636 0.583002538003679 3.0122800382825217 -0.7887257468234481 -0.021497250641827493
Ni 1.4693572630120855 8.365665939558992 11.089594952666623 0.6467764268404345 2.6910543797312623 -0.3971729606118515
Ni 3.372660283585538 5.34728524627235 2.420079488180108 -1.0204986126285134 -0.5887288878783989 -0.28093338669011614
P 1.8020671234001489 6.000428088324677 5.824124557682446 -0.659040074699136 -0.5300444866633129 -2.584099830655879
Ni 8.422021694180849 8.340228025804201 10.947033958093702 -0.7646633065576056 -0.19312018642987386 -0.010495757325001277
P 6.7967582023341855 4.153259783296283 3.675108052367702 0.7459778143329604 0.8347119837455753 1.6870144268794043
Ni 4.515570460052159 1.5688893173017409 13.101752350593669 0.8947621549599364 -2.188510412481063 1.6719174233369658
P 5.4204399707308255 7.974601762896362 5.136295158503657 0.3463448222163906 -0.8414045652744024 -0.12096783263534004
P 1.006823784851562 1.6294356044212184 12.235060893458716 -1.049533823518599 0.14140244634060808 -2.2987276914681187
P 9.035119623486676 0.40765868535321137 4.237332917152406 0.3913519830547002 0.06045563418289589 -0.06635811571025992
Ni 8.241230149283474 0.5466545038166193 6.319085389405332 1.2751434979357457 -0.40019400682636236 -0.205541185802046
