# total energy = -340859.0908858202 ev
CRYSTAL
PRIMVEC
9.33644557780537 0.00000000000000 0.00000000000000

0.00000000000000 9.33644557780537 0.00000000000000

0.00000000000000 0.00000000000000 13.66483184550112

PRIMCOORD
 96 1
Ni 8.39756317670839 6.439953309320879 8.148667545157744 -1.5899822791240554 -0.7843065347098299 0.1409026238860541
Ni 2.412612200901742 7.64537244745214 1.186676223851091 0.3538053922594939 -0.7748207067065818 0.5446812627398813
Ni 1.3902807584288315 1.3056832260290192 6.344868147725095 -0.7164512656287533 2.3111057534174972 1.5069634149286628
Ni 5.989087021149669 8.931178381076437 5.272575518255398 0.604228783286211 2.864945799838511 -1.6705632233019163
Ni 4.8687789199190465 8.06400932586238 10.018002254274977 1.5282693754952907 -0.01546210019134111 2.3830472767528055
Ni 1.5218966302134196 3.8406215354731223 5.223668415952128 -0.6033998596270125 0.11237186343621293 -0.4087768633993669
Ni 7.218360777455693 7.410682217683453 0.6565313762640853 0.9426587215308991 1.132230271377566 0.20097670635981518
Ni 6.5487042261504795 4.8427862557317525 10.93317744480449 -1.4920067936188304 2.298445641451326 -0.21068930566188876
Ni 0.4758711564278236 5.577825934660393 10.119135565245953 -0.9513701332619678 1.975471375640075 2.0225732142238844
Ni 3.665507164245788 4.525001661283854 13.169317755307622 -0.3738605111381561 5.169801972801872 2.408395782819923
Ni 2.188416135840855 3.66129642733901 11.655404719615234 -1.1652478639541675 1.7313376742768116 -0.43136786132600546
Ni 8.170855607816188 7.4362360689336775 4.541957579901148 0.2660994070010772 0.3213251602436014 0.42920684911894463
Ni 6.295975983734576 5.088334771581555 6.616129234398104 -0.12941442074079648 -1.3927192741704015 1.7098201119200103
Ni 1.1933097683572236 0.23202934280985915 2.241825272149555 1.5972793270061008 0.8691542245838452 -1.4724134448679354
Ni 6.033360445566391 3.4037412426153346 4.112185122979347 -0.5056876550855033 3.1415306797519444 -0.7989816202235014
Ni 3.720200061806554 5.697463146907518 7.047623331864496 -0.4874557054585088 -1.7889005602929449 1.2006015608631129
Ni 5.4591223669602265 5.962001992842434 1.1370436797348342 -1.0047408355736245 -0.24082263471215945 -0.3991758499744932
Ni 0.5863325100674505 0.9512997653403894 8.593771379185133 -0.49953757632370743 -0.28181990306012755 0.010420424002375602
Ni 2.921803263921382 6.955651874832813 12.124545232504042 -1.0823968927952068 -1.105886748387031 -0.22913619951316666
Ni 2.3091083664260412 2.8936538808306156 0.24310049984768028 -0.5931568417427656 -1.763477749344466 0.5537991658807495
Ni 8.250140702743813 4.728760247211842 4.950167516010967 0.1360553230960818 -0.061748127742074305 0.14217454861994225
Ni 7.676593521102397 0.25510996965519367 7.369184518504836 1.0581267073939327 0.25561624808156624 -0.8502064798367487
Ni 4.5665768529598685 3.1239466447831337 11.988553368727866 1.8819870931369849 -2.491668157787019 -2.015436346068787
Ni 7.2999706473052415 2.533519169732728 7.851484751283009 -0.8083059829482208 1.4418787666141877 1.3629050190224463
P 2.462571520609434 7.516585518644834 3.7012834896406495 0.20119525012852446 1.0424386072347145 -2.389538540904104
P 1.0396692217099097 7.876888285761173 9.83406027385616 -0.7661792289814998 -0.12784913313620563 0.3293104924419232
P 0.06222274083197756 2.8761200362387553 9.510422661743386 0.5543846060705742 0.11783545765394544 -0.8136927011814309
P 8.403538501808917 5.626412796884058 11.99780391889912 -1.1650817706899486 -1.0654702922431973 -0.7716343385588001
P 5.601185721225268 3.7851817222747908 0.2516498829641694 0.8337766164154996 0.33070737278944984 -0.589726475904978
P 3.8206695515046425 4.85314037375751 10.535339365966822 -0.9313191281483638 0.030132300609006173 0.9282677429165498
P 8.48657684781531 4.135531838520564 2.5891438445513577 1.3679274119377023 -1.38694611913205 0.7568864908256643
P 6.25573590376071 2.122547513053009 5.687344307307594 -1.7033455599392602 -1.5608452525487828 1.950859747738982
Ni 2.822239409433842 8.99711235898257 10.55202359402095 -0.7967553019961439 0.5696975822785608 0.7622976345389065
Ni 5.875919965612961 7.544249406571182 3.2436622831722026 -0.3639705057179538 -0.020419187086300316 -0.3824623938745543
Ni 7.519591854086036 7.147730567478363 10.271744434668879 0.14486032298222148 -0.40393419059508495 0.15802719938148266
Ni 4.290703562224889 8.5521560407936 13.088626591692279 0.02356493180413361 0.7758519761845735 0.5282200318600645
Ni 7.746122030514316 4.935991990854513 0.47915571794401984 0.14021639645230688 0.777228544817126 0.6598854534185667
Ni 7.2041787167874105 1.581071021599581 3.8032916255521236 0.5684099738153888 -1.5719830143331572 0.6512977117495556
Ni 6.920546839867214 8.388674880621355 12.104062004788343 -0.6796909181802682 1.0399981161140217 0.6147790479982316
Ni 6.778931634984712 2.754288759306281 1.7269753895308058 -0.06381323780121914 1.410947367142654 0.8606834681086726
Ni -0.09249989984525989 2.247105032062599 3.5225475112156674 2.381918305354685 0.7799372019975407 0.2136401607600966
Ni 7.643887952622478 3.6049042967027813 12.411083544898917 -0.23362508852245573 -1.9594703722261284 0.6498607221927131
Ni 0.24574738213830458 8.55658151594618 6.796996723323791 0.8461626487846782 -0.2545929490233744 -1.1713724887946664
Ni 2.994300762992626 6.620137370438193 9.695649337058816 -0.63704197316149 -0.300173980087283 -0.7388563727968307
Ni 7.3084854855734935 2.709912633989394 10.234221260326661 0.20112917277727943 1.5146381578651011 -0.2980193956381254
Ni 6.747159711051751 7.426255408726703 6.465720031527811 0.7427845042066433 -1.8151656646370609 2.603109281878846
Ni 8.437616527772864 9.040480148188742 2.629304564738731 -1.9866723865622176 -0.43990212404926177 0.6191944034571077
Ni 1.9249603175804093 3.8979846564381866 2.792571920309723 -0.7158493703786962 0.07625737710184285 -0.9473121611425106
Ni 1.4991997312768846 -0.39615098314131697 12.85975483474023 1.44728193990763 1.7752392607557683 -0.15961074181851867
Ni 0.3696868284578088 7.053413795344725 12.569773241256177 -0.23268457898605735 0.18345849497039374 -0.3527275858142829
Ni 0.11691377110364957 6.895945306054886 1.8054108679206988 0.44092130934239543 -0.3758045222384044 -1.7593107624509698
Ni 4.467433138518459 7.923411793536062 7.807292553941873 0.1976188456311758 -0.5358325540999997 -0.852946504475731
Ni 7.556256075445054 5.899653209996618 2.6025631176247765 -1.7989625725146372 1.02206749977753 1.8618422427579937
Ni 1.335027674139891 6.673149707814435 7.808973114126397 2.8210519266690386 0.21539365311609357 1.8255665482554109
Ni 1.4178792912368927 9.658646202729253 4.501059280521678 2.63441323419845 -1.5010617047322472 -1.7784562250311693
Ni 4.865193724858731 3.3686362076497356 9.497973445354255 0.9881176251946466 -0.25883835456328974 0.011556851599663968
P 2.6255951949536698 3.6447895917488027 7.016235135840334 0.675149835776805 -0.2318757099315168 -0.5429606805043489
P 5.031737239144997 6.824372115085129 12.131282411554887 1.8576873400493557 -0.9364165972759292 -0.535151468872575
P 6.563549174447104 8.353513826982939 8.657517827917745 -0.44708450073031386 -2.800828657643628 -1.5541483001445815
P 9.29096764369195 8.471414460372722 0.5532796258160637 -0.822500529281048 2.0482613630186077 -0.43596627932996523
P 3.1472784220116 1.4943354431872362 3.0000865582501213 -0.6656367540800472 0.8160450034636914 1.19008266360966
P 3.9981833892176577 1.341012335685888 9.47952649639547 -0.6953599921760927 -0.2474743357007222 -1.9472486333489563
P 7.126648873608065 1.4362814252574236 12.017468340347136 0.29171762178981375 -1.3996082879807508 0.3465628517644677
P 3.173411132880938 1.0503314424361634 12.478587912933031 0.23266478149171543 1.4977377825653369 -0.17690886677733403
Ni 4.103218400750368 5.433008328981828 3.628859748488615 0.051225888054511774 2.353822318449417 0.3584688591734343
Ni 5.469747241904602 0.7550056675653257 7.612404524854527 2.7555867550866933 -0.6110864296379928 1.1643839732919754
Ni 5.458963647387244 0.7317840603934006 2.985355514588227 -1.4844066126740694 -0.7274512162836826 -2.9664326409311044
Ni 5.090211397120939 0.9616725562570864 11.209152502795089 0.36779476456005045 -1.012279824263147 0.921092051103717
Ni 4.089895293065285 0.6505961978790769 4.753119967086508 -1.8558765120928618 0.5283555289966643 1.2291747445151153
Ni 0.5703298425326002 5.949911295959336 3.621003129625968 0.9193694119856554 -1.4114970689985369 2.050442686940643
Ni 5.611530502805556 1.3165975307829514 0.08188249405726006 -1.4077933948947046 0.4703594120978544 -0.8360651553393601
Ni 7.079882618250968 0.5754863613654461 9.840154171814152 0.32570683425106484 -0.7662671607096158 0.43341960164871157
Ni -0.048840813540436796 2.6714464786547487 1.2082443465303543 0.7017964918300559 0.6833251724987457 -0.4018564821304499
Ni 1.9563961294764658 1.9310570164720413 10.382074144427385 -0.12432492203303104 -0.9091495340298601 -0.7016144577262369
Ni 2.172870954134014 6.487018330933004 5.392812130301669 -1.1820482233409577 -1.1543988370548055 1.6393112072661706
Ni 0.1297700565152533 3.552237407808913 7.306599523588639 0.25261062848602306 0.29112832494524693 0.18984665788492466
Ni 3.487703896723216 0.9623261074399566 7.117805392459285 -2.5435895292466584 1.052725076762387 0.26065741004989945
Ni 3.7161573809182284 3.3113944604757757 4.189801795101558 -0.5772160021427929 -2.1168882201583865 1.5892772826372308
Ni 1.1099166374229863 4.918122034225747 13.557070605749058 -2.154574936075883 -0.009788961065963787 -1.0564925142246193
Ni 3.3628569479040693 0.8350516827987206 1.0690547501808476 0.3000217707801349 -0.7753356986697874 -0.6972214708648637
Ni 1.6481907280803503 4.390183388703202 8.773013392954567 2.241435285504553 -0.9248114089368331 0.5832820058312149
Ni 5.359427802236113 5.932116030894328 8.849522762644087 -1.2158345757627835 0.5979750890670152 0.34458413077154204
Ni 7.729297755778144 1.0146568842969204 0.7029997990107032 1.6013851216443582 -2.5952545617211173 -0.9656091596794854
Ni 8.311406457915158 2.2839653187764783 5.883721499447336 1.5235287754865117 -0.7960261371396032 -1.6627187875568334
Ni -0.19247362428891393 0.30065875252305857 10.941704420451853 0.7274648431304375 -0.4926794157512935 0.5506963585857096
Ni 4.847295758893557 2.8305021636744154 7.242374115203438 -1.1655728513937538 2.7202893653369795 -1.302632447384634
Ni 4.3109916582302725 3.8763334393942444 1.9872353425070166 -0.343910244632969 -0.9772860817967814 -1.0547984143516478
Ni 4.401265749475587 7.1675238318738606 5.5185833872223045 0.5465116310804007 0.9056178667275178 -1.4516556434952934
P 0.18678492806430236 2.7131150347854587 12.745953834556138 2.176263991013542 -0.4834938925972834 -0.20908133774482057
P 8.743226397328437 0.3157735240937523 4.774150310506724 -1.2753957231558681 -0.6653822148670799 0.829506528285236
P 5.494246074816766 8.675257074309936 1.215493162792932 0.2272317834016022 -0.1120432764522006 0.9968241518297091
P 0.07450110026901464 6.3922067271894765 6.245415396938642 -1.945123359475837 -1.319912060400688 -2.9562544148465215
P 2.576989659839066 5.400396124956604 1.1993373775523806 1.3607722889501597 0.36345448531348373 1.9120440604233653
P 2.583347779203846 8.477240402345737 7.160918296704137 -2.1164318493472583 -1.2812676085556125 -0.9616064662779955
P 6.884956309737197 4.641641874535245 8.839506623944327 1.9723217742675 -1.6174997678180336 -1.19542490175818
P 6.055935970711822 5.73666688143426 4.7059905240006445 0.08819320930748037 1.0397834290000545 -2.0871485270021086
