# total energy = -340896.4567815315 ev
CRYSTAL
PRIMVEC
9.02329981014944 0.00000000000000 0.00000000000000

0.00000000000000 9.02329981014944 0.00000000000000

0.00000000000000 0.00000000000000 13.20651136128302

PRIMCOORD
 96 1
Ni 6.425238967677037 1.9588951724122152 11.238806548833434 -0.41892295069443336 -0.10588342749839183 1.778177774558802
Ni 4.648560306675564 0.3597661722865912 5.862805877846133 -0.8206328799446899 -1.047822497254447 0.7213052512869448
Ni 2.7261012179058453 1.5295575558214194 4.825857315163599 -0.21019333986207672 -0.12266373228052423 -0.34612370734452
Ni 3.291771867620584 4.326518745209317 4.87320256797989 -0.5160615421206596 0.9343360605978166 -0.4859089297966792
Ni 5.095881359298924 4.6796365503765935 2.5315823398685104 -0.3675209420733735 -0.13460573513374882 0.4848300949102038
Ni 7.239645893193921 6.144488025019126 2.6832459589529787 0.7359808510212487 -0.812377324804117 -0.15572554783149953
Ni 5.02789982037803 4.4938107191399475 11.488053543390944 -0.47197560754503876 0.06405080773332195 -0.17551969973929127
Ni 5.73968475994491 8.066369622616701 12.38012671525158 -0.1131722478503212 -0.2106651372921727 0.6044265011193138
Ni 1.8348608965950386 6.484621302112715 0.4194959037555131 0.4672869438201179 -0.20330304050014664 -1.3129867940357645
Ni 2.8021947031354575 1.5563838254274478 0.5324414467375574 0.3101094940334401 -0.5869424854019376 -0.5138593922630181
Ni 0.5907833947334195 -0.09284885019141313 4.773942663447715 -0.6508716799557307 0.44513637586500754 -0.7059660498267132
Ni 8.540904946727373 2.1725849527048364 1.432430759306354 0.7353851264187787 1.8113339495957967 -0.2599876376763845
Ni 6.827190870088789 0.7395848231959463 4.7309159618031185 -0.3073982657498641 -0.3613469520521777 0.044407579581097714
Ni 0.6394027374482536 7.467195461618012 2.3550640421329136 0.01390966810255669 -0.6433015809179566 0.8967365050774879
Ni 7.632610589239174 3.830354572041916 3.813419643418776 0.12979622956024742 0.3619899849528153 -0.011454778804160917
Ni 7.6771856890890815 3.722147163661327 12.607371296150381 0.47653931565632124 0.34985283536964906 -0.07192146873065033
Ni 7.81089294203968 8.705156068704682 6.813793977224991 0.6120755330241394 1.0103854354539115 0.6925004112401105
Ni 7.031270836344942 0.6561202045518825 0.5996442749060127 -1.0273919973142371 0.07944014570519867 -1.6432012863491958
Ni 1.9425539769004367 6.32518862210299 9.223361455718917 0.29761804643464873 1.031402918245843 -0.6867840775816236
Ni 0.12112426170754179 4.934265040794526 1.3622123444233565 -0.22506331499537371 -1.3726831814551328 0.5183595941262169
Ni 6.259832863355441 1.903952301362398 6.819683484850909 0.896006568889999 0.22480260513481928 0.9042914346066104
Ni 3.3916237006042063 4.442820053299495 0.4142244921497809 0.053461976473882115 -0.16565334846817276 0.16260479144983606
Ni 5.88700817193873 5.453745420037264 4.827706189244418 -0.018510400099361668 0.7443698464158922 0.07556189369671502
Ni 5.340457894001716 2.8435936015385717 9.181258739949754 0.07833302868394897 -0.13914913153005715 0.014664543990710228
P 0.2993741306296161 5.3389149097761415 12.341470899916152 0.1910692174381161 0.16573896620344358 0.17835254120239608
P 4.11750303409124 6.297884117620028 12.561491427183407 -0.5696176209702448 -1.0200180734476691 -0.09444073287908897
P 2.238689645316261 8.425433782197153 1.2362813710376674 1.7256118275366281 0.9117900569765007 0.967857846504346
P 6.159186980010119 7.697966347986722 5.933289577736335 -0.25459989100190994 -0.021398777390750245 -1.665763230810112
P 4.7450013324237075 1.1058775480577276 12.733348288363851 1.145052877063531 0.2873560023870083 -0.2083660568453508
P 3.9397801258637477 6.183658168429745 8.173747789767289 -0.2563857792577391 0.5060671499121091 0.3730434145534995
P 4.664937595385601 1.0312097441593473 3.78478781156984 0.3815367967364913 0.23804404352575775 -0.8368989640945651
P 0.27098322087905846 5.6463026327492205 3.6950366601190088 -0.4028371008761643 -0.28640417999670026 -0.6488538781947535
Ni 1.3663621598931892 1.130420922873872 2.5514850317184994 0.25254146581098447 -0.18234366463966015 0.29795331828688043
Ni 1.966176975160976 6.51663596896848 4.840160147303699 -0.5908130241009374 0.15668996862729787 -0.5849254549719087
Ni 5.838652309571186 5.5856841062731695 9.157064566826765 0.3485801393048126 0.041433841664754445 1.187303043981994
Ni 8.43867998595822 2.2992630552944875 10.06032392315783 1.3586629559166408 0.5628556196560629 -0.2785170639391397
Ni 2.3592770206996994 5.213851977808583 6.899992655637177 -1.020665477223681 -0.6523881166002572 1.0235232583874503
Ni 0.6784258010759666 9.040173134945052 9.060630759718272 -0.4411030863358984 -0.2905014899945255 -0.06405800682217355
Ni 1.426556591289696 0.9589601845443224 11.52256225024641 0.35623945562228326 1.118851278967499 -1.0697594065368543
Ni 4.108994062601672 6.903392634913179 1.413532360697923 -0.0106029723268269 0.5839453504468266 0.8229628136294472
Ni 5.614080430003465 7.7743215089037125 8.132172937022661 -1.474828224957015 1.2118730200118741 0.20389028046218433
Ni 5.01404003224656 2.976786526413979 4.77926460553101 1.5704830327488633 -0.9612724799773446 0.35679224280195976
Ni 0.8203623032296249 7.399728250772309 6.927462286502172 -0.20174700886693642 -0.018540996226980973 0.2647881443888214
Ni 4.951616845857558 4.494830351990766 7.183021079105233 0.4812616608326551 -0.08952169831091679 -1.0385922369054308
Ni 8.178132211025805 6.996594296117573 9.396208172861616 -0.27098655989004944 1.636041535375963 -0.1518642651038804
Ni 4.738387253842739 0.37226073519391295 10.348926038767038 -0.5581420162304775 -0.33353815737002557 -0.1149869324615568
Ni 8.03982307529718 7.076558776860467 4.875843687762495 -0.1767150055989731 0.3995448032781377 -0.212467223497918
Ni 7.233320560199024 6.368915531793811 7.23356238462736 0.8893522967982748 -1.9652427559335313 -0.6023343944769755
Ni 2.2499687697722095 5.450605311788728 2.5717829440894246 -0.08518527571909201 -1.0399747190752542 0.15596260354297012
Ni 2.4308588561469326 5.238314142928645 11.266500859857594 -0.06830804034777913 -0.2705846964659404 1.4812942922973327
Ni 1.1140165642651403 3.3624694197104703 3.8300595101461483 -0.2077561911754938 0.2869572242866929 -0.4355875558343079
Ni 3.575762174822242 2.8571736673835333 2.730710319323524 0.38640235235890874 -0.5377871067232092 0.14692260482788888
Ni 1.1160197367685167 3.244868756482967 8.365321462826685 -0.34490808976986403 0.34588999406715915 -0.8161373060671814
Ni 3.5422947567365513 2.6050987707424276 7.194867769103804 -0.27370190193868343 0.33037518626101164 -0.8996122839633862
Ni 4.106088560141821 6.769919987751264 6.015565827827721 0.3611237802977781 0.8075048272031642 -0.01030215325695645
Ni 0.9141053624079057 7.177782151377933 11.33233575581203 -0.5364946131640309 0.7990924347697528 0.10298013780866781
P 0.22761995016069636 5.619629759235792 8.057833581228438 0.0957936473625576 -0.8208143998278766 -1.3736643144214795
P 8.504847841666598 1.5495983041547492 7.763210217819668 -0.7385336993500893 0.10929013918709565 2.0833726048994445
P 1.8740851798030458 3.337772648801725 10.420690144865478 -0.34633376647279707 -0.9802289664751893 -0.720355999999798
P 3.9028838539434485 6.2267895403492926 3.7382880419227678 0.7461642193121536 -0.14590650485854872 -0.02036647947149396
P 6.883821098157216 4.0060833310655966 10.44920286916016 0.02764090164572014 -0.10541394406114103 -0.6572960954248358
P 6.367688363053005 7.876185537690276 10.289047422855296 0.43769534620593004 -0.8303117977953507 -0.20961869830552932
P 2.411711414470514 8.443272845436681 5.752320086325443 0.793222606252537 0.4879051342911016 0.36165008511489327
P 6.993499304366861 3.94046589663067 1.5708878771478414 0.1099110606005462 0.2635786974617525 0.5625584001306182
Ni 5.396104582417584 3.057707476910737 0.30264958837162353 -0.2679719414334417 -0.8754014910451375 0.27314808631774246
Ni 1.4703376407779065 1.0559245616672222 7.0072562268832925 -0.008441703009449977 0.5169688844262774 -0.5865406219778285
Ni 6.816001978628488 0.7270794323291468 9.168633339198742 0.4111674751187306 -0.04853959947160027 -1.4175430180823008
Ni 2.8174260328007703 1.543092505168558 9.269161017319766 -0.8141056203491334 -0.372448718392294 -0.27322779051574236
Ni 6.30738565206172 2.0857537409931615 2.6694718921673743 -0.15346657659399376 0.12362789596600644 -0.3540486186185515
Ni 4.164667820916235 6.911071462842788 10.528785664331464 0.22409709442736245 0.21994707681473089 -1.175666745294646
Ni 8.168847235773669 6.86105531335533 0.2715336421525088 0.45288490946217486 0.888265234381683 0.06840368538537896
Ni 7.4987950566937975 3.986638120503541 8.215757565550938 0.610261362633536 -0.4517677651385962 -0.7281346155039524
Ni 3.293612620731795 8.54070643413695 12.23163298130421 -0.6836748425286806 -0.7923954823655515 1.450872742582682
Ni -0.04186540299061211 4.990606523276881 10.124032027404855 0.3421089297581721 -1.8660046016657992 1.0582488347940937
Ni 8.584234831237346 2.3237613136128084 5.743089250870694 0.27476453887524294 0.7101692892747834 0.11383096448024267
Ni 3.6757132641010775 2.3947205413900727 11.266870815139749 0.30656882787003326 0.7588420718901383 1.1879545615230638
Ni 1.2993370907261594 3.2432987023586985 12.558151001684534 -0.8079216030256084 0.4833193146926321 0.19788161237425922
Ni 3.019701339143972 8.406430713313771 7.973563181933242 0.6676208743896115 -0.5242687605218003 0.12637640524542107
Ni 5.613647311624358 7.782099593128534 3.5533302521042516 -0.46703009061430534 -0.00800024459665719 0.6011781693853454
Ni 3.057590174016395 8.47180451866045 3.3673961412728284 -0.005407544168816493 -0.6025102579332074 0.3410992575467351
Ni 3.5080784047869855 4.313055982258696 9.215978592015032 -0.3847679020792793 -0.2875848305683628 0.2612798741252468
Ni 7.055335976284154 6.029071000286295 11.521320644226298 0.245644481580835 -0.0688957945304491 -1.0255865686743821
Ni 0.5105879175216677 8.881435249001813 0.1700756618463591 -0.9532704356084745 0.0974329827381935 0.3115624244298828
Ni 4.813515246018922 0.26389541907094033 1.7072985106480412 -0.25251781166190057 0.23552436242769764 -0.8793327077787436
Ni 5.948944100151235 5.547903550995524 0.4553184030276062 0.346863413724022 0.6607534578458168 -0.4575530043618055
Ni 8.245310676285436 8.916779513396973 11.06461265306572 -0.9079040916585331 -0.23926583174800084 0.7198307236239474
Ni -0.09482044114631297 4.946987893180837 5.795334155350648 0.03043234834792823 -0.6793962697579847 0.7153742305144906
Ni 7.853952127562709 8.820058765362322 2.6669760475077617 -0.08079897372593826 0.14469911481400885 0.5691316824727618
P 8.486313984360583 1.7029222103591333 3.6081774761786822 -0.07920874642068293 -0.48629588082245284 0.19907614690299263
P 1.8548204352322855 3.2414759958466175 1.5652095147317386 -0.9640564704803848 0.5388451156740783 0.11421662995443554
P 4.6853482990010855 0.9998357315726805 8.099579876664796 0.3650891927034293 -0.47878286027485933 0.5858309975053136
P 8.498360089279535 1.666801942201403 12.376904494977003 0.049715107836940185 -0.5124614834742272 -0.15823674428912746
P 6.480542770709444 7.669858769842499 1.3302788872636746 -1.0166054482216942 0.086063050338355 0.5536325583958982
P 1.7315080233802898 3.1476968434700776 5.986128215327651 -0.006987229951110547 0.48625088651713033 0.4435386923605845
P 6.717097592099165 3.854067803298103 6.033976065929698 0.8631278158841071 0.47701137019673334 -0.5453728894902672
P 2.413597284079548 8.467924499847603 10.239932700994357 0.1769230078447211 0.016963624437532077 -0.6760908595338356
