# total energy = -340895.7760916213 ev
CRYSTAL
PRIMVEC
9.02165927874604 0.00000000000000 0.00000000000000

0.00000000000000 9.02165927874604 0.00000000000000

0.00000000000000 0.00000000000000 13.20411027774584

PRIMCOORD
 96 1
Ni 6.5280184059581945 2.016232552385433 11.605211483943947 -0.28292804852264175 -0.19589286407900455 -0.9079809676430557
Ni 4.60619751621556 0.4253838576144872 5.87613226376259 -0.1184941742838669 -0.5433301480286256 0.19848016519020656
Ni 2.7403018913293695 1.6934646542133 4.604312891626351 -0.6312901582793773 -0.6162911137673838 1.4805044494061859
Ni 3.313700501386793 4.35316704300557 4.784588194900092 0.35079823000205396 -0.3745688500590904 -0.3631161281374585
Ni 5.038010208115691 4.546392937939487 2.6174900457912518 -0.35726018357731376 -0.5879909812711099 -0.3981031857356047
Ni 7.244256944789953 6.110901996757073 2.772876395897392 0.01661421151791332 -0.10231062254546897 -0.2667437254532955
Ni 5.283769224078657 4.391770722360422 11.63670338941812 -0.1940676379448077 0.2256479838542501 -0.538056558334512
Ni 5.679783972608829 7.990285002020805 12.44416082573173 0.2714786690351196 -0.0901567607917544 0.22951620856040475
Ni 2.10932705279738 6.533413358109212 0.41193887903478715 -1.5559095058100623 -0.10346016276887988 -0.8601126832068671
Ni 2.546760238326413 1.5550994683602102 0.25776503991375876 0.2170777256867358 -0.2250669145397995 1.2350414877085374
Ni 0.5138421274070237 8.983759125469206 4.81658170462108 0.7128080124492111 0.9327666592281678 -0.7244252849731654
Ni 8.626339034634771 2.446258955780712 1.222232724974284 0.14589519200463907 -0.22043970018043324 1.3021218262968024
Ni 6.887369131843329 0.6656703351580447 4.924856048660622 0.06607220903872492 -0.4967499862762413 -1.8235950263513367
Ni 0.9118190867947976 7.286794067519126 2.4361321434236607 -0.8993636582876897 0.23456971182391217 0.2222875520224494
Ni 7.511072513128294 3.863381169629795 3.8317801020803257 0.6554024779465486 -0.6009583400650554 -0.2751576605486036
Ni 7.743569690191604 3.9506927865487627 12.697362710464914 -0.5166804066515811 0.6335455299724573 -0.6533656500221781
Ni 8.04487506132817 8.77011721595711 6.951871288020796 -0.7217971033216989 -0.4286314362314489 0.2632467680436305
Ni 6.914831062190645 0.7102210922017775 0.6335820980163436 0.06632057760410513 -0.05344809251681117 -0.850087180650065
Ni 2.0942067521199483 6.405026127237768 9.031505354171617 -1.4335550772398407 0.1713588834933823 0.05364992411497212
Ni 9.170426274226218 4.911824262068408 1.5207702510942405 -0.23587171846478733 -0.40239769934590053 -0.2550794017414897
Ni 6.292913969410531 1.7983775280664387 6.8247687414073885 0.8394582401813092 1.448567748598589 1.9674104530088115
Ni 3.4112607230608694 4.402028348774647 0.43210679798729296 0.23124656098795013 -0.32068675532865415 0.008891131842042752
Ni 5.774421176729512 5.367201527577997 4.727519885833723 0.08597563283087128 1.2719764130616737 0.520627050004155
Ni 5.139350504959125 2.823346263486747 9.588032559517309 0.9625549462341939 -0.6569451398433201 -0.09287133150944005
P 0.3671571675176998 5.637932495972428 12.337550977798982 -0.2562243139792103 -0.4731529156825916 0.6765330892775768
P 4.105351088764288 6.25739569747315 12.493913471421411 -0.7904087909528258 -0.6017404696467185 -0.5749212925713454
P 2.3831704935866282 8.525991120294032 1.3195610900090946 0.515816515989389 0.2811668428571609 -0.30519560167159054
P 6.368804165889386 7.753448406922982 5.801621478962482 -0.7326070494530093 -0.46420213424720697 -0.18996055775496962
P 4.7332224765605755 1.2054470260241466 12.704241725540417 0.16005888509953078 -0.6953975302822475 -1.1877807549493609
P 4.110132568095458 6.1125619820343084 7.987470244376796 -0.8103420395416432 -0.34379094544628536 -0.04030795559042735
P 4.583778693313759 0.9654979585315053 3.664154067052305 1.256442579092133 -0.028758303079614987 0.776342799778063
P 0.2124582678361544 5.630372345633711 3.70933814456594 -0.12898864605728752 -0.8201189164227487 -0.584702026107193
Ni 1.4889887503624633 1.1505321869886271 2.564106182307618 -0.9672706065423085 0.3066652442385815 -0.053791591899158976
Ni 1.9655488714750426 6.4359704180036355 4.7044000800186545 -0.4701310981371323 0.7721423885434702 0.3829041093976632
Ni 5.929647843469309 5.3030485096082955 9.154409220632713 -0.586407438834074 0.666356148744575 0.33145504958875177
Ni 8.63653350943519 2.4897613960352336 10.046241723823224 0.06551068010830008 -0.5956580108980645 0.74453336857695
Ni 2.358676689088282 5.091499625010974 6.932910467057933 -0.23790726083757738 0.6789776941633274 0.015472384603986257
Ni 0.5333668020646006 8.999095945965408 9.202868160405243 -0.12203895421233175 -0.28078426270676154 0.0366688161759433
Ni 1.3622705264273716 1.1191819215625667 11.36525249262628 -0.1644171620682265 -0.15444796667065658 0.01782468688624672
Ni 4.189929142971286 6.942202775946808 1.4291995089068863 -0.39718350213481274 1.055849995544614 1.0789670411780514
Ni 5.67130361304034 7.635300759147532 8.067486947735041 -0.8156202572214469 0.8337208234768997 -0.41678559263645637
Ni 5.221149888158576 2.8211991086172783 4.774236743231067 -0.043931668385943694 -0.0674822020123741 0.028548758171970192
Ni 1.052944900337204 7.5194085261509365 6.951105349161899 0.02288667479018639 -0.5795323089807954 -0.4098369292327651
Ni 4.754017400821603 4.271656352897812 6.8516126881053 1.9049969237685966 2.048192200343569 0.2653435026716591
Ni 7.921152028219395 7.202820464472861 9.130417922547096 0.3120781877240367 -0.21308377403599432 -0.1866744308045301
Ni 4.546095223188678 0.49484251330996387 10.50897976100508 0.2854860390578051 -0.31382808053560796 -0.2829979825286288
Ni 8.345675219554272 7.05320526970285 5.060805234202604 -0.9788130599642693 0.005275646576642527 -0.20252888133828345
Ni 7.004289833979081 5.900210169775716 6.919507890276075 -0.1562809061143373 0.4874564767894573 -0.04927673474794094
Ni 2.3362578661864806 5.138105516001198 2.632833181448835 0.39131393072791315 0.14269365434820586 -0.6641889658899272
Ni 2.403342923368692 5.3186198932414985 11.454815915660454 -0.26979125403036763 -0.7075405934026847 -0.8169348622678124
Ni 1.022559952436493 3.4436755442625486 3.7565033784213195 -0.30579595425975076 -0.13372821762480194 -0.023289052434927633
Ni 3.6329138658674527 2.567455924337171 2.6083529094391618 0.03613068428428616 1.2947275907152604 -1.1376252171408925
Ni 1.2038411707016028 3.2230508705951224 8.105607066161307 -0.5862480304380742 0.37806477902749086 -0.014580726027652308
Ni 3.561435260696035 2.5250811914720757 7.094105863468488 -1.1419022472496916 -1.3623751146609053 -0.5157036445606087
Ni 4.059647363685606 6.965956804397691 5.748448722302149 0.8447320869857387 0.14666600873239258 0.6258327347092318
Ni 0.7525840969100226 7.525317712871531 11.3227225872244 0.8344510167747048 -0.5837468612827754 0.039770080809086346
P 0.04884867544631554 5.8696718536700425 7.840666198587149 0.7112193278058526 -0.8102913888093658 0.5718575660443571
P 8.488713624829145 1.571410628040877 8.022764779168115 -0.4481751626913314 0.7369067052696278 -0.09989301424291183
P 1.759025051005007 3.0231669912340307 10.269826403846418 0.7172778752951067 1.667285323881593 0.637755711399063
P 4.01168822382807 6.203915302236981 3.554520158984071 -0.4803828577721275 0.12336050123723272 1.0514564944626086
P 7.074027258941225 3.928959609739732 10.402897680130584 -0.7768061125677266 0.7643951404978836 0.04651948371777795
P 6.115800757656742 7.730704804293025 10.300526207650258 -0.17746036840542986 -0.25169428731934074 -0.7315611246869982
P 2.5412299612886655 8.702788573978783 5.684448170371497 -0.5601788441548482 -0.9351248750476991 -0.017546750634511714
P 6.862730980799135 4.078295133077165 1.5977764268056716 1.524917428303922 -0.3280434528040415 0.2251749008725735
Ni 5.341444690803493 2.9027368637023816 0.5274278438689243 -0.06718164005281979 0.7015743485169207 0.31111402403855454
Ni 1.3605383678772123 0.9418341466717769 7.078406372275846 -0.06488821603295276 0.9908255110441129 -1.0596526571201559
Ni 6.869524290113041 0.5259221289625619 9.175773411583924 -0.7374070419448139 1.0507913500747839 -0.33641265070434323
Ni 2.6543976532324067 1.4654061334347734 9.072768618633694 0.6746854945458768 -0.225559795015818 1.1000657708298796
Ni 6.305102230875454 1.9383395475829568 2.6681944765176078 0.9599244505898823 0.3303654160689988 0.15919268044449358
Ni 3.9974340024257176 6.828087809795949 10.288906310709606 1.464819434570761 0.7753508681784388 0.3910858738775071
Ni 8.125817386911654 6.9309257020525425 0.5331394562548923 0.5061573956330703 0.2872004506457505 -0.4856528479218151
Ni 7.796283244402963 3.997244547584294 8.141403205199444 0.06627686885036328 -1.0788089183336325 -0.20629529035925118
Ni 3.3932625131256207 8.486115387003906 12.462184296312502 -1.6694910732836603 -0.5991290001658004 -0.2659816504762903
Ni 0.14834945599611765 5.193263939832834 10.053437399133678 0.016085335597636814 -0.9897808718296824 0.09576613655873185
Ni 8.5425368431117 2.3025168610948357 5.804500290386211 0.5587446828114829 0.8360944659153988 0.8240336780961227
Ni 3.509046486212832 2.718532627883878 11.653392556615723 0.040713161448646014 0.7182209559346663 -1.1545011669606244
Ni 1.1118563343608514 3.4178735991924674 12.57420804188041 0.038778149209462244 0.1467284865392118 -0.5915943823516521
Ni 3.0053672577993207 8.386272685573632 7.963689150948568 1.9496112200438616 -0.16495683662178043 -0.03863031077768831
Ni 5.545505598335021 7.875556563050097 3.3935223369081444 -0.26437136856637694 0.38381813657150027 1.6846019607831697
Ni 3.0008925148780756 8.337348228190745 3.3760004705741893 0.6467563722357764 -0.14816419054447386 0.9820156260619668
Ni 3.466816099893583 4.292279865635647 9.196728921377204 -0.8746476435982485 0.1438722480373393 0.18247427668025348
Ni 7.277402520379981 6.239217054355593 11.391238479542315 0.13426892061962037 -1.2115760575967456 0.32301617479277916
Ni 0.5310978547970743 -0.05607231790002677 0.38925030852543485 -0.8687258787971749 -0.0363289163380213 -0.3278454778606224
Ni 4.592403399428093 0.46244753975833863 1.5450655790920478 -0.31878491032025097 -0.8342844092898534 -0.3967667263123683
Ni 5.803362659171757 5.652637800330551 0.4297999597514819 1.8815525767027275 -0.3701421817463044 -0.11299689861472154
Ni 7.810925397147279 8.702355534341242 11.209417766062103 0.36055890893324355 1.2337381955160815 1.193599418513667
Ni 0.013075992721879684 4.83771133243529 5.851216245617643 0.3342356976576824 -0.7240550461179401 0.10357611952145387
Ni 7.856953901954116 8.707344511832066 2.708651204654766 0.7499344849878632 0.4959583436128814 0.24055009777706313
P 8.616505426198971 1.7240029703189734 3.73002931974714 -1.1066344251863327 -1.2766362804311884 -1.469410139265237
P 1.8017516285756032 3.2307102591841077 1.5232656420055637 -0.2909848573888472 0.12483888555497209 0.04414352728643365
P 4.7937127009294205 1.074172864235771 8.268915335136692 -0.13890204851625754 -0.5709661645783393 -0.10337531636455745
P 8.463714607420336 1.535811161171457 12.401141946405795 0.5451607734794611 0.20647578180117343 0.186432232886737
P 6.331256020651036 7.735044222327539 1.4007181310795274 0.2921271985234065 -0.07367856063107311 -0.03670455450988517
P 1.7268899012359056 3.212838352476475 5.891542159697627 0.0672250916962455 0.010770351142626611 0.4770982734835848
P 6.826734560928637 3.88042308369881 6.006153317099835 -0.14436975649904812 -0.31786471249882675 0.14033543852867442
P 2.4150349935822675 8.502182961888458 10.268466839817725 0.40628289333291967 -0.3591805405284782 -0.3732406181659701
