# total energy = -340892.76208459336 ev
CRYSTAL
PRIMVEC
9.02375644733177 0.00000000000000 0.00000000000000
0.00000000000000 9.02375644733177 0.00000000000000
0.00000000000000 0.00000000000000 13.20717969595280
PRIMCOORD
 96 1
Ni 6.229920097527608 2.134840252368704 11.235862409903621 0.6458659992110232 -0.5419360958945764 1.9913394530205835
Ni 4.482307273131032 0.27610799119939283 5.8979830288179445 1.1513065712827268 0.2634293163680818 0.5176461129989601
Ni 2.8116039232079464 1.6577542597119561 4.764939440095335 -0.42804419626941115 -1.0389431924869463 0.6961598623695687
Ni 3.5366627374687685 4.272676391810644 4.926594618965206 -0.5450257905634935 0.9879170791480664 0.431095067280593
Ni 5.189029814702645 4.561644138034345 2.768489318246443 0.3294557597705358 -0.9536316756026351 -0.552870226308577
Ni 7.248007348322242 5.978382892206882 2.647999612989223 0.17271076953558645 0.19272963585967454 -1.2205792895366205
Ni 4.953843655697295 4.705708406480817 11.344425416532234 1.11219932086862 -0.7320977139167586 -0.519741304965092
Ni 5.719906418333988 7.836058471519938 12.2725602555773 -0.7199343390813472 0.5089380437020009 0.28195745707925635
Ni 1.9548253390433874 6.609360023860568 0.5774797927570435 -0.720557831597959 -1.0214378366133312 -0.9386938233458801
Ni 2.7127125785223916 1.5203044045928413 13.67286494487701 0.8182348120261587 -0.8342880088342792 0.24354928961470312
Ni 0.7647633417374573 9.117693547196982 4.639206932459951 3.393856172897381e-05 -0.14536194520898837 0.4958549852657977
Ni 8.356088520145166 2.298783855822227 1.2604112009895316 1.2876629705589953 0.7939286311806262 -0.1540101078022896
Ni 6.729439148208655 0.8453869942812624 4.852462656663831 -0.04273353431278447 -0.8172673059065667 -0.8528788844625892
Ni 0.9746017694514729 7.43914855309726 2.7070357334688566 0.0573217165396045 0.4684351984919481 -0.054991268634214975
Ni 7.4347269125373625 4.016555118317615 3.9715834243209542 0.7586196714666871 -1.114522569685158 -0.581245177906844
Ni 7.76302018847542 3.950582436412688 12.674322247732752 0.5807826364481289 -0.3036902207706576 -1.4682765398814261
Ni 8.054992845528602 9.122927325818901 6.799200905360728 -0.29720461304631396 -1.485115980036268 -0.5896452290450813
Ni 6.925146373643487 0.7006188728477045 0.3485507063317622 -0.4256898371046217 -1.0549989603982284 -0.5135991966230962
Ni 2.119707413146359 6.313326676497276 9.33118930331697 -1.737567714346924 0.28559145428741783 -0.35432269821554463
Ni 0.29405894949695416 4.864607730193558 1.4194810736952983 -0.25495933122385767 -0.8820020270807908 0.4465893062614502
Ni 6.148408507369326 1.9646070908126312 6.98580586787154 1.2421834980699575 -0.453447209723548 1.2486855608545335
Ni 3.6342005187176203 4.366054221430693 0.5754656903632288 -0.5177461289119342 -0.6104979041243743 -0.45435506624979816
Ni 5.847366975290231 5.593808448570693 4.991217346935927 1.997768753585695 -0.1712645240073631 -0.9553527720587999
Ni 5.27310415163442 2.905387821859007 9.363480815038592 -1.0029534046558986 -0.042133181724624214 -1.599719303906161
P 0.603092822481971 5.462909840485224 12.497121843980151 -0.24358914171370308 -1.1418019742264014 -1.1621645970431533
P 4.091244748754912 6.239367970315799 12.579362553643007 -0.689352095419116 0.09605024345805394 0.1654324907066183
P 2.4696847753404065 8.483440792026473 1.5091979654068775 0.4823659496404273 1.2232367817641254 -0.010237361457292047
P 6.392149187294641 7.781852767758087 5.898062437872897 -0.09501203200152669 0.19075142908738116 -1.47938576242071
P 4.641955568612083 1.019567146818762 12.49425589899684 -0.34864673087668985 -1.3127340545950101 -0.7211900658653193
P 4.047876576242933 6.382331340500419 8.116220836400071 -1.3336710618579934 -1.4794747225900908 -0.25543961329438586
P 4.806350359877841 0.9825516987030445 3.7065683366731585 -0.3153913112576697 0.13281341912001643 0.1065891953161648
P 0.27254992411211165 5.6105294688921035 3.5056742561488794 -0.3272201855717978 -0.699415393192389 0.8596234022752745
Ni 1.1075126751795084 1.186551756126746 2.465423757641664 1.025338200109002 -0.6375443667192053 0.24132631382145533
Ni 1.9354332868735493 6.4520398574906475 4.800439799537569 -0.18026158529965086 0.146158987188987 -0.3418356214921274
Ni 5.763021925671116 5.575995553743676 9.149537480608867 0.6111031418085411 1.0455915510413993 0.2059384212404647
Ni 8.3635060477783 2.3032596389195934 10.106120613590942 0.9857455254180443 -0.19942273160913396 0.5004472326221704
Ni 2.290888069108124 5.429341467254978 6.927865231400012 -0.147090754974637 -1.0863517636778968 0.8348217698505623
Ni 0.3787171234577601 9.218218191762825 9.097990175436701 0.3763310841658357 -0.5772717950813929 0.2863152198273198
Ni 1.5254569694085593 0.9804491634980319 11.375449090501478 -0.7339584212745811 1.5423713621143114 0.4771363258103718
Ni 3.9944559392743693 6.57076541840203 1.5710206218148715 1.7747468945003821 1.7458806050879934 0.5502824109767426
Ni 5.6116393909102005 8.022011016454261 7.913372210273192 -0.9953879336038147 -0.6517803078129292 -0.47676377296230144
Ni 5.239995989972653 2.84537984283182 5.081475664022188 0.5531787586879312 -0.5240121644263039 -1.8643156439991506
Ni 0.7496521595300997 7.427823739010174 6.986716364876629 0.08094244128233802 -0.2771505226089162 -0.06166276711711961
Ni 5.285033557389899 4.494723961723725 7.039399760960001 -1.637896843417147 0.8266867994482537 1.01618867239925
Ni 8.03921029585664 7.2100985483382996 8.975334768680755 0.11003370222133954 0.15782253956984432 0.608871424264545
Ni 4.533219305863571 0.48825379338517566 10.308031671443999 0.1508409660456886 -0.5893343826728819 1.1384906504649812
Ni 8.138336258204557 7.330430337861237 4.626818217511616 -0.0672834557380067 -0.3010530402581267 0.4753057003595363
Ni 7.394435840904822 6.187779155864908 6.941165345729059 -0.02410666324021655 -1.1107695304006289 -0.0659210281728413
Ni 2.6014045452441428 4.961730418655154 2.742694911020997 -1.601053192226236 0.40092291457258694 -0.5566011541059188
Ni 2.544798522321204 5.106227827401371 11.47734263888964 -1.3970711233811939 0.36207843090156355 0.10599321360337877
Ni 1.1769955982636195 3.3618094127154152 3.8815633343995537 -0.935574303880292 -0.020923637526544612 -0.6013177802870031
Ni 3.6386672780587412 2.7188397090125354 2.881344023345031 0.25603199546274613 -0.18930724044168687 -1.3885805694116793
Ni 1.0377319681393224 3.2954126142669877 8.20152601368362 0.007722308344922184 0.6797672799441582 -0.06221478296584768
Ni 3.760758700049394 2.6983738298495794 7.021650032426696 -1.148385798091506 -0.3436495347724146 0.6528573429271918
Ni 4.1886381499038485 6.847487927401686 5.83526160628798 -0.6691743349196604 0.770944511580627 1.3656622700526093
Ni 0.36284072672085294 7.223228113674323 11.19214682277622 0.8014984731080842 -0.06928660221096454 -0.004615644395140438
P 0.18765623011331933 5.4510706722921904 8.16687027782589 0.8101918871170242 0.8801096951540843 -0.7057300225565071
P 8.381815249198777 1.8044534649818773 7.912817249264144 0.2925326614919413 0.49002012375157544 0.5566664601262155
P 1.7726537479755906 3.0741140161222162 10.446324345396368 -0.7659763689420744 0.510071900196128 -0.969049552819602
P 4.11906498925729 6.0875162002301595 3.739718909989275 -0.49543075324418545 0.9885156319640137 0.68518510852562
P 6.931481050527259 4.0712481049166795 10.365324402217158 -1.7383537005833287 0.12998494853228582 1.8333677894673843
P 6.200394367094984 7.910107415263863 10.014753276862212 0.5138061704275797 -1.7656410755443723 1.4450594783350146
P 2.555130723221374 8.438385177096736 5.840029759087674 -2.4368242133639453 -0.01883127377389015 -0.09156778220666811
P 6.796503704619189 3.880964156984906 1.3908216238621638 0.7457554139095092 1.822882059444712 0.3103270093608849
Ni 5.2642879417833575 2.5359371936889183 0.4708884768678947 -0.8200443544310715 1.924100477367267 -0.2594520768878886
Ni 1.4182186501966663 1.1110951064086503 7.015878437932593 0.383665670154036 0.3632554819288002 -0.8538196511093038
Ni 6.815634067857932 0.6875975925866172 9.04892530560745 -0.13246117798692025 0.9834801264226354 0.11875642680631805
Ni 2.644601266387473 1.4475278104794185 9.224316446232987 -0.35700127348897226 1.5367406461910953 -0.11452053434809953
Ni 6.293763172958789 2.2017874999480567 2.458292283081486 0.0844478833324352 -1.672997543775022 2.719487438260974
Ni 4.171673488163831 7.004059122003298 10.45036518344274 -0.1847553594049463 0.19207040500912081 -0.2624726088817673
Ni 8.332365064977877 6.840909609099308 0.21178124243349739 -0.5341163427398413 1.0128732348727718 0.9425520207497058
Ni 7.351780545136174 3.870352219641151 8.295032883017969 1.4925145864931844 -0.11281563584185085 -0.9468748164947756
Ni 3.0312782452286737 8.283510448669125 12.386353431325336 1.016960774678584 0.2776516306150508 0.15353599637934848
Ni -0.08815307475437427 4.63461925478515 10.315176681638544 2.5869362716634092 0.848745579020506 0.130579130472859
Ni 8.635382799674558 2.336918249712286 5.694368285785892 0.2601143930622359 0.08010708986523624 -0.20105409656496986
Ni 3.528866212073357 2.8479786846302906 11.563585384447014 0.886981225462937 -1.3333370755573424 0.4207939424649011
Ni 1.253805811418419 3.2295211461682634 12.780733088497005 -0.8944075998339951 0.5451157791741386 -1.211434646922875
Ni 2.787438303984667 8.419534550301579 8.175838086781862 0.9288732377110326 -0.962269296672975 -0.4905546560988068
Ni 5.678929541226852 7.7298127654949615 3.484648001723128 0.5230634273597895 0.3930633093188521 0.17270742710147677
Ni 3.3014856022196644 8.196512414714071 3.652471820361868 -0.31585462404733344 0.8619849605289155 -0.3204455858521255
Ni 3.3693622966922203 4.352960751119649 9.269379280167717 0.3627021805284915 -0.7244759357054426 -0.5831436804811377
Ni 7.312987417040253 6.153597167210022 11.252146680422788 -1.473596666542759 -0.20798321958463534 -0.1946782749456131
Ni 0.6628977669936523 -0.12422914984501947 0.20743359667480588 -0.5751920297342288 0.11541245003474962 0.22292261450328704
Ni 4.850070458883363 0.2523249792408885 1.586486437642645 -0.8018054628255417 -0.7531558201386384 -0.22525871883563142
Ni 5.981649491967459 5.487824431476812 0.21093030221962314 0.34210481599311404 1.0973275459631102 0.7619343376622169
Ni 7.704771841915948 8.952549784162914 11.251698199737426 0.6123467844076551 -0.493886034464885 -0.3797105421610299
Ni 0.0854964809159376 4.880733182602819 5.604955494659759 0.15340641278001968 -0.01601643003291435 0.9221675435560828
Ni 7.973643682982724 8.57947160598246 2.4950081424898793 -0.3008021005895852 0.9567465670825329 -0.05908292220508534
P 8.257982242252899 1.647512296374233 3.4759978289869684 0.2828177481970226 -0.1978142494714335 0.4078924039118846
P 1.7410796248754212 3.133508379724764 1.6499072012815736 0.9153669756944816 -0.08445199709749326 0.5696029656822256
P 4.550490775315908 0.961075158840683 8.206175052900885 0.08952375519344581 1.2001670444288557 -0.8317994380844708
P 8.531149391292146 1.5625716788429684 12.297006513619792 0.3561001018309416 1.0413129782707036 0.8401231274588176
P 6.5207286900252255 7.610663088040078 1.1520160362270693 -0.8077282560678798 0.02128076375564722 1.089646889489401
P 1.8695327950185798 3.270416809469197 5.9612585099813336 -0.6525904624190503 0.12325662866951677 0.9300975970364368
P 7.004663713671693 3.8829223120900043 6.096407307258052 0.5927516358845469 0.5118055950577831 -1.3380666198225277
P 2.0362376678829786 8.231524588943467 10.392636605242961 1.2664953353424446 0.027466066630752697 -1.2763215774042471
