# total energy = -340895.5782414588 ev
CRYSTAL
PRIMVEC
9.05455745916285 0.00000000000000 0.00000000000000

0.00000000000000 9.05455745916285 0.00000000000000

0.00000000000000 0.00000000000000 13.25226009018396

PRIMCOORD
 96 1
Ni 6.37866414546919 1.8993473700833756 11.53413091010838 0.037231887768264915 0.6236586098760485 -0.1462068097077869
Ni 4.625457333972941 0.2529553628957141 6.105753443225883 -0.6373937000739539 -0.11330568810439196 -0.6062026191831302
Ni 2.358033145604233 1.4164044349308635 4.795396891580538 1.5077691986594097 -0.169428756350205 -0.16006916951217592
Ni 3.4011091188804623 4.30683650893438 4.829176729369943 0.936805862294548 -0.23520631696664654 -0.6473197009384143
Ni 4.93932451630653 4.563605651463111 2.539357903854175 0.6000733663569408 -0.1448569805481118 -0.18543258797762904
Ni 7.178263066675542 6.094658893880355 2.487184637891667 -0.26031391066755166 -0.09467907414214018 0.42841032135957824
Ni 5.143396133991577 4.524824981548075 11.765661378968849 -0.11661264099043789 -0.8748533318511513 -1.6745443194368517
Ni 5.682459216735354 8.011689814826225 12.479958219109932 -0.27958150064791204 -0.24298930334617508 -0.06652652296732414
Ni 1.8740036635477273 6.603543136365712 0.3852587466604829 -0.47320922284182376 -0.46099648282571576 0.36322540002181314
Ni 2.854729953649796 1.6192717964639836 0.5747851231240696 -0.1951765547382703 -0.22277246207866797 -1.207439666830869
Ni 0.5657912311262633 8.904152278093887 4.551171027602658 0.23962347219773567 -0.0999611484766859 0.8741658188658235
Ni 8.683990711672205 2.3666802480485143 1.124290827070977 -0.21133953765137795 -0.14044342486144845 1.044413214462582
Ni 6.939621148328436 0.665282709301935 4.918589579555321 -0.9607379476301132 -0.40808626509024554 -0.18068890264505655
Ni 0.8068090653701021 7.424791504634134 2.690368003482699 -0.17649826160247667 0.022100688553781292 -1.3205774618988289
Ni 7.605402763750454 3.8918751917417276 3.699991008496475 1.1363923731750558 -0.1961720858823202 -0.1367271523521258
Ni 7.827357132563727 3.920741121157821 12.637421501892423 -1.0687142531017917 0.10705070833361563 -0.38295321746804367
Ni 7.921904822326229 8.816902561703209 6.929063534244632 0.6586996606405817 -0.14386093518342966 -0.012498903797959118
Ni 6.978546691164003 0.8211216044629566 0.43640250943145703 -0.6611969731411388 -0.6994249062740858 -1.0986676049307724
Ni 1.7954010496013304 6.610696236817002 9.35634774677489 -1.0980844787337927 -1.1084586228792652 -0.8483665984145324
Ni 0.16790318761836265 4.801876332951352 1.517383576909253 -0.8963770648555401 0.29017881654778416 -0.5374875732049195
Ni 6.232342495731398 2.0046880924255457 6.857607682559253 0.5212040055535475 0.23835051902258306 0.5839150114295234
Ni 3.5086500987032188 4.380920898671669 0.4299348389854358 -0.36398207568217955 -0.8113262578317832 0.15374991216236744
Ni 6.0928751460463 5.41875428313613 4.701557268217139 -0.6849699071910202 1.5825592471871066 0.5733315794867223
Ni 5.27826376844977 2.7626632126514132 9.480786341866253 0.2113253965839909 -0.011522398817302737 -0.499000729983631
P 0.23092381350573912 5.654073178868523 12.437935112142231 -0.1923221160086107 -0.5814223269146567 0.45606484985205326
P 3.91038270733975 6.141398519867143 12.555827262137033 0.5280094585111552 0.8951730172451099 0.13187393802488256
P 2.3307155455263295 8.579365299375164 1.358304055607071 -0.17569222076141355 0.07654508354559075 -0.05409035408650039
P 6.217882367350752 7.650277150885386 6.048728745337043 1.038434628281644 -0.43459073913867735 -2.3368332400905887
P 4.705445295221929 0.9858330605508383 12.671374281730714 0.09954257288202856 0.22624653667019745 -0.05228775366012285
P 3.8850118371315014 6.1252180255551725 8.049144897518387 0.1762126120412578 0.3792744830648758 1.1311028426413423
P 4.832725210467235 1.0218973632058892 3.8902272622706704 -0.49786764482045226 0.24792864962932137 0.1993078032978245
P 0.10111496034138868 5.578893187669705 3.597829341304239 0.17507335623049206 0.11149588858916283 0.08142400890444686
Ni 1.412782611917552 1.2640343407608414 2.577895911627318 -0.6622788933514079 -1.145692310419743 -0.23515180957962725
Ni 1.959161777148218 6.4657689889393355 4.585586495330899 -0.43551350806326283 0.4336108917239113 1.2133958844143038
Ni 5.871002268250826 5.691088210064568 9.30017146092692 0.47947500124587744 -0.5690674048937295 -0.1996358760612046
Ni 8.520003620186985 2.251116930251272 10.258163567974432 0.25798449120342665 0.9384148586528807 -0.643804231585988
Ni 2.366969993889579 5.0918757016272185 6.8253779850195455 -0.5305756765764346 1.0198992884816176 1.1447101490121319
Ni 0.6721243329740809 0.19130016428435606 9.343373471285455 -0.42197356459529906 -0.7363217793004352 -0.13760081320633077
Ni 1.6344381803322263 1.1517487727906461 11.51438563649556 -0.18209092519890577 0.33409480120444396 0.2089954628992336
Ni 4.092895423538058 6.864957266909015 1.5796689727249273 0.37060600875660044 0.40308675499312513 -0.43693584233208627
Ni 5.757711644394436 7.848191669447802 8.077345316955785 -1.6666723728879427 0.26586852193719374 0.5495231642132149
Ni 5.540429427268337 3.0877489917687355 4.7310307584437155 -1.2278747947567692 -1.3340294736386766 -0.35939419920118104
Ni 0.7485094857805774 7.2517679647307025 7.013347883043162 -0.20106643786014403 0.5247945511182833 -0.4513720723620743
Ni 5.147072284350089 4.743881891950699 6.957834390806627 0.3892493348894006 -0.7441186496370347 -0.04597415273726921
Ni 8.282864758390403 7.275762542193893 9.229285140910385 -0.3017171562046868 -0.1471745729376949 -0.2865507328768936
Ni 4.557158806499415 0.34132784442051894 10.461785174150075 0.7689236244958564 0.05802259926137104 -0.48414052504234684
Ni 8.030686276531044 7.2170709002631765 4.694016632703423 -0.5085564919928661 -0.3797581075695137 0.5003780699471319
Ni 7.325037444289998 6.019035229362407 7.2119858607524865 -0.07767482627465977 0.43434262768361326 -0.8512781156343725
Ni 2.3722306918164144 5.0782395379821 2.548436003237041 -0.47140225154007204 0.10215044281852084 -0.05720601689734663
Ni 2.2459739415723696 5.293819498291944 11.379053503235909 -0.04504109940003856 0.2786813574311458 0.8033100723955262
Ni 0.9807262901020688 3.3440835155358695 3.8608868740398328 0.0992929187650677 0.6509434137339306 -0.7502062505920112
Ni 3.5577710733212586 2.631507946781864 2.8089229470889365 0.4080885790830907 -0.32799177363049964 0.2836019346612148
Ni 1.0903045453698135 3.3046690265935053 8.112477000184908 -0.5368782217556947 0.44139464943438816 0.522872651505222
Ni 3.675525594041554 2.8172803036921534 6.9690982603780265 0.761418831478379 -0.31682444415977046 0.47714043957542984
Ni 4.125998885879727 6.7921948425715835 5.899111236657137 -0.2074070353661912 0.5229726674181961 -0.248489664339114
Ni 0.7882010441834599 7.471205166549724 11.423501420711023 -0.19464099394977447 0.6299274736038958 0.021440943482595332
P 0.24747192285356015 5.463692052173795 8.052152821530942 0.06954319830646087 -0.247647885164109 0.8080838396350857
P 8.656845148187434 1.550629195804194 8.024945687054945 0.2179264468402763 0.7261831482045364 -0.5917951855085485
P 1.9293270100760629 3.402865703041918 10.411704416433505 -0.9771955789655042 -0.6904306731952754 -0.37558057915305637
P 3.9077749947701657 6.103849269776633 3.645074211601383 1.0552581275968858 1.1950297232022904 1.0287122587875575
P 6.8373408664325135 4.007583382459502 10.533969917716883 0.7808172906096489 -0.1408745988615961 -0.7542606231670429
P 6.25603827279599 7.785506967644912 10.228624884933614 -0.2901633899288164 -0.13683642423648046 -0.20190256060819423
P 2.301550815711637 8.374533098857322 5.942326828851972 0.4125057343141799 0.20347196197784312 -1.3067410702363687
P 6.820381680172682 3.8732952396834386 1.6117266336715024 1.6865811959967274 1.5026421618454895 -0.3550148391865628
Ni 5.425744401551822 2.695043776992884 0.6655452914704001 -1.7516640445389895 0.09620502386836335 -0.7918573504738943
Ni 1.7784056451113655 1.1424950149916349 7.100428279207967 -1.061493052763004 -0.26207948720840674 0.04490585937375492
Ni 6.876284518383148 0.7443181310984225 8.914053436756529 -0.6938504975101017 0.2583863546275357 1.4614841995499412
Ni 2.6902448615002466 1.6848177384473917 9.264271045763222 0.8178311488298368 -0.14284200700061206 0.16299817023351282
Ni 6.579566668017589 1.883864076701468 2.7031430787064026 -0.850353032716942 0.1549922692099008 -0.22899915971467014
Ni 3.971039188255187 6.9018455342995955 10.235979902017897 1.0585049166689577 0.32258242968947026 0.7130656369859719
Ni 8.017267422266725 7.03807135238778 0.4350117293943454 0.4633945507442471 0.4176355993415775 -0.5330146250352304
Ni 7.507595433275973 3.851093464611838 8.223133653254868 0.4096731499613912 -0.7840455677389594 0.7170937843087586
Ni 3.134570108773323 8.222072459111967 12.35704350605142 0.3922909499292018 0.6093067120297506 0.8704163791257202
Ni 9.07465865100307 4.869296568344149 10.25727622133617 0.01936477767985697 -0.7985568739812571 -0.2558545893446174
Ni 8.928020091751613 2.3652949007459227 5.774778579888914 -1.10624541727803 -0.7823902915237235 0.8910299416110138
Ni 3.6759964310332847 2.6631355162456085 11.478617417871847 0.18975486950206677 -0.08717248135244987 0.6823756641012829
Ni 1.1299363436929766 3.4010638460927956 12.698726289127244 0.6866966600741399 0.058506737986641175 -0.6215209947077555
Ni 2.874477943629878 8.220723330039508 8.11174810830348 1.7181710549878668 0.7076236400347943 -0.6510429154262722
Ni 5.617384111743675 7.814363842503472 3.74208021373417 -0.5990220422742909 0.0844784794600545 0.005580065190938777
Ni 3.090899977790317 8.462950853169794 3.4029553431614974 0.09931117359751283 -0.3294205356572262 1.1466770429305155
Ni 3.652327817641293 4.480412376847341 9.504017620129389 -0.38525332635613 -0.13061178348300734 -0.6143111072228775
Ni 7.2769577437882855 6.202516783216776 11.291959525234804 0.18072541230994682 -0.42735359796028977 1.1308259348308718
Ni 0.42540393839578283 8.969924584015628 0.22587589768093597 0.6310366475076745 0.003412368115658639 0.36179355267129304
Ni 4.573973119838715 0.31102133490088013 1.6817120252134772 0.4279205262073533 0.3295010111861745 -0.17772879157546811
Ni 5.9627883179656775 5.6320253312749875 0.25916950573080355 0.2918592895740006 0.5765750261246844 1.6169438953145636
Ni 7.828063388051323 8.934865337246771 11.157740197095993 0.5855489474885206 -0.2716851286189708 0.38766347845951943
Ni 0.06108928876552803 4.998695250052242 5.753071183658631 -0.17173529299619456 -0.6451183224117213 -0.060685490805514844
Ni 7.969405031145811 8.994091198071951 2.3496386653151298 0.8518674124789394 -1.49573720719554 0.5538634434597817
P 8.46956973472662 1.4985383263152392 3.7013301775556466 1.250494589038814 1.6336738064747347 -0.0029580541870594217
P 1.7250924103554175 3.2115429023637287 1.6276164766866537 0.5427483073832265 -0.01998698464488816 -0.5402137138868309
P 4.569074604213211 1.1300631074984424 8.141102078370617 0.4652909964360116 -0.2264943910149454 0.2523203509391138
P 8.664523412975655 1.5652704153355066 12.297660095925162 -0.5585202255055026 0.5030931548854497 0.9830458670986941
P 6.23154569466847 7.952110826257248 1.4849691663958668 0.5071837800150555 -1.2229033096841069 -0.12883695097077166
P 1.8789383974033644 3.2153277074126394 5.909169944620857 -0.6026390702015879 -0.27917320946589985 0.21147709167050677
P 7.124542376830597 3.852297720763764 6.0003846517553585 -0.3985605849879974 0.8700433120570178 0.2017405811090332
P 2.525252714128833 8.591100005938292 10.308442620500976 -1.1456079782360529 -0.07541302682367657 -0.44447123147718287
