# total energy = -340869.2122589624 ev
CRYSTAL
PRIMVEC
9.23731778475145 0.00000000000000 0.00000000000000
0.00000000000000 9.23731778475145 0.00000000000000
0.00000000000000 0.00000000000000 13.51974830037368
PRIMCOORD
 96 1
Ni 4.706552018709354 8.214737551762381 12.363133874999582 -0.1559708310730862 0.6363297775858138 -0.35982922985607063
Ni 2.211792630073278 6.6178731728406515 2.213386067407267 1.1588383608833979 0.7038639158820458 -1.1910691958926456
Ni 5.540044448176913 8.685471270835281 3.022217629335405 1.5093681677154134 -0.44555340879776817 -0.6677733408070756
Ni 4.69509774454039 8.4643945420564 5.408953975240274 -0.22059730880422007 0.14499453456724062 0.15312307721164595
Ni 1.6032288909398063 8.422678814518465 3.4517270461814897 -0.8368812234827523 2.3658129151523903 -0.2530914247771835
Ni 5.921536439228555 7.1488249671615165 0.8360973531092112 0.635772619530763 2.870024499912999 0.31540802342821805
Ni 1.2348631285930813 9.082223311021705 11.819897371632504 -0.4962270238932357 -2.058911643643602 0.8150183619713899
Ni 5.587293329123889 4.425497384947343 4.559832927654593 0.6999419551198204 0.0009916744893079695 0.6072724552085412
Ni 0.5781295479201775 7.032915102425905 7.533541705884437 1.2084184858043705 -2.8939789538460676 -0.1337955805276276
Ni 0.5529883398510896 8.29270051465436 1.0525988383430203 0.73834703726058 -0.2114233556144359 0.10929168184899242
Ni 8.465715478512983 2.652597439220821 10.613610809627412 2.6814078577804334 0.07964686239936607 1.9747208706272958
Ni 6.273653759427533 3.4039424007975785 11.934760648252515 0.5202663242306266 -0.34315896828924125 -0.6748485024863022
Ni 8.0526780469073 8.153946762805969 12.29411540700906 -1.010734077042582 -0.8778566374538493 -0.6840813339384799
Ni 5.904364265292989 6.002353733344898 12.263033679812505 0.09736613405600006 -0.6081232332446107 -0.6878613698062025
Ni 0.4961991569995125 3.841394063555336 2.5729699116471902 -2.9475463455495623 0.1254209833106872 -0.558458776139948
Ni 7.727256575376311 7.88789353327815 2.8186918045250993 2.104391887463589 -0.03943326629495789 -0.7479794181440215
Ni 4.25360937386986 4.03013094244265 6.505080902888933 -1.1430165633597926 -0.8751742055256798 -0.43337949243939555
Ni 2.580260002916664 5.277769281661277 8.217925350162147 0.619808640002339 0.12858421153001726 -0.5215935276824823
Ni 7.224691058895146 4.613559939629548 2.6308213860547602 -0.5404363714205983 0.15469324991224329 -0.8993119791141481
Ni 8.208437700969451 4.801363849411164 4.729099387918244 -0.44074416033458286 0.514304964440869 -0.3610569316155846
Ni 6.954536460229407 7.916353709660874 6.037162718305307 1.0721693015299278 0.18448025136668875 0.1644837536401038
Ni 3.0267272879235407 0.9772158583344209 12.988746931740842 -0.6096939201658402 -0.1299486959777117 -1.2627896043560833
Ni 8.577884229507925 7.843341949151608 9.693389202601464 -0.5310986389594402 -0.13388814024143394 1.0548593494965706
Ni 2.9991354194213677 9.058640438478669 7.912162738539536 0.002063567397248059 0.2613793758175885 0.1975514827283501
P 3.715785015047618 7.796638069959446 3.5153102763324804 -1.0432988983524807 -0.6313809182209706 0.5570205010315246
P 5.987740296461591 7.695424777968046 10.714049090648832 0.39908920379795787 -0.4124365716391413 -1.3083346399757338
P 8.234653209107773 0.7760557106327208 9.361898813224501 0.21193860468795755 0.3358776041364796 -1.3907942892335468
P 3.7247452133894687 4.428859768655007 10.373568019781018 -0.8062961516070436 -0.42371831520054776 -1.6901555436115472
P 1.1896556948971873 1.9391347182625485 11.824249995816709 0.14136619378603396 1.080857830442861 -0.7137917165187191
P 2.3216243396450365 0.8237396692517597 1.678287641090881 -1.406334808071307 -0.9840642810608793 0.4050634191035218
P 9.120973859520738 8.170259866178865 5.1948283281647365 -0.2921691075049355 0.6623727386167947 0.26069597659731875
P 8.016347675692352 3.5269003390742535 13.301850439881255 1.0785476942524457 0.0881495005537385 0.22211117434558522
Ni 1.1597267849718298 6.220363672588216 4.618940677293598 -0.9832777806038421 0.9834166201745516 -1.1776243832416493
Ni 5.92842747836569 0.35980831106436373 0.6136793657744172 -0.9002581450775011 1.6631867283321873 -0.9699499531466845
Ni 6.942490997716238 3.4640311535952475 6.3657193355241555 0.9157721815527003 -0.6047710289429262 -1.3633058540052907
Ni 8.3862283581711 5.141371045871826 7.150351895806782 3.8172212185235685 -2.300150282847258 1.0362119095987123
Ni 4.711521695727823 6.069730729948464 2.521229846747836 -0.47517945919431714 -0.12175150487889998 1.0083300955867793
Ni 7.198660297114388 0.6638463154391153 7.3253242473237945 0.0012084184858043704 0.34949468069928197 0.38982269089436733
Ni 8.371467124201743 5.099932437870235 11.814718931229987 -0.29639625821240567 -1.4033397299987251 -0.7410906614439882
Ni 0.22383314443373373 -0.14192215188061294 7.682488838011418 -0.12129153452334596 2.9434564917509047 -1.0009811114208762
Ni 5.301601561787024 1.1055314409804504 9.22368636820377 -0.04890238212765772 -0.36318143415775517 0.7356934016878169
Ni 6.829259955165304 5.491576241270016 9.995433793778101 0.592925699568566 0.09078565262500493 0.8377358581735637
Ni 6.918224563650216 2.8650003265120745 9.073116239325591 0.13609723207761076 0.21725898845960648 -0.7079314010832001
Ni 0.9025164398488085 2.301801055478426 0.5015281656834442 0.5689131387040525 0.5152912396135383 0.6421417562819005
Ni 3.5206836241422272 5.361006753061706 0.32252280118081084 0.3031937407502133 1.6224499127344572 0.5080826376802411
Ni 1.2834329459966392 0.7221421048366263 9.687210360672738 -0.06368211153999355 1.0035815251582008 -0.6090429168454027
Ni 2.1243706536740254 8.238985511192647 5.747623608072173 -0.3036573106501932 -0.10591762317043694 0.3021506441976796
Ni 5.680701087508213 4.62087589538908 8.170268179764955 -0.1118589283555364 0.7078540108780454 -0.2810454867879482
Ni 5.498596602857445 8.192743497894394 8.403321091172916 -0.5348948727770788 0.14224319707434857 -0.5648752211892529
Ni 0.8658526014584582 5.2536136954097925 0.7400652727156913 0.21613875881223418 0.15542241476878396 -0.47481333410414994
Ni 2.8204949289749233 1.3078379398308349 5.391215553718773 -0.8491394720248151 0.530732256758957 2.353877082946753
Ni 0.4194776896303626 1.2016734454567208 4.977227602103422 0.33439356339178533 -1.1907352095919945 1.0060703530183255
Ni 4.165023495417954 1.854548598451902 1.2354968085995255 0.41336036900499135 -0.5634906821369005 -0.08446151017919003
Ni 4.418523209949305 6.355376310695939 9.359397347543085 0.5321849300450835 -0.4786825872515691 0.030007602105683803
Ni 3.6205667423591676 5.997772023677313 5.205711736088828 0.052536122225503065 0.35291424790379217 -1.0818968132303368
Ni 1.5733923541932313 3.182320670263885 9.156682559242483 -0.322481899555864 -0.3322886012336406 0.228409091539155
P 6.1592865267775805 1.6001251521327322 2.529342059308468 -0.41163438745282016 -1.6065777215888912 1.4625056988359202
P 5.760391428843416 5.1136129056478445 0.7905499861153993 -0.3993326872673316 -1.5059851101757935 0.43645376048934514
P 1.5010641552069517 7.741278823915413 9.660306672352492 0.869216188170032 -0.40277308040744825 -0.042788041699803735
P 9.01627809868926 4.3963998336310235 9.353164929170665 -2.1247285421384117 0.014870489353929229 -1.0224125418217747
P 3.737511186697137 3.140429433686263 4.50172465581001 -1.3439379910016402 0.004536197307456704 1.5690866666219687
P 3.6501261595693966 7.185552543045226 6.974297854366232 0.7357641070247523 -0.17540734253114307 1.6435087902872856
P 5.732651763255191 2.20707236063752 7.371264200327429 -2.773298827654475 -0.42006503471867657 0.784588584726623
P 1.8334320897823444 1.6308022848062234 7.440688186572805 -0.025146160248324435 0.1274783800603482 0.040204083022711404
Ni 3.6382562060959143 8.595823100827383 10.15945530495051 -0.5755190740563443 -0.14088899703929927 0.5571274589230341
Ni 3.8381794769337234 2.8146661813937808 8.621543488727433 0.45051126702367567 1.4934170437027956 -1.7678290843346263
Ni 3.937388270945555 8.489695555724781 1.0237082029471725 -1.8961546428866183 -0.7089091916154373 1.590905305158957
Ni 7.033552477359501 0.8412397679720033 11.056017369695034 -2.016419021697031 -0.883498152010343 0.7290856665633121
Ni 1.326737492209625 5.393623722489619 10.31167429506995 0.8482848373340036 1.2820628507633984 0.27782980806412794
Ni 3.4734347431952517 6.191266121271897 11.564630558191055 -1.226756879102242 0.5353090774963619 0.821896834258778
Ni 7.8347789554785185 5.905251047809295 0.48051511497412247 0.9233865035648483 -0.21085874136021748 0.10296265430717105
Ni 3.2998101163566678 1.980129935005985 10.56772443306747 -1.299770809566123 -0.826705568501331 1.2881885040451622
Ni 2.497456685456509 4.571530143283754 3.230084069816676 1.1450384788858279 0.8533439970244657 0.14706504394302414
Ni 9.254129796734944 2.784081421899072 7.18262338954605 -0.21172597445651925 -0.0792398567689345 0.021414718230350217
Ni 1.6544590558922847 4.204162011267874 12.469345479694875 -0.33190679241418963 -0.9030714461565801 -1.4940647045891235
Ni 4.531126114884522 3.6444544463921837 2.7039366045242623 1.6055693349290348 -0.33044692003921156 -2.402537524266933
Ni 0.9960599868059421 3.767855775927013 4.87850653847556 0.34776278560983975 -1.7906095725642515 1.0191007038397222
Ni 6.523033630185208 6.490795390790302 4.1548485897751215 -0.6311058101827132 0.5273116611131822 -0.026959816418295503
Ni 6.195718508489188 2.9776032314472913 0.9984127316695188 1.4919456013635919 1.0921971667150803 -1.6460320709297716
Ni 8.200641404680253 1.2140606887313825 13.199221990790914 0.2803464038383946 1.7827715645770716 -0.9110891742547341
Ni 3.8740664568905174 3.5313896755630574 12.327766032307542 1.2286664374201293 -0.5283730124981609 0.6526033179348567
Ni 7.179705320828328 6.678857945472505 8.033610375343125 -0.8002399181106348 1.2949456202633376 1.027153913161502
Ni 1.9623296234547003 2.287935841343253 3.2801475615211384 0.1197558146051099 -1.7021631095953846 -0.2679174340464225
Ni 3.91795295412983 0.9705834640978759 3.4969233950959295 0.009310221657332354 -0.5496761448513113 -1.4272345343384516
Ni 8.667634010012485 1.2916264469545997 2.689930059425553 0.013843847861627769 -0.3107442994039616 -1.3421541596283402
Ni 7.18783416056114 0.541969143354189 4.536538259429357 0.39839963393010097 0.3451135209124508 -0.39132961445719705
Ni 0.6427325779649212 6.6971847841428485 12.21305147650537 1.2947432744445444 0.5267745576627896 0.3323631632253179
Ni 5.244588835842794 1.7288656514011587 5.274661847927051 0.8150705553655639 0.31740268526074367 1.1054553172765669
P 0.10277439871281566 6.156810925586224 2.492892526692892 -1.3853386654356141 -0.04851620243283257 0.7920797508973456
P 6.674507168751875 5.6828256706202 6.176321064676763 -1.80476683790124 0.2574623001513695 -0.7185737112883946
P 4.88922921706857 1.374891630308664 11.798481573863693 1.2333237336864824 -0.1261221231427699 0.6872710445203712
P 2.834720398507346 3.49751643090371 1.0023025662280274 -1.469431736531792 0.6434180518911627 0.13069354456353618
P 1.6739405592974015 5.085439086119345 6.29559238938825 0.1860717642235247 0.5760227531656402 1.9609107042170808
P 7.748622491628579 8.793464754149278 0.7601869222497669 0.4431031474850627 -2.244170682157845 1.9964567196424907
P 8.269782728998555 2.6451336863752384 4.290249195233727 -0.129471499230977 1.2681768368099255 0.2791248727264677
P 2.2935336559774404 7.5868585809456 13.2967809998297 1.1455894662932915 -0.5303270509007383 -0.3132531818687444
