# total energy = -381167.77064542373 ev
CRYSTAL
PRIMVEC
9.24457870744111 0.00000000000000 0.00000000000000
0.00000000000000 9.24457870744111 0.00000000000000
0.00000000000000 0.00000000000000 13.53037539467467
PRIMCOORD
 96 1
Ni 5.950162157328895 1.2683284664657035 0.02851675197348889 -0.8573718872369364 -0.15943282147975768 0.2366533338258182
Ni 7.034643686816359 3.8494888013488 0.7429553600520609 -0.9751366395539464 -0.5226597641634676 1.132146196304192
Ni 7.85412012275436 2.403498021067649 9.05956049357055 -0.9675498283456239 0.11962520256451656 0.6789661241991016
Ni 5.905658755377205 1.7071871073985216 7.729754654167803 -0.4009504253764127 0.41057997804637675 -0.6998864192915366
Ni 3.286364533279586 6.139278504176777 3.225614708687702 0.19599776508798503 -0.6616466590840476 -0.05686920238321819
Ni 0.9393971110766192 2.0435418594987 2.5845586420200797 -1.4941408092426975 0.1762087553865159 0.31753509707354993
Ni 7.034255414510175 4.7756569202789985 8.912133498912393 -1.7672942948770787 -0.316949399773409 0.5899889855377451
Ni 7.252418227692126 7.307950412055192 10.477164870438145 -0.24181559475304804 -0.6923764840677367 0.6455353553444818
Ni 1.2985674834544811 0.5340981398083255 6.968034648232582 1.0222546760876716 -0.505642917890497 -0.48036203183652104
Ni 1.2115759977117733 4.728001116984242 0.945588205444514 -0.35083936765263446 -0.057073605084540416 0.8842612554286126
Ni 8.08725915346056 1.9656100609002913 13.123368212270076 0.3618148928275317 0.48610947584325964 1.7682962537790319
Ni 3.0086111656770727 0.8402980005860662 12.41526953627677 1.4323201763914752 -1.0381039844151025 -1.5563273100737711
Ni 0.9552238298429864 6.4120397992712075 3.230133458765389 0.7320041257616877 -1.4882336997296435 0.1198324334793162
Ni 2.981043831937991 2.390731257857162 6.336396958363542 -1.2839610962273758 -0.37519439945823124 0.33465427325233976
Ni 3.9290199120655385 4.981866493177706 12.201178035562524 -0.05500103882622786 1.282353899641256 0.616877325288157
Ni 3.163883109835895 1.0906938863864124 3.0082358357810945 -1.9556851941520832 0.5395927924733804 0.2602779152232937
Ni 0.8855150840148368 1.999685578057318 5.047439214487121 2.7592927431833707 -1.1609667200803104 0.3316681940408223
Ni 4.5978559377827715 0.35521739051775747 5.17631603748839 -3.29721663259476 -0.3199915290338425 -0.28436812340327794
Ni 6.352329065327303 8.810286899626652 6.493146186201609 1.0081256928854574 -0.12276400530381439 1.1938686130146534
Ni 1.9643435536158331 1.6872373065236266 0.5781106546300532 -1.4000008954334793 -0.1753806030582657 1.9595279649369415
Ni 4.913401143187218 6.140498788567642 10.406793288315868 1.3434803346389312 1.1299810703320734 -0.7546277766984746
Ni 4.811340994133074 8.220223929171226 8.797423068339619 0.748690328168117 -0.2641078304923452 0.5906109353924602
Ni 8.682036859062508 5.155368746569751 4.902785593444566 0.36791637773957925 0.22508131271750267 2.463645190211531
Ni 0.06670610666032477 8.599390325317575 10.222875168081494 -0.6212073201220786 1.6266253842683858 1.5386743728786985
P 2.926260458451138 4.235588631534155 2.104703992301437 0.7128301239363982 -0.2016030270899044 0.16791591925010435
Ni 2.2609558618044385 8.526080816078503 9.154787050035852 -1.3194785724076952 0.13732724782996994 -1.539185251076846
P 1.3252843159514445 7.023309833307267 7.757830439736412 0.48835687711653963 -1.075815125812631 -1.656325739546296
Ni 3.5345075152461916 8.412751525566298 6.930177173921746 -0.7582507181630425 -0.6782667841392318 -1.190240529343763
P 7.203708542423442 3.125360950315187 11.347032580513757 0.7250822018308739 -0.017669906475937313 -0.9171706045621236
P 6.762464800181205 7.439325120226245 12.634786680241007 -1.0851289470143892 -0.008270981759540596 0.0027809051792468233
P 9.194389900808773 0.36395166849115923 0.43106268769936185 1.5425667659545692 -0.8159997520480529 0.3737311846491434
Ni 1.5940242193032523 5.398898683755739 12.008586651574293 -1.6408386996542903 0.4086858463474574 0.7895968365744918
Ni 7.2283453447087025 6.284483102110966 1.3341165864592641 0.21528592389363568 -0.9947001635081707 -0.47171566901543277
Ni 8.969774371681188 8.29206355039403 7.929151897008721 -1.1228472875007693 0.8410001307471323 -0.279209462020474
Ni 9.227596427566244 7.635467346900319 1.5260368140325196 0.02907352032718864 -0.13840942515055515 -1.1943967176039816
Ni 5.141520367649179 8.85033441463594 11.973123523151592 0.9666851663524834 1.118225729568358 -1.8600100746452612
Ni 8.39672142606812 1.728403415557875 6.5378233862332085 0.30330866906152276 -2.502110436166265 1.28249376765323
Ni 8.394160677763047 5.187216320255577 10.714663644468072 -0.0007795584785018833 -1.1494075544878013 1.030663211866341
Ni 4.803584792588108 5.261958739196043 1.0220334757849603 -0.11628945332306423 -0.8089706131154132 0.6361528856883173
Ni 8.103307742116176 7.106816112873035 3.651929380757154 -0.9536540442001382 -0.17855051614581507 -0.6923818833843753
Ni 6.278316968105611 8.56099758989893 4.0057489909726485 -0.14249285119130944 -0.8883781058104636 0.8729584288212837
Ni 1.4708032295620672 2.5883711062836605 8.305999752812427 0.2162554868957566 0.1532914844687102 -1.0691271722694942
Ni 4.879131489877099 5.608852311035508 6.886852455756687 0.5348529637955498 -0.32157558569151073 0.42056100051848855
Ni 5.337357523225537 3.829853316150339 10.088545892551952 -0.6578478541632476 1.1856580521794031 -0.18986234161420848
Ni 1.2620513975157248 8.13070867343832 12.650129907540387 -0.22895236563713475 0.25866686198243194 -0.2622342676187161
Ni 1.5963815868765139 3.980613905894449 3.9150411845850335 -0.13718892247989276 0.5840533367796006 -1.1986698910580387
Ni 5.239614592433012 3.1800333888574155 12.301762749853166 -0.9410083304116696 -2.8797980343599954 1.105280996482232
Ni 2.679994125964423 6.434531859293738 0.30829745568900735 -1.019803900554334 -0.31445620103791005 0.579059225999119
Ni 4.308398933522418 8.24428756757593 2.721784244062182 -0.19351305099291832 -0.5073107925112231 -0.41059617599629283
Ni 5.694189017187574 6.265393047056907 3.081285572358172 0.5111751605626358 -0.12221790299235726 0.8869814825732532
Ni 8.507046228496758 5.9391888423898305 7.893702635454099 1.0124528595059015 1.1234530394055682 -2.6355424627068866
Ni 5.769384420485256 3.5078553948002593 2.8962442358094806 -0.0921370244465768 1.6691504021147898 -1.3511681902014923
Ni 4.648497740003659 7.349615728340249 13.471328608493677 0.04133254020019978 -0.6140074599395297 0.2992298710064588
Ni 7.495781762461179 0.6883698205497876 11.474042923071726 -1.1319916730041988 -0.9660719582485168 -1.9355205462787506
Ni 2.841663318596567 2.700461623247564 10.5335188978493 1.0108451486991494 -0.6074580888567861 -0.7632869950353693
Ni 0.568738500725063 3.2062787478397268 10.411312962851426 -0.6652852842778993 -0.22760227936714353 1.3489976649127347
P 2.362008351778247 0.21200130146595586 4.887361013852461 0.1142071168727388 0.42156784451644813 1.092352204235706
Ni 5.08044143605491 1.6992645034366194 9.996227680551545 1.0347265833024373 -1.946630025928351 0.2966214868493343
P 0.3043343047923125 3.8519478592879666 6.650058118625123 -0.03335055043598773 -0.10648583696908114 -0.23249406024180602
Ni 3.059595017310551 7.512024487269885 11.10999418650402 -0.28636021413264234 -1.0764419607633526 1.3809266524108477
P 3.7079358120084867 0.13339095078959656 10.362034735991543 0.4533523360168966 1.4311948045377803 0.7646964737883862
P 4.381273947561713 7.2561807712306265 5.045828808874329 1.4572084549927224 -0.2987673295477435 -0.23676980479902446
P 0.23454235775569485 1.056951174063258 8.894300706564074 -0.5360899215264445 -1.358847561123621 0.7584540924231002
Ni 9.124371461593547 7.446822473567089 5.729531966086931 0.04662129940296487 0.37683682015766073 -0.04122378253647739
Ni 3.4892737915757275 1.211557508554336 8.131444541904328 0.6235043436863714 -0.26934722451441356 1.7608004596226192
Ni 8.668604486184277 6.708310058047222 12.928882614102388 0.7170459617899586 -1.3841914392050483 -0.8339622500637444
Ni 2.8840404674429614 5.13720314938756 10.173692160382412 -0.6605991916561397 -0.7339859320784069 0.9427155429107635
Ni 2.208677769150346 8.593566240724813 1.28246157841081 -0.33013941610112174 -0.5495175077862601 0.0230180581617281
Ni 0.8283919076542879 6.526006965715002 9.998812464761286 1.0097583433928738 1.2930381188279796 0.560766341227202
Ni 0.871996736554522 4.752748854214128 8.729310861256183 1.5925441263139604 -1.243270303376233 -1.0433212669499838
Ni 4.146193555324592 2.835672831586867 4.498538655234458 0.08980426254834212 -0.3709363955128257 -2.396082769780525
Ni 7.335286631326306 3.552682357007102 6.812381827430549 -1.3388052977607652 2.453382631943259 -0.12741513092258056
Ni 1.015738842135416 8.774103618521766 3.3306238783531024 -0.37233173319845553 0.5637920154274032 1.1142371772342554
Ni 0.6540816780822315 1.1551470892129967 11.747843308814135 0.4796392947378837 -0.07681067850215159 0.40995134332344235
Ni 6.2463492148964415 1.7435922583926537 5.064095171964554 1.7147818268006596 1.191960083138031 0.4162366621115218
Ni 6.3307707077553586 5.053585934877167 12.161250700076575 1.5094000493946134 2.496935833943861 0.5549181099765411
Ni 7.806325650778823 9.221088244148298 2.486544845071099 1.9259848388741734 2.213215628537227 0.1273472537991226
Ni 3.22317783773746 6.285000798519211 8.31597187987626 -0.31768190706405935 1.2171203844537424 -0.18784042608817328
Ni 2.243474363447429 7.03261912407697 5.2786868043874815 -0.5570266716791116 0.14169735187320756 0.39576553874136355
Ni 5.410750233673076 1.2287616695497854 2.8244794956742987 1.295298889837698 -0.7816652404322408 -0.7175938638736287
Ni 6.329115928164716 8.422097794650876 1.0963635865145742 -0.8207264680997607 0.010887850557097378 -0.2244112832336716
Ni 6.591883833664261 6.544338965314129 5.6212890427857385 0.6090380317493963 1.1338729491873119 -0.017340291050660456
Ni 8.531424182577897 4.566498326769034 2.799610654463198 -0.31313516823364135 -0.13776536380865306 -2.3150313137241483
Ni 3.047216526406249 4.6523804630655015 5.525656649314688 0.27618250226869206 0.9707557368774313 0.7398621883535258
Ni 8.303989056941116 2.8582111145029905 4.392568973840187 -1.3124291217600816 1.0237891104543273 -0.4245243560416108
Ni 4.352236725806363 2.7809171918361697 1.1321622931447615 -1.0743781362557885 0.01876391087106446 -0.27500005192481675
Ni 3.4007846840805946 3.97559409965021 8.380484248006644 1.4387862437317929 -1.455879451768654 -1.5830423574711123
Ni 5.961043026480772 4.489065735421434 4.859028228995474 0.7095910481738102 -0.018073312561943066 0.8380346203609051
P 7.394618337542746 2.2249482276952093 2.6047053524216826 0.6926793600201361 0.2388595974485177 -1.4604300472538139
Ni 7.029457478155185 9.067193742218558 8.965321258112404 -0.1068470769632418 1.4838653954586187 0.22907603569919258
P 8.110389089414678 0.13389015804040488 5.04455675484264 0.0017123547054164058 -0.6381902278333202 -0.1778195515170615
Ni 2.448925880891205 3.2462430616405475 12.687283869410733 -0.43945115255477224 0.9850814094714841 -0.17177977308088482
P 6.728759066172925 6.968886998390443 8.177853251529934 -1.7401827833722674 0.8330510511033846 -0.3916998533124222
P 4.967731532316856 3.3448827165687827 6.42065019988978 0.01914803368336057 0.19837860661533577 1.208389175228332
P 3.9940740125088365 0.40178418243945435 1.0156020223703799 1.5657241779076392 0.9025785656805616 -0.8909808335406333
Ni 8.947411735760719 3.9889155375838174 13.011634536044713 0.45645385776035574 1.2496852057636412 -1.8757444546613824
