# total energy = -340861.3854031781 ev
CRYSTAL
PRIMVEC
9.38557803345407 0.00000000000000 0.00000000000000
0.00000000000000 9.38557803345407 0.00000000000000
0.00000000000000 0.00000000000000 13.73674216073010
PRIMCOORD
 96 1
Ni 2.9801556499532893 4.840724473131906 7.901456248651415 -0.8141475293306624 1.07512452750351 1.4345148700499488
Ni 1.36901794732631 0.7978266880329716 5.671543344900696 -0.26878055337766615 0.30257101956454985 1.1726390142119159
Ni 3.7701397490212947 4.136308688560788 0.828604813921931 1.760802259394832 1.0777653075604663 1.1720047230620267
Ni 4.586534864541448 3.5348433089163294 12.303807592240974 -1.2142250651838185 -2.1117390718572793 -0.978645166927837
Ni 7.459554141786394 2.155932962392946 5.8090486322978165 -0.4790474267901556 0.5056706858046388 -2.111244648719364
Ni 1.715186220177982 6.849744983312526 3.737286471839666 0.40873649707973475 -2.4569173845693943 -0.6880212924228344
Ni 8.143556294238314 8.164345349476946 11.99536277298778 0.34592264707730747 0.596470736607347 0.2098930350128385
Ni 3.9566593403338577 1.1249272206486147 12.663902185708034 -0.18922856468495153 0.472096192283303 -0.2796864016568925
Ni 0.316323073414505 9.26318066332493 2.00375144669937 -0.5104431674926176 -1.3585588262386088 0.031605542720422986
Ni 7.278647126109362 4.382839665514801 4.927300798704471 2.884847938079077 0.869725780816599 1.3065909178117496
Ni 5.556534349377832 7.109012189593321 6.2026610018679 -0.47613153869494135 0.3588707225975432 0.08626282505398691
Ni 0.9035589782746337 8.756021571282174 4.103755749874706 -0.37454776701316783 1.385336351442769 0.48920431271849935
Ni 3.481223501883236 1.7213713160706494 6.082189599957278 0.9018249753439889 -1.2354016992614336 0.22743387211007926
Ni 6.833592403598899 2.585191757153244 12.562429070756345 0.021562813772440282 -0.1863137050310017 -0.08922576433705279
Ni 4.458768991420232 6.564329556763184 0.8096619018731136 1.1028489900019718 -0.4607344874135807 -0.07641138618120388
Ni 6.130359201853995 3.538531841064764 10.178294226657929 1.1967202235308356 0.16347151032550555 -0.05401553498450697
Ni 0.7712579938706607 0.1911288486614086 10.887412185799953 -2.2143080902704573 -1.8212468378341342 0.08185235469111708
Ni 1.5007726910915071 4.408274581856422 0.35457118082239303 -0.9812990596109166 0.4387122175062186 -0.17480827549456346
Ni 6.09228191196545 1.296542514119667 10.372627311643702 -0.0433786240959511 -0.89681672349612 0.6179546175127357
Ni 1.8948543395608834 9.291525108842162 13.200803235830112 0.18723030330800014 0.5745837067262685 -0.4684976762987673
Ni 6.169440748587026 3.1691624194320998 1.2906849748987053 -2.194091506113266 -2.550845696588439 -3.9990532336341325
Ni 1.2538099775501457 1.6617635102825905 0.9612680816361574 -0.6730695562090085 1.7895389652078921 -1.1203715722667673
Ni 2.073480659787357 7.035100762954845 6.429289860702944 0.017544950862298816 -0.5264433995756159 0.19624073433672656
Ni 8.119557371328526 4.7523686419732245 9.639854880303972 0.6803897440195056 -0.4704051777341253 -1.9428682448930732
P 5.398565686298188 5.20646167608405 12.982526602844665 1.1172245419973532 1.4844505785381275 0.9255300322704124
P 8.389477208623248 4.07151065814656 11.713443474238165 0.7430051048578816 -1.9773259123503109 -0.06194224603075138
P 2.654795203496221 6.118683542839612 1.597171024026253 -2.4599659415877313 -0.7706560338059308 1.0909586663222888
P 9.816563726947939 8.251030547754146 7.219784535213378 -0.2708222663980433 -0.3354256042007256 -0.16966246962756587
P 6.608094506911148 6.555403872098653 4.357185126648311 0.5585994154828702 -0.21859339100031386 0.013065574934706529
P 5.763214162203975 6.553217032427952 9.492816661346636 0.9805868640352402 -0.6462784041580935 -1.5169485511658327
P 3.3557383242125787 4.589256682157341 5.886029142937661 0.2674160689299717 -0.03652226329575 -1.8492392092820022
P 4.211524710539295 8.073877763271451 13.151240814160296 -0.8382076556036596 2.626539744987644 -0.8052592257020971
Ni 9.246549419134025 2.0695481026112907 12.57627561395885 0.548535860599281 0.09758082116996743 0.17993171276405787
Ni 7.626673743402229 4.634673494030813 0.17662719211548994 -0.11593926907249709 -0.31043628124523953 -0.6038590586516182
Ni 6.470426849014873 8.931944845048726 4.489195158134723 -2.6740455038780917 -2.0020722660570556 0.5227327834932481
Ni 7.791231082227932 0.13405890316072058 6.580188367885855 2.1623250123349473 -2.2159176008494224 2.0456365238012513
Ni 5.671057171961029 0.7712101274229329 6.354973915653278 -2.3147353797502848 0.28744136301196305 0.049068218281560654
Ni 4.219887260524677 6.816745291114318 3.587954417622591 0.3205700272451318 -0.4075730728992529 -0.9741094838410128
Ni 6.475344891879452 7.1841061990580135 13.314158492511872 0.0038743953537417153 0.2136224201482837 0.7460204946454377
Ni 0.9123072755152336 4.405571535396501 6.068508242927321 0.6116145342273208 -0.39524771856468055 -1.073257906608416
Ni 5.228865050736246 4.879777863130979 4.559966170379138 -2.615728256194437 -0.6185436572469863 0.36958656635315057
Ni 2.3187727404472396 6.043908643026439 12.389730681585727 0.7152397618191553 0.7621248564064681 0.01289973878080359
Ni 3.0523213590863993 4.675134720727761 3.217749679549187 -0.16633983301223612 -0.08233752185765175 0.15908186589824216
Ni 5.833662310565677 8.884472591596356 8.308558509460545 -0.6040336365562694 -0.5690455505168587 -0.5331084703006174
Ni 3.5779512686052843 7.512488801626521 9.405176011230475 0.7251025135458481 -0.08325129192117275 -1.494055448617743
Ni 8.694649276832777 6.794632869379684 5.507128666860378 0.9807946091706722 -0.7418933598509416 0.38468305567495686
Ni 8.231555473433533 7.456287960647321 9.683785016624487 0.620922441891808 -0.7531745891917158 0.08541204701791742
Ni 2.60955671760448 8.479850939048884 1.5221408364918652 1.8010479942887563 -0.20491692195448577 1.3359863402547312
Ni -0.01673636266434676 1.996378136633696 3.2686307749260135 0.029438616976091236 -0.4249573298139714 0.20300993473976003
Ni 4.876821406065439 6.919282730609601 11.422101055190769 -1.5880614079522586 -0.8673058585211966 1.6013092741011001
Ni 4.670160364395267 3.3504073159166223 7.3663553523870196 0.38178825062566507 -1.3814223611003436 0.11596472299379383
Ni 8.277798216169758 0.2603747044831246 0.33276191325670074 -0.35075863501337007 0.5213292182775021 -1.1912751412558646
Ni 3.543571896443159 0.7161562040736029 8.502878454637138 0.9654718627706729 0.6488554208566502 -1.0067054154991628
Ni 7.1959038705862115 5.789221598802732 11.390231386582057 -2.250869691444575 1.3695958007790605 0.4953723892024242
Ni 1.2801365238004216 0.7570041165835681 8.577153103143667 -1.1261025612132733 -1.4594571418175832 0.8340347551728927
Ni 4.334194214814201 4.871715651641143 10.256607489371763 -0.45800397585629504 -0.11540139429115609 -0.9279093311358665
P 0.7387444746121199 3.96003814840876 3.8312736497898503 0.3569737626851465 1.003390235083001 0.6318059215735312
P 2.466529894678291 5.806012397819398 10.237292908434707 -1.907030409258858 -0.2627945109975603 -0.6359847355415692
P 4.232520248493616 2.4158947014446936 9.711780318640646 0.7332089447030663 0.649590499250462 0.8414906972303056
P 0.8295189692177516 7.787251597161936 12.254712572354853 0.4393359671331466 -0.22073434860271662 -0.5212330590192701
P 4.793881053404586 8.696554549163903 2.6568647234420975 0.004121735477857417 0.1809490982849787 -0.4062767226853326
P 2.7282561223913766 2.716364595083319 13.512846485683076 -0.7236881496968247 -1.1635234250638928 -1.5750523972871002
P 2.2674148577087325 2.563426601804085 7.565881477672358 0.02772471960877806 0.45806876765595944 0.7134376756134101
P 3.745774788570058 8.463754672803171 7.163711338094786 0.691735250939312 -0.5424562300641045 -1.2728901831251949
Ni 6.481661385863921 4.979921980239872 2.316069693987318 0.32773286354215814 1.8073217431126098 1.971963619597133
Ni 9.384414174168002 5.1437754007166365 2.130609734429356 0.059360344236188085 0.10059749650910417 0.7865567641965873
Ni 7.649217901724213 7.278900536714979 7.479848577065172 -0.704727806544238 -0.13134017700859962 0.6171377780383953
Ni 9.606420635845021 2.186680115874552 7.211322498101347 -1.6828260998296696 1.1462908632356903 -0.604592594383533
Ni 8.999464693078846 2.50895270717428 10.185711648940137 -0.5097991061507156 -1.3577113906366487 0.17180419856091703
Ni 9.35965501944136 5.633655643687463 7.790738339383675 -0.1823727181053827 0.6754953920416817 -0.12774783167165096
Ni 2.455445527077016 2.5719393210372408 4.23216641220355 -0.45994155919864016 -0.2921128003457034 -0.4342732078982585
Ni 1.3403543921575598 3.9078261780735413 11.513024780486374 0.057651074854565235 0.08939597136632992 0.1629531759281903
Ni 7.277455157705161 1.9026255981331577 8.31318747652316 -0.24916277914673865 0.12579764992381562 0.16616654065916542
Ni 5.105106819414984 0.5814515731474568 0.7805741185794037 0.5169634851096386 -1.038904883049843 0.6341101442266757
Ni 6.985742008327322 0.438311184727639 2.40520734379222 0.4128993702081728 -0.04345241475668 -0.2714709557256357
Ni 6.937659692305873 2.7387398130015574 3.340926943593127 0.17855642968308602 -1.0788009479138323 2.235581654937253
Ni 8.325608350429619 7.5844104857320005 3.4266163320460317 0.417480561820952 0.28665640521682245 -1.819824760675627
Ni 3.9731216441210178 0.07156409358421804 10.656689337847485 0.4790913926542137 -0.9637458812185016 0.37516097511713453
Ni 6.307502600758707 7.2090999932343 2.170679582524295 1.0008343014303664 1.509821196092432 -0.06841525534960476
Ni 4.713052455790548 1.164600058794753 3.639893267638421 -0.6339293956744373 1.0487167269339424 0.7507227852171136
Ni 6.322087788948699 8.362099477638557 10.481257868367393 -0.08532797194454336 1.0924828162762992 1.514855930302862
Ni -0.10021544750158647 5.808208623068083 12.596097954664943 0.2747671099784042 0.5933568735687136 0.3603704470715213
Ni 6.11142849105656 5.011401208804374 7.896401176348242 1.0540872472172365 0.8322558088955988 0.48173500092464777
Ni 0.7787411151987694 7.1344189492009855 0.7810274419961197 1.6296613428812319 0.41952150351038076 -0.16144368126219938
Ni 2.299175653612809 1.6754664541419146 10.842973351152605 1.2583107426491233 2.3652562713179717 0.12361606889146455
Ni 1.1488886012464599 7.490132354864254 9.296339910348896 0.44951470743836136 -0.30029585037712797 -0.5252696909824889
Ni 3.401981066948803 8.45052100784314 4.846171862594886 -0.12478669216079799 1.860201621830777 1.198481943416949
Ni 1.032648217891853 3.8749109560772066 9.001480715230205 0.7884799493612292 0.09717098732605846 0.05319329619352774
P 8.233685999636318 0.4857130463451151 4.5599943271130945 2.6300387592798384 0.6364524192066072 -1.7244774568218688
P 8.4421303011238 0.14536852463365568 9.126279807150096 -0.21393583762364446 1.1153916025536728 0.49805764934407126
P 2.1396771413214744 0.9642179687971064 2.7202183134043048 0.2722055198988151 -0.40459187878374187 1.474768575363673
P 8.013322014106821 2.2965476917767744 1.5017009247543067 1.9929474209376516 -1.0160580603586564 -1.269688902579078
P 7.960819090854042 3.669404340499292 7.053418595509806 0.3166089857148547 2.960662571216546 1.40400153195244
P 4.824994244427641 3.2550967714704346 2.9068730570398644 -1.3263678433283608 0.7430467567290945 0.6202549835111383
P 6.4946885681082644 0.35898146391793845 12.710318561636996 0.24958366873424115 0.04938729218387623 -0.8325311740441727
P 8.222723644548859 6.612909308417883 0.93604246368362 -2.591655017295317 0.040944817843477865 0.45664437650460715
