# total energy = -340867.74154937995 ev
CRYSTAL
PRIMVEC
9.26840332239388 0.00000000000000 0.00000000000000

0.00000000000000 9.26840332239388 0.00000000000000

0.00000000000000 0.00000000000000 13.56524512688651

PRIMCOORD
 96 1
Ni 2.0112064500701456 2.832275764706425 11.167303614967198 -1.090652962156412 -0.6244068008959828 0.5895410993670491
Ni 3.410040223397012 8.982871633407226 9.398463131584913 -2.439160831916922 -0.518341596404088 0.5671295644410684
Ni 7.279385442460655 2.787648402648655 7.907425428201328 -0.6271655945880424 -0.2864959683795582 0.145819087351065
Ni -0.244273404094194 3.757670227280867 4.696328701867951 2.329201177466627 -0.28397165929580775 0.9147830781665535
Ni 5.90545586889479 3.198757700973562 12.218948560408952 -1.2358534420868716 1.1362854152835462 -5.628947518461778
Ni 4.388190437753972 4.937927244759679 0.39687951868476234 0.664896533479913 0.6762404977378225 -0.33282827578719454
Ni 9.264872073276322 8.9926776041356 6.149925763139685 -0.11897574190597575 0.9864314957414754 -1.8760185342583755
Ni 2.6893106432648684 8.230722165969613 6.353146628342398 -0.20252425335259316 -0.13205828612154677 0.08379430890883634
Ni 1.5256255309489406 3.8022697841286313 6.228522750260368 1.1425833324771162 0.09585818205190588 0.4999168140399971
Ni 7.764502941415112 6.800431431723936 5.7532371735636225 -0.7483535136539886 0.1706060644877578 -0.7228461134115034
Ni 9.373228976665187 8.812333012044203 12.33445696381106 -1.9603640876849917 1.6232585246786817 0.8452532495965314
Ni -0.07403507899922263 4.686670098752604 0.44295553218378403 2.744591946638086 -0.21962646025051852 1.3532464128867596
Ni 8.94570533603409 7.248985079522028 0.8678525073097574 -0.30289446434223966 0.28334636700698296 1.435828960875682
Ni 6.200394999819472 3.965875639797115 2.0259283819273755 -2.199222656692245 0.9929998929876123 1.7357594574935913
Ni 2.251304438461946 8.778744318358356 11.837629764083232 0.6365794317027746 -1.9432791071782465 0.1330777285249966
Ni 4.683991530188804 0.5472723385589453 -0.07302296935504644 -0.1461934399713482 0.500338474958448 0.2162086928182212
Ni 3.97021325255787 7.51076186331427 1.3115949269366785 0.4413979918684979 -0.8071543858422808 -1.1240616195238449
Ni 6.735534071572638 0.9880766743286881 12.089183498997027 0.34191506857981113 -0.9839902332898345 1.3475660746725306
Ni 6.987949767996583 7.062958956186309 9.585365119035785 -0.05150099609276937 0.2716668737865257 0.8403362719108882
Ni 0.7248308486078577 7.268476531735422 3.557865695547415 -0.9813761927057549 -0.6075113106922247 -0.6600988549809536
Ni 8.014304948098601 -0.22997689195003837 10.344584524537298 -0.29925121116269754 0.48203402022230535 0.10107752146931623
Ni 3.5264142956706057 5.790036442164697 6.375909826933029 -0.6175170157546848 -0.08766407627688773 0.3840071126538548
Ni 2.3847972516951863 -0.14491982770489684 1.9052926978003728 -0.12271618278501445 2.2958493414790593 2.5521417896920435
Ni 3.4962456428153534 2.109284694160554 9.462857217435124 2.53350000622114 1.1242683362180121 1.3110306987506584
P 1.5638484263022616 8.934787156905521 4.407985893596751 0.4977552876123041 1.3284869465538929 0.1724649720733675
P 8.194399293299956 1.1138211023739133 0.25835303560031186 0.014561956974574922 -0.5900802596999709 0.1154903544605366
P 9.051810017412562 2.255262046685968 6.55421073608907 -0.12022118427730263 0.4244554504768883 -0.43142159738207636
P 0.393006252931088 1.4247296922447081 10.329459417134998 -0.4241723720188308 -0.029206960581259378 0.4448268150443887
P 4.32126329727232 1.989082771309627 5.800377199765496 0.7307625400451027 0.4444920574127893 0.6444994578807997
P 2.02787103926638 4.574744860079784 12.69236191963204 0.34937820972607575 -0.32425158986177705 0.32900273139351727
P 8.224280625651824 4.692805781760338 12.192496537291012 -2.1888189448604174 -0.15783179554122495 -1.3916208988999
P 4.127859524881982 5.431330696295579 3.1986983831922178 -0.4927832883190094 -0.8562902241369834 -0.6339265674609598
Ni 1.577083706264566 2.012902567880441 8.470762690260736 -1.1401441269080044 -1.1358064187645989 -1.5998897680457542
Ni 6.045733153369212 5.589264289123076 11.396095078130697 0.832047806649851 -0.42601842408863405 0.6450386182137213
Ni 7.284501601101545 3.197469392910004 0.20233202532289213 2.2918278790244915 -0.5970875442557394 2.084625503469939
Ni 3.885685414143154 4.1823484680881355 11.116094759701282 0.6493560146421526 0.6078872059744047 -0.6087346415763645
Ni 4.4813100860601836 2.1496485906842477 2.3134444486210977 -1.3593442982543815 -1.2842765705852657 0.8624385031265662
Ni 8.425562540876866 0.8567962289714992 8.247899297870271 1.0668183216306595 -0.9624765275877747 -0.08217117148311655
Ni 8.098137656263196 2.925923712002729 2.7596726540224514 1.3518086519989685 -1.019238257858851 -0.7196651445803607
Ni 1.6549012206647804 1.9817514642716842 3.4189165732708906 0.6984113774079069 0.023284938669869575 -0.1514246064633005
Ni 0.0016136290206142617 3.4895816608175263 9.30202817540579 -0.8152561890138089 -2.7228180452961044 3.058269360528443
Ni 1.7278435549108129 5.613890436784029 10.72107448272551 0.7242144545139398 -0.14291014123438614 -1.7619209463803076
Ni 2.292372733639096 1.2853514428937762 13.316688982996732 0.2615966340347172 -0.0006656586084569182 -0.004868898056527098
Ni 7.621593430393566 5.07677719512052 8.5519242445842 -1.9285873094940273 -0.12008131626532867 0.5530915982907636
Ni 1.9485891171392442 5.233969315681219 4.112249679985265 -0.04798938339508509 -0.20949837067758112 0.21159639085719045
Ni 2.251109801991912 6.630068910024277 8.247940078844945 -0.08107048221977005 2.276347009780073 0.719182291406671
Ni 6.271845121128578 1.963427830878494 4.1541799366725645 -0.8017152171045806 0.4039380472498269 1.1443332252886873
Ni 4.5388761391735395 0.6711352807271762 7.735255567851353 0.2877000159899884 1.9348831698050677 -2.3759636304331466
Ni 6.984807779266037 5.560485896768066 0.5240160609108965 -0.4634521434550599 1.561091307121318 -1.2798483596105827
Ni 4.66275761814844 3.497728587348945 7.493821075698653 -0.44118227631326595 0.18985539963567302 -0.37373632685546604
Ni 8.940941376719927 1.1065917477726546 4.226509629458157 -0.5053143309064846 1.0054877410419782 1.6092953776303702
Ni 3.457142249145212 3.234496664233117 4.186614714143212 0.2286461472506256 0.5667382425399207 0.8055240493277096
Ni 5.182075525408853 5.539381742374392 9.150219143502028 -1.0397168374281769 -1.220286183776234 1.459152723203287
Ni 0.7875315971687737 2.153652540924945 1.2936197855088825 -1.3144857471787943 -0.35158370201782674 -0.5074642873699519
Ni 8.806994411723274 0.15528931735603546 2.1882505637339684 -0.12390043290110274 -1.017702280830299 -0.9344108796998102
Ni 3.792278445333559 0.26443959607037154 4.643559974320764 -0.3415443155039537 1.1508365736248438 0.7672652629568271
P 5.3176166557791165 6.735320898295934 13.09046116019568 -0.6610879583671002 1.062390367766293 0.8289272587429982
P 7.184792118024186 4.387745554393895 4.113837357476541 -2.4095540647940825 0.1297851738166539 -0.28824688963239387
P 3.7198458732709483 0.7998641346462542 11.483047530857835 1.6494981751015012 2.590134981106365 -0.8033537811492681
P 3.6570895142900226 6.967698306709724 9.930017184928122 -1.0827666174297998 -2.1627333035169594 -0.051564502340853136
P 7.788990063026042 7.3387217606109845 3.0296751457744584 1.1170396796800568 0.7001088197149878 -1.2933026853432759
P 9.074461995163173 6.302745977847291 9.635651768169874 0.40878663359137984 0.3406565135823617 1.0947495008232888
P 1.548768734076303 8.251214605743181 0.3397398121248144 0.02982273978838735 -1.4150076532549565 -1.7572870471527218
P 6.584375681582989 8.722512915325233 8.339858542078947 1.4453574691914075 1.5015633269590138 -0.6321728179946468
Ni 0.5296308596512073 4.980598973713776 8.051542612177418 0.9044261604122618 3.098556490183264 -3.216921080867802
Ni 5.574703627483873 0.5168024625953073 9.908692442535076 0.7392996309818365 1.5916108158664137 0.4806487098390045
Ni -0.04992610824435867 2.708403554134859 12.619612368175373 0.921690346809348 -1.0005800193277155 -1.9137600146732074
Ni 2.907062511216112 6.633609440098226 12.656970521497543 0.5632114603335849 -0.144807358257099 0.5119737452045312
Ni 1.053947216830156 8.179115696200627 10.090819348587782 -1.2672664091805144 -0.504913238813324 -1.5452597394057
Ni 6.553456288057606 8.390361145010738 1.0075532970967456 0.38229681483096745 -0.20586874434479385 -0.49512916284336667
Ni 4.788270336110292 8.054742991848975 11.248505023425 0.9125747576613251 -0.20829972238378966 2.0068396055387114
Ni 2.170437619364534 5.623436892219026 1.4711912713224637 -0.4890171364083578 0.11937272023407829 0.514692686797591
Ni 2.8718055049299736 3.277159124783878 0.990907244707181 -1.0524530540479229 -0.0091883513674874 -0.16462233610049712
Ni 8.364798888612954 5.396527841772855 2.533391074482056 0.15503494952237817 -0.4151208033395238 0.6769884316474405
Ni 6.598296823392079 0.5917143325500158 6.446312618665286 0.3903903904723793 -0.03163125375203585 -0.28889120808461216
Ni 0.24670914049061807 6.458455153874399 12.382871395471492 0.08227015895482606 -0.19344028877345396 -1.1318124671138572
Ni 7.21303294298577 8.811313487677358 4.349125971377838 -0.26868182301627275 0.6924042519818785 0.7589140627786544
Ni 7.411441653176978 2.2676075599281176 10.248000347064481 0.10889624618278666 0.03957416274819636 0.3674083277549091
Ni 4.867329816557389 7.646794219061285 7.807869800619329 -1.0365099004551053 -1.391024917187114 -0.38008618033289376
Ni 7.084415309906711 7.803800971555288 12.317880424446509 0.41111913837929837 -0.44186824663669705 -0.6255954218874451
Ni 1.7337104542218342 1.4021425933174425 5.7858619533026365 0.9803456945587116 0.16175761295819238 0.6149811367067086
Ni 8.917149385359117 7.522375172692958 7.706931327259756 -0.2565017360103131 -1.6573768065186294 2.197944304200454
Ni 7.196739089922932 4.353443193651256 6.32139029799587 0.47010204467140976 0.4731503445794304 -1.312677747435778
Ni 5.67506189879468 7.637850209843062 2.9866058023172934 0.8603260847692539 -3.28876104562824 0.6388831401352867
Ni 5.12905098992962 4.783274666712755 5.108996945633796 1.1442188111980098 -0.38701581757319153 -1.025438473132292
Ni 5.122488960368479 7.484300571792996 5.251527378958944 0.7904545565890967 -0.3068511349971425 1.7962454306937903
Ni 3.3435765030821076 7.297273460897102 3.8114946259679043 -1.392222279929325 0.420401849232805 -0.3029759683124524
Ni 6.5672754774300115 1.46021840861422 1.85019111313378 0.6226880184326631 -1.633112020433994 -0.9486635329640822
P 5.56588937591234 3.1724354355023126 9.472121913408738 -0.2877460387365754 0.18856599140028815 1.3148922385885935
P 5.08914124516934 2.831117214289556 0.387769605046843 -1.9934711546516057 -1.1283970136744053 2.0061459219057967
P 4.547560633098384 9.201884004212022 2.7742963408043306 -0.7774087791487321 2.4867452665641046 -2.917976088091613
P 0.49694027424851595 6.010448341873069 5.903594773505133 0.4932273178349635 -0.784938511866874 -0.22569606348336615
P 5.749320346314275 5.664171524876116 7.194545258853551 0.3252638331763753 0.6202318435826867 -2.193108059154075
P 2.5845220751599585 4.587637209118696 8.255455827109252 1.317948508916414 -2.563734893846281 -0.6023696185902851
P 0.8966132896984312 3.955022339491892 2.536293938406562 0.8703145634405334 0.24392621333814762 0.325025234803008
P 1.3485619536381142 8.97706961291955 7.948012693245394 0.8319534471638317 0.5193769796471378 0.500904117653931
