# total energy = -381170.6984161748 ev
CRYSTAL
PRIMVEC
9.25274073763011 0.00000000000000 0.00000000000000

0.00000000000000 9.25274073763011 0.00000000000000

0.00000000000000 0.00000000000000 13.54232135089004

PRIMCOORD
 96 1
Ni 6.25124417671175 5.48528379211627 11.0549488787574 -0.37015915102716895 1.0751774922286321 -0.7903648250887678
Ni 2.1749029765056473 8.528537982334036 0.7968423321157846 -0.9405087650674319 0.5304913443927445 0.3324143281782275
Ni 5.929961259721234 2.7790606836420038 5.815289267809863 -0.06539498046604221 0.3485914521587223 0.19347962665182164
Ni 3.3329389975540864 2.633302258639798 4.9707906944718445 0.21406053612696685 -0.9248900846935684 -0.33221326791101496
Ni 0.46758262732647526 3.9718222407174393 0.029583787993369665 -2.4694448276124437 1.9745619764519284 0.6307363426584364
Ni 8.028843718241855 2.5606312328055236 0.8241258887592179 0.7631255297568406 -1.0173055596125125 -0.17103492449506025
Ni 0.5526504752148317 7.875720111604294 5.417253941041159 -0.7338427216323232 -1.0341506561943092 -0.7153639461018455
Ni 4.474597667478681 1.9511346942576093 9.5834540582949 -0.7862320338673169 0.43919584201085654 -0.8657634537347413
Ni 5.722709119708259 1.8767334059034715 3.704149703620454 0.3181462482949876 0.2195470131628348 -1.6091256848217255
Ni 1.8656301170059504 4.9586640524476016 1.8076968566349856 1.1796807515500456 1.0546837431506546 -0.6090511443755189
Ni 8.415802589061206 4.819521337080168 10.635678511972188 0.968597552883848 0.08707940741801132 -0.7522181388157174
Ni 0.5950197003736967 4.616238622848057 8.296405222449865 -0.5637565342037775 0.7444328384433437 0.47971411383987705
Ni 4.688215693126236 7.074293971721983 4.618974658287221 1.213644252979684 1.8196972339588273 1.1337796181425572
Ni 3.2808645726247128 0.7022598909163276 12.68975087232464 0.7799474864101857 -0.5697955413090058 -0.23447843766168647
Ni 2.319227226691923 4.72828006056479 12.80576821274076 1.7723897071221153 1.0296957057467493 -0.8357859335360445
Ni 1.6157598531079904 6.892671923580784 7.4203659064502885 1.146902271567444 0.0741668131214013 -0.7176432290543254
Ni 3.032595032876146 8.83007555056846 8.629709300220096 -0.16748037437458255 0.6277836877880155 0.7772136324187905
Ni 6.62777520870818 3.278893738845403 10.192736858531536 -0.7690521796539206 -0.2891434333047343 -0.4479548191504092
Ni 5.787552326869782 5.9684434084918925 1.9443256023412046 -0.9432423619485111 0.4438580233732162 0.006137737466621687
Ni 8.254888174713885 2.71637336507475 3.1750104426461228 0.003898820833773931 0.4633269307311053 -1.6385753575414101
Ni 8.623100992777921 4.954666868444494 2.226425012812369 -0.7778535799956345 -0.5678186200882931 -1.7298513195392724
Ni 7.411722921317644 1.8523986977364044 7.578526705151025 -0.1673291935086989 0.7942839576375159 0.3434093937371505
Ni 4.125889626911289 8.224196833652988 2.3864687442553096 -0.6481457963841354 -0.7309844262479218 -0.7618734025172944
Ni 5.145134536740716 7.76479825551806 9.536584300036237 -1.2935358844000047 -0.9481156308804122 -1.9958363124496723
P 5.403295256348827 1.1472843362993395 7.706122925339111 -0.9434629625997493 -0.1179591277160033 -0.40402160810256865
Ni 2.2150136076479416 0.22185389018729046 6.17233310251707 -0.5806533099591161 -0.47647015298128265 -0.07285452206788097
P 6.714473389516322 5.09908364603825 8.784619611096083 0.1630195103897515 0.587509156538685 1.9076256196406953
Ni 3.247156838079989 1.9625248181183164 7.285010337870985 1.4916373260945537 0.1715846263509432 0.5037541855082163
P 1.2227867008024815 0.6669495816740615 8.123185588181867 -0.7782618711776467 1.1042348146059047 -0.14054549765695148
P 0.9259680303495039 0.5045843375774637 2.31825568891339 0.204123479518913 0.2949803517014855 -0.353607674426391
P 7.914757424819829 5.629469251191328 13.466051194705935 0.18320369864711028 0.9386927949046157 1.5052742001516979
Ni 8.809219872922617 2.4790498176309885 9.472556259334608 0.48286320099182006 -0.07692534970314494 -0.7310433045103152
Ni 9.060690860969968 9.216220180201994 13.326430112641832 0.6030172794766131 0.0009502797284112665 0.730187127157607
Ni 0.7575542696259817 5.958163613520938 3.699992447202407 0.6204455022553895 1.6432923034011053 0.44921440258912315
Ni 4.3285246492910465 7.849562613509885 13.387573148778255 1.248608941980327 2.196151216855773 0.23113240400758903
Ni 4.991085656028363 5.946403380030313 7.713760137552455 -0.7171140960237328 1.5452209157479646 1.266299931502187
Ni 4.1535090580438725 3.5167909562155364 2.7736163709859194 -0.8949305622170006 -0.15780968405403792 -0.0449343986188452
Ni 2.067395381755401 2.8555993551089145 9.152821325871225 -0.5703691544242887 -0.27813062713399844 -2.0412545926834715
Ni 3.830523636755738 6.408864615352806 11.765514955043146 -1.2147346578303855 0.10087543276083918 -2.326933721588689
Ni 6.1152751514208585 4.494315258012529 3.693235170634191 -1.3825377056517092 -2.5100530880521092 0.6214104372718201
Ni 3.3829037975929306 2.868442159267047 0.385796726581411 0.45605250855687907 -0.15565972759057062 0.9186911549717082
Ni 0.5634993137417843 7.441664790377958 9.384639492569963 2.74064016107919 -0.4353828960226695 0.8072628863956871
Ni 6.663407513328474 8.539067601305184 7.583104035999027 -1.0093490237695972 -0.652651911784605 0.14541696681663988
Ni 2.9796693557979625 4.708183107660278 7.347752247608652 -1.7892515158744606 -0.2121985432175636 1.98445069632055
Ni 2.7034102752868945 2.439697911230025 11.235752984616482 2.2101611579816196 0.6882020409750729 1.2215370254641993
Ni 5.335898292740874 1.9558535920390558 11.88954887004328 -1.3864316413894768 1.5394881270292455 0.37306835425416396
Ni 1.9573062723364814 8.37032536828511 11.582842720827058 1.2405228225380829 -2.609677422014667 1.1413551164969697
Ni 6.261329664126998 0.43216128519523395 5.583580283451949 -0.018674436481051708 -0.10425334809413657 -0.5284041228464126
Ni 6.117199721496429 7.835008052313384 11.476968234818825 -0.011970027877682612 0.4795325939566903 2.370998316008072
Ni 6.157153056046008 8.668050807331387 3.2757385542503576 0.7712617857107298 -0.3681341501773402 -0.2450703542449199
Ni 4.381348546221002 4.551275130056811 5.737055494237931 1.0473548135894093 0.9237541713169123 -1.8189575275793255
Ni 0.95263442918505 1.7245073151184596 4.604659743076092 -0.06464987476990157 -1.046227127742869 -0.8144581185925456
Ni 5.260664257719422 5.683505257159262 13.283785155808681 1.1583513939446501 -1.3500225066328233 0.4017392398262952
Ni 7.664387512921479 7.3819105906277995 9.624974807127177 -3.48900087382203 -3.3936191171859105 1.1069031054666871
Ni 8.30394620615943 4.621170333666705 4.908888008320016 -0.2142744519099858 -0.45093524193497175 -1.2145330833425405
Ni 0.6482460915261874 6.751345561396839 13.403445300257264 1.383332947859495 -0.6327405175726586 1.5182585282265078
P 4.384827576742225 3.8475209215096924 12.283833135712769 0.5719616957223892 1.1666056635336426 0.16686305250555777
Ni 7.235745045032685 6.256897601308737 3.629654037310687 1.9017218525617507 3.9225307757963606 0.9332965635897087
P 2.5420609821244198 6.790901028094257 5.332275844738057 -0.19969346877201738 0.005637400791435453 -0.35278312164256664
Ni 1.1450636785198354 2.991374072844099 6.607203590203298 0.016112332180830316 -1.4180333274551578 0.5027887362711535
P 1.030403715171436 3.6734491098188085 10.861144672147471 -0.2510777367812644 1.2820147711342824 -0.09840820216726923
P 3.083882974841944 6.684568531418999 9.026146678661632 0.32231426362974813 -1.3319188550535772 0.886669350649473
P 7.4791754013700835 7.859250233072971 5.437661786034803 0.98308597630801 0.6964180011269618 -0.7672529216616528
Ni 8.372453498657137 6.974401382607287 11.838304415958996 -0.5888183622684118 0.9201263447563379 -0.895675153692509
Ni 5.078829396541022 3.679306094712251 7.981410468071647 0.5839139829882589 -1.1570797263210784 0.06323036871455562
Ni 1.3331626451845873 2.0118881900085444 13.060932894894687 -0.06549448215838398 -1.5302704650857195 0.6943693461280492
Ni 1.3894378144135224 6.056631280560452 11.061070492036233 0.2909462908414279 -0.6091326483457316 -0.43023837570725254
Ni 7.46727637676824 4.337925433890947 7.017386840299964 0.8390142106653551 -0.8977700885483249 0.7187518887374718
Ni 6.469923451548424 0.8284089824514366 10.167940438601148 1.6583954775911312 -1.0301255941953162 -0.9631285593494768
Ni 4.959034162077519 1.074622563205813 0.89020063571429 0.5663358648951795 -0.9620957472095882 0.8960068260003149
Ni 4.1337174455840415 0.26867183309776216 4.491378438099135 -0.3044481819826047 -0.029549945742974915 0.495074141235715
Ni 8.697705841428515 2.624974791966657 11.897593202849533 -0.4455932608967681 -1.709203304271618 -0.8915197367632388
Ni 1.2296707399189444 2.7183071878910683 1.8017519707044378 -0.41500330392505297 -1.537596309323171 0.5992979216434968
Ni 3.6579877800290106 5.653526377135956 3.5225470862348263 -2.0275796662995402 -1.3326667889631951 -1.6841972691455835
Ni 0.9639505311197734 5.081605218765402 5.928015408341944 1.0331949771492595 1.7239087288025925 0.15443151161042437
Ni 4.419534607287726 8.247356443745067 6.7556813957113215 -0.291656172424259 0.36907543104468693 -0.12870016828259126
Ni 6.409243977723473 6.185068574882525 6.018668210545754 0.13162145569444428 -0.5380015367268606 -0.7974073337578461
Ni 7.0974998455178016 3.898549786734549 12.666404356869451 -2.059062824509486 0.18052332360146972 0.19355290309191825
Ni 6.875693144308326 7.8619890443343605 0.5260173862459782 -0.06547699865688725 -1.1402086615973526 0.41819275739662815
Ni 3.171941308540033 1.375188593661704 2.5359217886381655 -0.5702868791231276 -0.5527175027807965 0.2985457004552407
Ni 1.6631801494411524 3.818994721783812 3.8830708767373303 -0.05231989244963892 0.3003022781350312 0.21428087966788903
Ni 2.0790908460607898 8.544424938198238 3.6807893090541444 -0.027929379420416414 -0.2403043003148442 0.1733005806007854
Ni 4.180795390509531 4.602146698688953 10.267679432219428 -0.6918918311218343 -0.5242289084228003 -1.2031017015771475
Ni 8.683965521417832 0.4746137850208303 6.200717735309506 0.4982150008575419 0.4038156627393497 0.41028892916851917
Ni 8.45032456479175 6.83294548205287 7.357502785808824 -0.19907640401330876 -0.5694965220113483 -0.49093749335952225
Ni 0.9734623486086496 0.8290992369112324 10.930684570512645 -1.4795443994857616 1.4510959143370814 -1.517297192754503
Ni 8.331741439366226 0.3140741066737999 3.606171506566505 0.5028686975794694 -0.1324298105283526 0.3727981313119128
Ni 5.878127406051307 3.2407261832601746 1.2331516209883175 -0.3220694946087937 0.6692918343341312 0.012789181344868297
P 8.048459528627475 2.4786519497788273 5.152392386583396 -0.07180114110270215 -1.0767150119190811 2.69582094788197
Ni 6.671697969038623 0.5236958735923215 12.823291978443272 1.2978093149643777 0.49504405932872814 0.5590483300948307
P 3.18691224307019 6.5601376738407815 0.9685981827974608 -0.45557582603077673 -1.0631910092907173 0.9374578940562499
Ni 8.80410310728901 7.681884445675823 2.0633084461670386 0.4806276267930819 0.09627264388150517 0.054533612271506084
P 7.243415567112722 0.733560062318439 1.6356005050937852 -1.1311375525340197 -1.010987844924601 -0.010389827874756301
P 4.378156350662964 0.12653863192059703 10.738357101326088 -0.7441659579352022 -0.26621510664333503 1.1566230983996337
P 8.238714383886496 0.049723303505323 11.331185752690674 -0.3701450099597819 -0.5015078126762008 -0.8591678027950944
Ni 8.455487594129096 9.063253870157146 8.754798952939568 2.54836381070685 4.648795942191741 -0.6755203317423463
