# total energy = -340888.8552375023 ev
CRYSTAL
PRIMVEC
9.09882431857447 0.00000000000000 0.00000000000000
0.00000000000000 9.09882431857447 0.00000000000000
0.00000000000000 0.00000000000000 13.31704911349384
PRIMCOORD
 96 1
Ni 6.620786772981818 1.8242141780881158 11.296186685607312 0.31255949823582946 0.7851051193517253 -0.6420404548173458
Ni 4.766009644187189 0.3920000964017041 6.147989117105915 -0.2046626398518346 -0.18736348645175474 -0.4459527011187159
Ni 3.245869074214865 1.8235863592138228 4.942222934199915 -1.344255265131743 -0.6611062131995453 -1.0329280966411178
Ni 3.5276869581781902 4.836125183974145 4.601067067791659 0.38591564253047733 -0.9165221723448473 0.2009365971504991
Ni 3.8168657909719914 2.584666613693413 2.4971996160328875 -0.6468077942990023 0.22128070802448987 -0.8190894467169699
Ni 4.946075376393764 4.670999721210886 2.3748695633181574 0.29859429430498896 0.6772995351299561 0.5393871042204774
Ni 5.307416984434171 4.499341302625276 11.19321984081117 0.9490273440614042 -0.16648818566464232 -0.11264285770941244
Ni 5.639178314788699 7.577136895014984 12.401076023650866 1.2979232148344229 0.38755472079579706 0.5632132601057978
Ni 1.8171079963370629 6.5481235624006295 0.254758890481308 0.2830463192680609 1.0098820134549318 0.14706170150891446
Ni 2.864118803347809 1.7775463084323544 0.09432751115642003 0.8228537988554087 -0.08105325582858945 0.9673472254165147
Ni 7.904548987370788 9.087514426550845 6.750079246024212 0.808298269638737 -0.449916056641838 -0.0783620821496715
Ni 8.8483427319181 2.6848628665008305 1.3444222559996217 -0.10064326214537506 0.1056394298083858 -1.0208233429577838
Ni 6.781280934194134 0.929808851651834 4.7825121817568235 -1.3643831462298694 -0.2959303743195807 0.26313646771801136
Ni 1.1323486797932356 7.718578118216156 2.394112666756444 -1.795825312437236 1.0382160845129347 -0.5511205906073219
Ni 8.025372274787216 4.112795951370507 3.53951179019313 -1.563145104326553 -0.08685392167076654 0.5930825368614043
Ni 7.636934368085303 3.7447758063195065 12.555353868125257 0.4380247045208908 0.1584961685981012 0.27873072261184256
Ni 8.412099602527286 7.499114476941646 9.061479050798651 0.2828524580897 -0.8067736054640944 -0.16939147535436633
Ni 7.045756459108157 1.0364834673360115 0.28498791433729087 -0.11100172256156365 -0.5021629297616965 0.2067012675484182
Ni 1.8986061652796744 6.631350507953613 9.165871681357139 0.26343780100851405 0.04671025957234536 -0.4002117474381753
Ni 0.20305846112451295 5.1455579995820875 1.436057425055995 0.4954988874779595 -0.9831481970045134 0.44634890811587
Ni 6.478617643839437 2.082247735422438 7.089490867820846 0.3877321269139258 0.25994367181232647 -0.8804657929419223
Ni 3.1770728639463495 4.384905389842958 0.2900268432153101 0.10377538001645353 -0.04189304068936011 0.9513153687646327
Ni 6.326294226817191 5.9305499642303925 4.531937840555041 -1.0648727678685146 -1.1324920096793851 0.12747992272224498
Ni 5.470931955302506 3.194751879493463 8.98923438613366 1.136998896410803 -0.6800626996973901 0.3642970358194371
P 0.15064013453320055 5.3372975233208 12.563543719846285 1.237971773981455 0.12182658109120953 -0.8817881112977718
P 4.236940309643701 5.871143740603474 12.415711482481298 -2.6379407877357344 0.9534717529860032 0.36317937727522615
P 2.484588645601442 8.90420951290589 1.1028457421136086 -0.21576054953720905 -0.20305955703077289 -0.08451036113925445
P 6.279125921826848 7.905768229822314 5.653100425796747 0.3590249887872204 0.5877130450193749 0.45707992138012893
P 4.937877335730898 1.112376760531314 12.520516289778994 0.21076361054324994 0.9205163811059051 -0.45148520090117084
P 4.141702916060769 6.152652264541786 8.180250641663106 -1.1612215164035937 2.7847960296607974 0.3809009629247053
P 4.7795850899907375 0.9854663596815264 3.580741292585634 1.1255271483257778 1.6798747305108293 0.5175957193769989
P 0.31933051664353107 6.105156401877899 3.5995585710483127 -0.303137176480665 -1.4800205677912317 -0.20776159049213253
Ni 0.9006180036445004 9.180895659983692 4.527104545105414 -0.40384574464633677 -0.49320160680335057 -0.3104640491593814
Ni 2.1285698497561247 6.722775494169462 4.6520850853285705 -0.5246791085863416 1.5685567622604277 1.0571214060578698
Ni 5.924535641391154 5.772976525607176 9.119901691522513 2.4866725043446403 -0.36736461900116735 0.9778784639651416
Ni 8.796725101862117 2.1166412911445627 10.090514220591242 0.5171977126076318 0.7321249676102682 -0.12721715597916156
Ni 2.661224121060069 5.605130514388649 6.802601299212147 -1.996982510238974 -0.8568504675158275 -0.13441521638949752
Ni 0.9828004041718484 0.24342539497668403 9.156602709078268 -0.9267801026274298 -0.6241908282304347 -0.6045445147544168
Ni 1.5700840163635268 0.871957617091823 11.634692974389568 -0.39883672146751953 0.5778973444805338 -1.2533837376611512
Ni 4.176924464791019 6.99211889006532 1.1938731097090722 0.14759520541488128 0.680424453912183 -0.45627953696602064
Ni 5.63279094015459 7.9571947845687285 8.071996470086505 -0.25633410008419727 -0.5438726507956568 -0.1639487070722402
Ni 5.1712348816582345 3.139813178580715 4.447055818868234 1.7726802417793404 -0.07123626973816764 0.7902804929050777
Ni 0.8599753754170965 7.622239766897147 6.716174297165123 -0.08459854997768655 0.14274841884554126 0.378223158982226
Ni 5.212270579093891 4.763352787501777 7.016353608495446 0.9883490244791624 0.1393936434406954 -1.4466587045013344
Ni 0.866572023009303 7.450936202457876 11.498699217275918 0.9735245578718201 -1.0580290054738035 -0.39715290600719344
Ni 5.02877459013937 9.224842981184185 10.482515226875373 -0.7485792565115496 -0.43696592423907327 -0.6871638295185456
Ni 8.119217548257586 7.486321530024898 4.564338753763106 0.7497244258595862 1.354812728932615 0.3702074877666011
Ni 7.452646781419717 6.5250307464157755 6.84669420160088 -0.6728607826323122 -0.30100393218774607 1.1719265615259238
Ni 2.380461700711496 5.807251796613855 2.5699237887366517 0.26322568499770793 -2.391802654347932 -1.4031600098877512
Ni 2.1271686308192974 5.371709276691455 11.46241037645937 1.3807968117012026 0.6310572163329647 -0.1649637786003159
Ni 1.095553034465121 3.757523259114929 4.018192745838854 1.6053829299498417 -0.3355495313730995 -0.05026789501661665
Ni 1.3124144119998096 1.4172783616552296 2.5196655230258767 0.8870958966639303 -0.40169630240350174 0.2701203552350122
Ni 1.1598544255466703 3.4020594915497835 7.940370148620109 -0.5996563334241802 0.431082983095735 0.14342076232221754
Ni 4.031243189482304 2.863108833854382 6.958544228527054 -0.7004037252475873 -1.6866711846073725 -0.4863645292768592
Ni 4.348974132820029 6.962847972404453 5.796911892718982 -0.17675871435271495 0.5657267705562707 0.1406776523594416
Ni 0.4358682578310904 0.09627102001944804 0.2474625433031144 -0.11522167418018221 0.1942285890027042 1.0545757568178806
P 0.35960737213547744 5.69755637127366 7.7227562983186955 0.19150579075490243 0.43471003832536104 1.8484030865339522
P 8.613156322313475 1.7471198400898185 7.9054797970931086 0.48972933198403396 -0.1870197299590908 0.05803494055654521
P 2.457929090504663 3.4394283628066002 10.471088923363244 -1.7713458392386332 -0.05971284247960039 -0.8047617172403883
P 4.195695339249946 6.619385554044991 3.340169288898489 0.8173824913281923 -1.0486426791628973 1.357720132387397
P 7.2878306786814715 3.928089818788725 10.235776949983762 -0.726614322204684 -0.11468302806789281 0.2074090922487202
P 6.583390605252206 7.578337939817979 10.397898890857107 -0.5632034899137848 1.081853361586911 -1.644231784496239
P 2.5971047064638215 8.678030939323726 5.751846326016306 0.5619390213790645 -0.13157491872722502 0.03542748756967447
P 7.0905590697895695 4.105307619000319 1.534004448505077 -0.3488267080979799 -0.030062109492703062 -0.10147295713552203
Ni 5.272040755691415 3.1130990305383444 0.41013223339722 0.11121075324857621 -1.6588456777546723 -0.21248804943352434
Ni 1.4278693930998205 1.300777015764731 6.5530669536238655 0.05784879268766811 0.0009590214791596385 1.6393119785971186
Ni 7.138728245449075 0.5210359825998218 9.041490753653052 -0.28898376779841844 0.24793970537291496 0.9683440421121453
Ni 2.760847147938784 1.7859900173503784 9.066220448123202 0.5982591959663374 0.17944654559752324 -0.087038783988063
Ni 6.726351332105652 2.1418268367103934 2.514471914135351 -1.1136499372722175 -0.08005875312580406 0.2672497185554365
Ni 4.119965824891415 6.70152064068616 10.475670181380728 -0.48472647945280384 1.167928238999808 -0.780393572808669
Ni 8.225464519201301 7.073080228376289 13.434771611232046 0.39654715410239444 0.39482785741844256 -0.48183964482331204
Ni 7.69453902450773 4.119556377799485 8.129219885772223 0.8555217214020749 0.16744823558506644 -1.0537779435069334
Ni 3.43216750104304 8.51063077049419 12.448137872397306 -0.31265720015595827 -0.3293153775379296 0.10807143628864613
Ni 0.4401237779398834 4.612639862374455 9.988852147194715 -0.5469798289660708 0.07657593678352619 -0.38163064200187824
Ni 8.592511090055936 2.6262482405849767 5.862697302038169 0.2330923559474373 0.5880940825078774 -0.35101471688823416
Ni 4.251070783727419 2.5132044479152205 10.842381915502406 -0.016174295767017302 -1.4487960625593115 1.464599091029839
Ni 1.4743188909732192 3.2744757777043776 12.282394599466446 -2.2746642227610114 -0.3141924058535621 0.8791771560374858
Ni 3.1250184903256417 8.842073641999438 7.884225853492233 -0.05261942596792874 -0.9029794006634062 0.4439140734221323
Ni 5.8206452659321 8.206093122340878 3.320073625626562 -0.1989563334956767 -0.8503234650305872 -0.394436792627611
Ni 3.1291402577177374 8.668841126815963 3.239292444036041 0.8317115063563546 0.18312785110385235 0.3751530046973346
Ni 3.389539509360989 4.246302999812501 8.745825369040652 -0.6708620070347284 0.48541142133497045 1.0360311610464739
Ni 7.674221349923734 5.948874996300329 11.15071104372699 0.057325316084030305 -0.7828913995298581 0.5085341233953629
Ni 8.119572402403923 9.144045421709986 2.7071167708884425 0.031067153718449717 -1.4040727515100075 -1.635607276052022
Ni 4.7395593620485075 0.5146768143209347 1.2603254628468943 0.08226810207229703 -0.8821457517475065 0.5717261826728154
Ni 5.84251883946543 5.3538846799561 0.21999774225887267 2.306572384323518 0.8897176505574935 0.6092912854107828
Ni 8.239867958012974 -0.371306640375559 11.391217535879427 -1.8845247719571738 1.7656457035300621 -0.28406576167151076
Ni 8.956691531267058 5.251286337542693 5.676165945308807 0.6217189696511745 -0.9521491775198377 -0.9772680840746523
Ni 7.505010515065439 6.301327053033722 2.3773462632831213 -1.1176271767524106 0.5859634093181199 0.03128466904589451
P 8.519702298286505 1.6659128335236906 3.8897364547464237 1.363512056478826 2.079849165127218 -0.5914419159341878
P 1.8742850080190292 3.5334829092350666 1.9491765206627425 0.04980921021264325 -0.20482641912320854 -1.1743313143126743
P 5.019957829426476 0.97482983411561 8.26790325533864 -0.8994485046920121 1.1071851554834802 0.7691642797517527
P 8.671507082325641 1.7715501832416454 12.272619732558436 0.4759960415583415 -0.7696967552164551 0.9393098596633241
P 6.663969792944041 8.064242452047775 1.1358444480758918 -0.7691352262860303 0.45472993309071363 0.7477037958851317
P 2.0419217462794594 3.456506855952216 5.973402696871792 0.6390806008580736 -0.056986958908005085 -0.38653424995108265
P 6.9057164548438115 4.083297563103012 5.84902085928528 -0.1613097267874964 0.3714786411695408 -0.9126125528777961
P 2.509692301748887 8.445737955835408 10.412174946129069 0.5773350442191605 -0.5670151503503912 -0.8685788116963493
