# total energy = -340896.998542769 ev
CRYSTAL
PRIMVEC
9.03572777390850 0.00000000000000 0.00000000000000
0.00000000000000 9.03572777390850 0.00000000000000
0.00000000000000 0.00000000000000 13.22470094248192
PRIMCOORD
 96 1
Ni 6.265816421518802 2.059757406817461 11.427398231819764 0.5026187863521924 -0.7355723027289203 0.13338934622814444
Ni 4.514457440948777 0.41667535986814075 5.992918466306013 -0.5112510081058936 -0.6301570731161986 0.5732421050967096
Ni 2.5631649108906904 1.5098249401955792 4.750603476823755 1.2913764148548406 0.8638945188468026 0.18600568687227964
Ni 3.1319730129299614 4.536079937623651 4.739110934608639 0.7806913065547458 -0.6363459755357299 0.15810510380726964
Ni 5.098671458922297 4.6553605805843725 2.409964145691157 -0.4068541924553573 0.7310479324960054 0.36590577506745364
Ni 7.281739443308501 6.192157168324665 2.648060995202618 -0.14848892087374424 -0.018082825643639822 -0.3262987021987928
Ni 5.210597019436991 4.361374140210913 11.733060639683098 0.8082633026357435 0.6652017234251576 -0.5198138100742402
Ni 5.651920037654366 7.810383735184874 12.36528057599508 0.25057020101722655 0.27021985692735395 0.34551872677066947
Ni 1.7544311280290543 6.437486214383793 0.31532702234032906 1.7130450466152112 0.459681363558718 0.6528768833112176
Ni 2.780275378965854 1.5732376780410717 0.41061509721881445 0.10550393267178604 -0.40950268582179794 -0.33662425249451705
Ni 0.7322698397519618 0.00012288589836117106 4.555710959886848 -0.4886903491965584 -0.17830934666928647 0.7687863275870437
Ni 8.551430880941838 2.3351031406968703 1.4556295482999566 0.5736164577169928 0.49709271432764074 0.09386660554317383
Ni 6.6171255191866205 0.853026920638582 4.969882519575879 1.071218250470568 -0.6200572656780353 -1.076908873097442
Ni 0.8098271059279379 7.284585697572013 2.389320218339263 0.34210687287564306 0.3346262482278818 0.3783686834211548
Ni 7.427865233624447 3.9454595886252726 3.6964629406437317 1.505848070377297 0.25565635729088226 1.004090089363503
Ni 7.636192974257914 3.687679309629254 12.680147679789336 0.6145052255115546 0.2995304329660131 -0.46023312229713
Ni 7.97553876829116 8.691900305642042 6.9236201175822405 -0.353169815558024 0.7623156322610355 0.10325190341281572
Ni 6.821911254514384 0.747079397650047 0.41320744753056593 0.1310738107210904 -0.46800119627832304 -0.3452826995004634
Ni 1.8878707564847732 6.454202310852041 9.294769487274127 0.09268518364056295 -0.24503564435224254 -0.5670606588763459
Ni 0.09904964837023214 4.913592645971424 1.5733162888731116 -0.35717096629761713 -1.119785360745994 -0.9145534786542507
Ni 6.081352038059736 2.048824176154445 6.8856655428714975 1.108236736676446 0.7964693953246089 1.1198203277489875
Ni 3.3046096286717654 4.092516058906747 0.39446011944823084 1.2594232589870118 0.4252375800585515 -0.4007948736351549
Ni 5.675864716379153 5.5680233048394046 4.812455744474617 0.8209360130074055 0.6722789419869132 -0.5679338055099187
Ni 5.301180190839251 2.9652186559994163 9.3655345968473 -0.40940087013661103 -0.11951104558415544 -0.8137330675010631
P 0.20450110990141204 5.428674310388966 12.512563843044852 -0.7731170937519137 -0.7540420793983337 -0.5347151526661049
P 4.135869480990343 5.911715283954395 12.7564408476432 -0.15255717740584696 1.42338405024411 0.028303217820067384
P 2.566815344930243 8.522263551536701 1.2409795089103632 -0.29399947584545494 -0.48796709787728865 1.1776894321516298
P 6.371805508855312 7.679203038684324 5.7606397219382846 -0.7373473923514721 0.6783773415751673 0.01953009961312766
P 4.604281611214101 0.9628019779319545 12.528791106638002 1.088145108132894 0.13253728264049433 0.26882271946951125
P 3.9363425392542117 6.147222493872452 8.305270547923207 0.5689118531524718 0.7233659904707155 0.372804559069816
P 4.666438382892519 1.1599977018903513 3.857341363772492 0.04590627561381126 0.028877602266298655 -0.3186828375247479
P 0.21991967585461075 5.5160136555036035 3.6326670879386422 0.21033835008037322 0.6258142227664706 0.6119305228058429
Ni 1.3902280467611337 0.9789488235474996 2.4936756460857947 0.5637868732210807 0.44392898582046775 -0.21564176457115763
Ni 1.885268466872419 6.728156542647066 4.67173151224987 -0.2775032779626447 -0.7118201946146451 0.15039179432341196
Ni 5.9897116865024564 5.532540001687616 9.161954227610817 -0.2523848856284622 0.7789707243192132 0.9170803588411625
Ni 8.664160621232572 2.35372577573528 10.220776174374732 -0.344376128525794 -0.40203594513110763 0.4429223989328243
Ni 2.489306871684499 5.174562536888141 7.053487019257664 -1.1249123975599142 -0.008183050031424617 -0.39186003303937034
Ni 0.49608404667457306 -0.08436026565216187 8.987678530842343 0.17323964545586293 0.40632685919697764 0.5724810585609689
Ni 1.416549121902758 1.0729294286103335 11.573319814686961 0.9232065263435584 -0.17494171574863418 -1.3626977881076467
Ni 4.276013619489001 7.076926600797276 1.6264526934681514 -0.09316803681425244 -0.9682555961633971 -1.0710354450358008
Ni 5.6315263999631044 7.83953299313437 8.067662531286844 -0.2495391886495509 0.46604047300752643 -0.08425787880881619
Ni 5.1718608542697595 3.110693873912273 4.683778848153176 -0.45339501632937396 -0.21650694078493035 0.2948451116752019
Ni 0.8933127131270585 7.375186940429915 6.954711153440399 -0.02973815049438104 -0.45401002420555353 0.07186850400552784
Ni 5.129835684175803 4.674299466096506 7.119769504259003 -1.2488254288665073 -0.1275187463799804 0.18051741006419877
Ni 8.331194051040722 6.916090645589272 9.076496121028443 -0.6080676974163269 -0.01816098717974292 0.2738859929250316
Ni 4.43411174916734 0.2960167684147659 10.424158661171944 0.49795094856287786 -0.060408582995044355 -0.8901495958885897
Ni 8.243167990611713 7.283510445961353 4.645268576181461 -0.3237291416994037 -0.4996375922366814 0.4093090817537532
Ni 7.192294773611646 6.106082825104921 7.002452324953714 0.6638598646852825 -0.05114104165018934 -0.6389181071382803
Ni 2.439131475096294 5.15968069316749 2.4504713135112404 -0.5369301580395528 0.4708533210151375 0.29679117965797913
Ni 2.425117061246428 5.05945640018057 11.516175161230668 -0.29480397402462133 0.7416138809373098 -0.2524992997191393
Ni 1.179316087970953 3.1412255982183317 3.6703704694159702 -1.4045666604272908 1.0347911179917855 0.3242809004378157
Ni 3.678815260637172 2.8644160764319735 2.609207365573719 -0.3118997531646435 -1.31975188067374 0.4840513077626502
Ni 1.035539586888383 3.152872651379181 8.253681059931068 -0.040732187612039526 1.1551778813126752 -0.43365125804354343
Ni 3.603159111594666 2.8663406864577765 7.150569589681336 -0.6128136967417447 -0.5867339689355573 -0.38356488291011365
Ni 4.154492116028752 6.939312466088405 6.091098877659896 -0.22412177701771077 0.09691182012740084 -0.06906985821446814
Ni 0.7508156711038959 7.129451286618855 11.371470690900916 -0.2836770108735243 1.0888809578576537 -0.6878490285110282
P 0.34533828872391686 5.354843378366235 7.781876917483428 0.08610958730557429 1.263344962638921 1.987099961017939
P 8.452191482287372 1.622726359314905 7.965475678217275 -0.19269029798130685 -0.2023090520179935 -0.04658684662060363
P 1.777219233592795 3.1783805110169445 10.495307789177497 -0.4105635229861445 -0.3281370409591123 -0.2337443877091394
P 3.9479534495037782 6.239594739383206 3.676427117774168 -0.0813450760373954 0.764160141668942 0.1095163962652888
P 6.979349776061814 3.955697068246096 10.355430204649549 0.48066825022303017 0.1007335078663362 0.3450114481169477
P 6.342412286254659 7.807076658802507 10.1589374603156 0.3188481594580186 -0.40138417047972164 0.14114867845858917
P 2.5024086770244764 8.54393122685068 5.903281335606578 -0.8362636445034115 -0.06618559468813763 -0.5161687571224852
P 6.883796954358182 3.952155062940392 1.5270696267413362 0.8940062506305184 -0.0112298072775484 0.4372047797227567
Ni 5.395034295712595 2.6956015735583145 0.5052354318113521 -1.0170692752319903 0.4504888984261725 -0.07105552118592924
Ni 1.44793020462396 1.2264825871948732 6.93889501546309 0.16569500033938558 -0.8018527711237093 0.08887120921111147
Ni 6.78488284190526 0.944504629095089 9.215302068236861 -0.4689820721343536 -0.8391623062074451 -0.30861953975147494
Ni 2.5902720943527133 1.5739243933554432 9.24388117176087 0.37455470899170334 -0.804299432891989 0.1248463417541398
Ni 6.391376895314893 2.0862501607876784 2.688026019353461 -0.42829153639352696 -1.10732065262008 -0.20489763868077615
Ni 4.207269802229312 6.756646192465653 10.590128716927655 0.18047807218583112 -0.5111077976598101 -0.8519116354533134
Ni 8.266669918673287 7.199098676660614 0.25558459713559445 -0.37381063173682716 0.03798110722946362 0.036893787702555816
Ni 7.62126595189816 3.9664044057135954 8.147037785900341 0.18471036509962382 -1.0303294826760063 -0.29680609205631464
Ni 3.201042116391196 8.187634407425849 12.282004597681398 -0.705193947547379 0.10238158499272046 1.0647565540056245
Ni 0.2105180010571991 4.741705995638737 10.025315310157904 -0.3063250872903434 0.35375654129942946 0.6345639439346425
Ni 8.6157471915694 2.27064225842418 5.760243053486957 -0.38704384259764957 0.5376043012884418 -0.02212485692349738
Ni 3.703997834073392 2.7077094488380182 11.434830117952268 -0.7965534703979831 -1.0020823149048548 -0.13793891327203986
Ni 1.1349687358270835 3.3426952214359074 12.714148220005752 -1.0171667200418029 0.12493195948941063 -0.47297756644699185
Ni 3.0458625267989343 8.304195296312548 8.076681994797442 0.6835216047802679 0.5156409096434732 0.07729121768299592
Ni 5.767577353758998 7.957521527016736 3.5673767258520135 -0.413841679516784 -0.06777016556643813 0.3498335520959394
Ni 3.2136559924288575 8.46916961486242 3.646023700803163 0.24741391477643196 -0.389813949143619 -0.38732794949697164
Ni 3.306534238697569 4.264149708860456 9.34695442972965 0.29805821929586085 0.09325776831458132 -0.45767358910006983
Ni 7.318686534367239 6.012373291876707 11.33548590485508 0.12514047595579095 -0.10291226068520985 -0.15986682369338273
Ni 0.6747149642526125 9.030044347875139 0.40072278240074016 -0.6215099389641618 -0.2535100003718408 -0.43333424102375695
Ni 4.552768926908436 0.4533595112472965 1.7599302719807166 0.5862631999467258 0.2340089542244357 -0.5150230735538163
Ni 6.307968091802248 5.65813661839499 0.37190874995339185 -0.8451756022810606 0.7943088973381803 -0.14967908452710352
Ni 7.8665317478625445 8.932051879659925 11.293167073606952 0.5547018802006769 -0.22807870478292974 0.19491121689202562
Ni 9.080906459777713 4.774776759462405 5.786058127870623 -0.5072696548606426 -0.10966989112401758 -1.0976008542291549
Ni 8.077814171493372 8.87611168872213 2.548148434825512 -0.42520081328334514 -0.3431607680614542 -0.3127394754571195
P 8.392844821961184 1.6243889332339092 3.635734717533761 0.02646256506690281 0.3526949328041345 0.6493616710691075
P 1.7796588801043771 3.1832236611288263 1.551522113369645 -0.6288828343894652 -0.5325253441036377 1.0316173482494941
P 4.544410878674312 1.1558141599093792 8.188126854592076 0.4187622567468531 -0.44119384627749186 0.4690046978421729
P 8.631948251551867 1.6191662825535593 12.528883271061773 -1.358729547488518 -0.1927268076461971 -0.1822377351894152
P 6.438308465615475 7.834382628276585 1.362831720008849 -0.17264700617718653 -0.2227768329540421 0.18439154830762436
P 1.7542142705613581 3.3108984952349547 5.903057249556626 0.2106751645945017 -1.2405022537127925 0.454658713533146
P 6.718506385334587 3.9985806324830167 5.979072116993612 2.0125104306712434 -0.47921686248848433 -0.7324478981673257
P 2.295870010499502 8.395826612142006 10.244038655649057 -0.21385741897722524 0.6763340858928932 0.09287595949513038
