# total energy = -340874.1575184486 ev
CRYSTAL
PRIMVEC
9.21873820495452 0.00000000000000 0.00000000000000
0.00000000000000 9.21873820495452 0.00000000000000
0.00000000000000 0.00000000000000 13.49255520728902
PRIMCOORD
 96 1
Ni 7.177617170551117 7.276525009879702 4.581464770754848 1.066127466211222 0.17801109870257728 0.3222664411109482
Ni 8.159458854556236 6.318329388683586 10.262707461819646 -0.4620789172566171 0.22306299673589325 -0.03501971060829453
Ni 5.772893539889193 8.312194904700332 2.7337936884419367 -0.6409446506500058 -0.7076184978284716 0.9705271658063932
Ni 4.3334060484659584 5.109338001905018 9.57716339010758 -1.4329223287518484 0.8872720172304784 -1.3005485682724118
Ni 1.3996625435343826 1.5944083824584534 13.120699675247176 -0.38280795013943103 0.9647254715229515 -0.10483647429111621
Ni 7.512460169907334 2.674263688212247 7.927685954707266 0.21787116812230864 2.25878508963691 -0.5754483687194089
Ni 5.309504458736182 4.342090099602833 5.693251019101839 0.8010264185676721 0.20627060776890283 -0.4796974016693286
Ni 4.843506474746935 7.472367878618304 0.6127215732506787 0.07102595349957445 -0.13151244092040576 -0.5814626932342889
Ni 3.1132876449971474 9.454645441047946 3.102774596253526 0.48393329412754726 -0.40125767220418634 -0.6594360245859741
Ni 3.4302186365413196 1.783908759496238 0.9809290289493342 -1.046566770470475 0.38033712000143527 1.101864000380883
Ni 5.183373686278945 2.0189220457301476 8.453868469319746 -0.24036215013597315 -0.5933041659539072 0.043044894905616186
Ni 6.1049156054366165 3.761918046260941 10.152014387912102 1.128391100137134 -0.9600769170073467 0.3859722068000256
Ni 4.0853574667888 7.429546840899851 11.53958840038939 0.1252155521681005 -1.7507942403395267 -0.254699906914884
Ni 1.660027359095686 1.2405471267377215 10.24403306438019 -0.015327631496005863 0.4653015379589729 0.18733494720666446
Ni 0.8049875716696335 7.878056879022166 5.056267571347948 -0.2670062350860628 1.5078049369933515 -0.7922144767029969
Ni 7.952323031844523 4.422412963249954 4.849426748250226 -0.3358153834399765 0.6403615244530262 -0.7069831782373179
Ni 8.396951981295263 2.9877560905058305 11.581590814179014 0.9829335098905458 -0.26970512207446456 -0.998691801166067
Ni 0.9112003389396828 4.344238065542209 3.600825210176743 -0.0522422451341681 -0.9140500566552711 1.4582273831755401
Ni 6.851946815442447 8.332983158748794 11.307651407005133 -0.39825873747686247 -0.48487354655362946 0.3569565362939659
Ni 0.7444158540530367 2.8378040992187805 8.537603187877437 -0.19886557355408332 0.15626882192947927 0.8093976733505028
Ni 2.7104841095676395 1.8127173155500949 7.07101629441391 0.026139891620161435 1.7095406330063783 -1.3909752948961012
Ni 8.835607188562674 0.6529539893563558 11.635277978304085 1.371821861896102 -0.7190169694734004 0.36733890796955443
Ni 2.136894235112933 8.934625652746504 12.000777890670577 0.33654789073062685 -0.18117689802506862 -0.1383844854498907
Ni 8.22477361284154 4.08845496273571 2.185064906456362 -1.7743864258371698 1.3158013806664242 -0.3713858243454185
P 5.810948490094096 6.104675918250249 10.645126523922341 0.736425651868151 0.2702070014115476 0.7803426649660754
P 5.779687749748934 9.137668355814087 5.2233055715278685 0.026122922339296948 -1.2498217313415056 0.23849887167498923
P 3.023045419329563 -0.2969530645603919 0.7561485418257545 -1.492509701397178 -0.7724349800832246 0.10075844756700066
P 4.128925222280168 9.123637436673617 7.990763325295203 2.167688333529389 1.0137263269016865 -0.7860985936132462
P 5.301179938378859 5.009996881893382 3.45360841843567 0.7642071928567936 0.7435985154675064 -0.8061334007769343
P 9.191975941002333 0.2967963460154589 3.0362024021135836 0.45245424968265946 0.41812822270727984 0.5053073889279491
P 1.000057910169095 6.370535101622144 7.589724256306881 2.0894236961895305 1.4581597631623986 -0.1059209656045466
P 7.48180786626603 8.460598148013927 13.405447130778668 0.25457238019808415 0.2080351558684933 0.8066234530394752
Ni 1.740350222742807 5.805620059566373 5.50775526182399 -0.9782872693677862 0.06555773129615161 0.7604371842914001
Ni 9.118705411877196 2.626022032586701 6.014792301488423 1.1277701787236833 -0.22453572462667779 0.23505745009360807
Ni 8.526383061934029 5.082990848880402 12.182711527609479 0.06157612094058427 0.9384133159909838 1.1845882161539922
Ni 4.69483588803316 1.9579954067029672 5.570509054710329 0.6983794957287068 -0.22858675476759988 0.45683618080043903
Ni 3.705545463774754 6.162956779489443 6.889149954261949 0.5175448115344055 -0.17692635027883077 0.43550476631251445
Ni 5.603176574464712 2.425403857596612 0.6614850094434722 1.0436907344742605 0.10538077683036043 0.6851565692805297
Ni 9.180913455477652 7.544919346184336 12.0941867528196 -0.9524096302700759 -0.19853312991532904 0.7415244065472971
Ni 0.8773399144962217 7.9613850512368245 9.754793720177382 -0.8499334286810202 -0.42419834016075975 -0.02170885243200132
Ni 2.9749973572006985 4.901022180737338 11.630366234731127 -0.3383882863734753 0.9592474791275158 -0.2617704406084201
Ni 7.425490596207468 1.4844196201293132 9.915934493698852 -1.3379475777461602 -0.48545692986092515 0.8030434489977009
Ni 7.057755139891199 0.9377945541410158 1.8346772711903803 1.339258840358416 -0.9049941171005899 -0.12920744693631298
Ni 4.190183735873089 0.1733076638510329 10.149680203466394 -0.6628093119335811 2.161051287828846 1.1924732753290235
Ni 1.5065445911786752 1.4511399761758978 4.462986472659309 -0.5674404108132679 -0.634708439932307 0.6390258363607381
Ni 6.014765567148404 2.9291433547008965 3.5465581874354206 0.1464181543876446 -0.129899330797015 -0.8813119429923015
Ni 3.401658986411768 9.0964974721864 5.88264630252714 0.28924550610023736 -1.148449561449906 -0.667629873250676
Ni 1.5461482893570329 7.75368688551094 2.327695376073661 -0.22934214487638563 0.33551559281137056 0.6559141274756445
Ni 5.668380707894769 7.83421256139268 9.291715310492856 0.0601473589138577 -0.8171696039864378 -0.8140403143288368
Ni 1.9216182668026414 7.078432769084415 13.497546932140606 0.6645916006449845 -0.940948937928644 0.505413061267878
Ni 2.036059679555466 0.017807836073355156 8.215494953107715 -0.9239007241971056 0.7597249887157239 -0.5474824796341022
Ni 4.82545618586583 6.769199423717834 4.8839131249996255 0.06588554694921556 0.026796551367553847 -0.7856455652362276
Ni 9.085960454724141 0.6759759436070105 8.43677324168894 -0.6110800018800896 -0.05782231032510687 0.4482250420926603
Ni 2.2857215403716404 4.3407349451260595 7.426868797529084 -0.3414851801312442 -0.10980153160587543 -0.6323926473149367
Ni 3.795179252738482 6.590558719970111 2.536803086830149 1.079897266301805 0.012627716066339544 -0.39850479204939754
Ni 9.396106455146509 5.874133719915897 1.3754716533132865 -2.143527677122786 1.2547263677319747 -0.6906988392549975
P 5.04196746505971 1.0847873305502138 2.4332065973866865 -0.7712790121019104 1.610140499239485 0.2477813254181797
P 7.78601699945682 8.319164270580881 9.237812427900055 0.07015100709378885 0.8756945968055241 -0.02884520636646645
P 2.931724601323322 7.5589779215386175 4.20936700764668 -1.2138422279231031 -0.20111477459957622 1.0519023237507756
P 8.335647374012655 4.269759881747294 9.324003018244227 -0.2855474884233598 -0.8532714919153175 1.2250782058482386
P 7.033067359695285 4.240462732582764 13.784263510095496 0.5661923973387797 -1.3719792134095727 -0.18411798293126355
P 4.5042937936084675 3.9355990689984313 7.639282347709864 -0.24927796456836424 0.5624118472504249 0.4180348916625253
P 1.6090846132545302 3.299312557832595 10.969163318668535 -0.9566447513973461 -0.3156803032529983 -0.1834628658457679
P 1.00430774835816 3.1915916050360145 1.7478386035692222 0.22207826422512075 -0.8498691511019879 -0.4802635585854439
Ni 6.818980608578897 0.6374029003300355 7.589562006519186 -0.7968198366854922 -2.610057945282537 -1.0539041846721529
Ni 8.151097459247165 7.824339293061902 2.248696323194327 -0.7340977750659228 -0.43561146709370785 -0.5330153963661788
Ni 5.835055489799962 7.507122520641675 6.915380029314761 0.0808920476603768 0.9219366584921993 -0.41176114283867155
Ni 3.4692692104434433 2.5831364637026875 3.608138434982351 0.47185939368214863 -0.4557383197505699 -0.8271323716261044
Ni 0.29571775367680253 9.385228344380572 0.8495048571685371 -1.0328692183787243 -1.5295109612118756 -0.15391806230911556
Ni 2.1130730162831197 5.0979712980284075 1.7588356360545487 2.433532429986551 -0.1665033551732939 -0.6175681807075944
Ni 5.014615469599937 3.9248961142533028 12.474338927263531 1.030261091331916 1.1863265390013378 -0.2896399133251786
Ni 4.585805874449491 0.18565339769657685 12.87398873244471 0.5616909099240003 1.5100237990215413 -1.3600986599219027
Ni 8.492467325062945 2.319876964429093 3.4274594682767052 0.555558057553385 -0.8643544892023566 0.6142491436366905
Ni 6.5297519245361135 5.899337749436295 1.5884383277703007 -0.532279803751735 0.4091175345682374 2.1757101753926014
Ni 4.3935951884581605 4.217508075119051 1.4465905290038727 0.6405612991686581 -0.8093627063475093 2.238424266592371
Ni 3.2615341697658096 2.555443374939236 12.215335719295556 0.42299557810191024 -1.269099091513879 -1.019114587796793
Ni 1.3113009404059937 5.261944989717991 9.589509123953125 0.09034547976379279 0.19648113248230678 0.5263498114205452
Ni 9.005379466414777 4.712849301962516 7.300430119224743 -1.304082292457283 -0.00043811597868311647 -0.7316518846285915
Ni 3.1543479037695885 7.504697992564183 8.859846016221043 0.2621126544391873 -3.4366925513366167 1.229194284899141
Ni 3.273536966560089 4.840040229282534 4.087906447828446 0.41973361952118676 0.45610830149547893 -0.016034170644727223
Ni 6.733504470424863 5.556308510791814 8.40175955312953 -0.7521500045819433 -0.31505989606018 -0.04163541615259927
Ni 3.1871942670399536 3.0041193503444212 9.12143968954938 -1.0412129623577293 -0.157879875170341 2.140762969893455
Ni 1.1758961175838987 3.9748616738731117 13.211410212801972 0.13063569474240727 0.4659939360403071 -0.5883817889516254
Ni 7.90270778426633 0.7369855512756259 5.083144801803954 0.7553728823946152 -2.5247819096218516 0.17386390930342313
Ni 8.437182553653352 7.814742586869241 7.042061160426852 0.21358153960801926 -0.21797632624160523 0.2848448059293804
Ni 6.336960458054737 5.973419527499909 12.783359319783761 -0.010900963183219937 1.6985874764289843 -1.6327718634857558
Ni 6.840589330303774 1.3928775524125783 12.550936498910215 1.3849432297694084 -1.4837692362003865 0.6992865809240086
Ni 8.416928986405248 2.3802504791800394 0.5711828619792954 0.5857636346024879 0.5038436598982291 -0.5904890651026152
P 3.7249048134429454 5.5940868988586 0.161411804416826 -0.47669820983168865 1.3758124711127335 -1.2174965368462385
P 7.086406977400123 5.77833259527216 6.28032514153734 -0.15034937112125074 0.6557233516210772 -0.09534627541249385
P 1.8255866737104738 6.765558022232626 11.304412864367784 0.6647751774107002 0.24421237711999877 -0.5991518829839358
P 5.297243537279661 1.8765017633378178 11.379769593888117 -1.6869190389521207 0.7503782573935013 -2.034283046461645
P 9.183107515106714 6.304879250033162 3.626043067804047 -0.5829171662926284 0.11991933676616767 0.06235439386750552
P 2.1829141748956054 3.441695965273176 5.346452238514823 -0.36513238723653885 -0.49308565005077665 0.3193598089871145
P 0.7744901428256756 0.5121847829285844 6.4760352604496445 0.03808600823844408 -0.06602927161593145 -1.0009669703534891
P 6.91676376187914 2.527741067437848 5.516984140372954 -0.17779024094102283 0.8783893700288679 1.0245239317378225
