# total energy = -381169.0000217325 ev
CRYSTAL
PRIMVEC
9.23585151461269 0.00000000000000 0.00000000000000
0.00000000000000 9.23585151461269 0.00000000000000
0.00000000000000 0.00000000000000 13.51760226581167
PRIMCOORD
 96 1
Ni 1.3393185376519465 4.656069830887408 7.540199984766926 -0.3027908488848398 -0.40780524351471703 1.210663058864173
Ni 6.770313255157444 1.8913176759350236 8.753148060299775 -0.5670025519449008 -0.10811463082175572 0.4113788197985883
Ni 1.094014321064222 6.774423209087472 10.837602169050909 1.3138522273598536 2.6547938547373313 -0.05757805552478471
Ni -0.011566056868705099 1.6866789136257538 13.119117023932462 0.13639573715463607 -0.5535808792223563 -0.047902737218549755
Ni 7.190997056413252 7.62912738120574 2.225173389804367 -0.3508373107701055 -1.0178470339382792 2.0429479212254944
Ni 4.986796438259013 8.650575616813269 2.7463986707956405 -2.0601357458586906 -2.6591156220411363 -0.03894655646652648
Ni 5.698705109900519 8.973968958071522 10.0624897946468 -0.9670767453639474 1.417152210401785 -0.22012731114633705
Ni 6.679820381884609 6.73879129389186 9.818293880242452 -0.6127962132402479 0.3877056445513645 -0.1507800309007661
Ni 1.39023578712665 7.893780706744944 0.6026660961813679 0.23375672900431352 0.018307797170252344 0.6210103736199241
Ni 7.834154049279193 3.5954431130974576 6.198307415294083 -0.8301017386670736 -0.7170534179891265 0.566346920638773
Ni 5.068515252580105 3.6074404842325274 9.602539770619051 1.565496378167549 2.727024370067968 0.9701978074914324
Ni 1.538111005943896 2.1578458793344426 6.766127567244885 2.089930203512304 -0.4211621244375972 -1.53633389767098
Ni 1.8619938473331403 1.6128013372520638 3.8378500430608007 -1.2248056689131421 0.6027959074944264 -0.11538339656902709
Ni 2.8084562043836017 8.953354537460685 12.144808574524623 1.0628655076304987 -0.24627440185535002 -0.7541613785850173
Ni 2.7122555748663673 0.1961630213618847 7.787963708616597 0.1156973282650201 0.9331610664531089 0.28104831500142563
Ni 4.610592497962787 4.691239953506613 3.875306962518375 0.4929918047853897 -1.2428874661155178 1.2967708463975345
Ni 1.1405907203206938 6.869173809914787 6.320925350937292 0.12251563673843417 -1.0224500799279295 0.07429048318345916
Ni 3.530293416417871 7.909564777006556 0.7391285732652761 2.8056145090680458 0.12293035567834959 0.23642784807857348
Ni 2.024461711564867 7.128017784842783 8.52895792389056 0.6736413695520785 -0.6280539107302667 -0.06828155798521789
Ni 0.5749677774484392 5.428223962047052 12.589429855771098 2.522224690417637 -1.5250835215681413 0.7761401968489536
Ni 3.2425227545037023 4.009744940947312 11.604117812852616 -0.4257001215172669 0.3683094994129399 0.30025317006465063
Ni 2.4322522640873747 5.270484853797739 4.830068655752033 1.4981512159536714 1.2338166141625009 -0.39166462919911255
Ni 8.174153451585063 6.533967814552027 11.71836899059647 -2.291944349997698 1.030210954820271 -0.4849751051285003
Ni 2.436583878454078 6.034890105525262 2.2468286908824253 0.36449321099064325 0.18002812913260607 -0.19946052682560486
P 7.089227208424542 4.760204056867326 10.346345379098185 -1.1552886958589266 0.3031394904735102 0.48634678866504627
Ni 6.253142512987028 6.825645241662604 0.3041753813984728 0.14168346791613662 0.5484235033911329 -1.0851240619183828
P 5.501196424970983 3.43402813593994 5.935890089409845 -0.4974539543218014 0.47872166801962074 -0.4539753143128762
Ni 8.838645261481034 6.835121225330489 0.6421641388266639 -2.640330885234466 -0.7863392488691425 0.3522377906620579
P 0.9743915720715937 6.767976584720821 4.055685913618648 0.2140098853946895 1.148881249670686 -0.5340088706276996
P 3.630373103576929 8.283570584639083 9.575369742593532 -0.03541977426019061 0.22239553835522347 0.31121224017931565
P 7.34785875876739 8.497962406162081 12.577047349627302 1.323456583218837 -1.3161605637780558 -0.5847015118865607
Ni 8.888675869209035 7.061565833097726 8.904666822544879 -0.026399058818819054 -0.9625019815090715 0.39466279259548803
Ni 8.571304303147139 4.1133989026477655 0.5769451732606167 -1.2069917806601729 0.9467699154857953 -0.4987716446919604
Ni 6.119767581068982 2.2049210145734346 11.165256008619098 0.39164406037382227 -0.43981599209335864 0.04620940867652687
Ni 4.32250781709666 5.223926926244323 0.40104006864058106 -1.9249294010264657 0.16554947590045685 -3.4459117559420394
Ni 3.9765789981097175 2.8504885646882223 7.53473882575833 0.21489691598533311 -0.8900932887293574 -1.735195100349689
Ni 3.5558213100416842 6.004975182425578 10.266361981279232 -0.22330493754337027 0.528175037554742 -0.2253746755882054
Ni 8.044519039535917 8.931742644884809 10.563573530625478 -0.2476982787860702 -1.8118108892322153 -0.41534243243202656
Ni 8.345441554026173 8.095214628573945 5.497284118263657 0.6804751046444604 -0.864327492619163 -0.4249740419845197
Ni 6.815892182448875 9.104582370382651 4.162123560969685 -0.46874527353319917 0.6750565047320504 -1.2906991862821577
Ni 3.8524860969774637 0.5118028652622529 4.510269907908539 0.26276314353899266 -2.2230372426133393 2.6264101613883155
Ni 1.5874581606588138 0.8138401470319585 1.486976713958281 0.5942061089428863 0.6569114583919073 -1.1282993117542761
Ni 5.004991065769474 6.928560335240805 8.174810120628713 -0.9700155162772971 1.9469763535241755 1.3569017502511598
Ni 7.092136501655911 6.728086941970732 7.302235499388624 1.9126786086835705 0.5696078507782318 -1.2259834912713272
Ni 1.1030285121556986 4.704437985340342 10.231473552131636 0.4921178868208685 -2.2027553524358514 -0.8264703125620734
Ni 0.1768148359955585 5.291191632923856 2.4541615510824575 0.22194482397105003 0.5762770352682914 0.9509307317317043
Ni 0.14006538276504057 8.929442917854299 3.253591922560193 -0.6837324352394933 -1.1648364874483617 -1.1727657695977673
Ni 4.04094364740941 1.9500022765449032 12.304884353210557 -0.19365369033584068 -0.2694115020934457 -0.15489379595882355
Ni 3.030772386517755 3.2229058058579065 0.8347768988611269 -1.9792539826109588 -0.5947378130766402 -0.17121001662034385
Ni 0.5365715718904517 8.794165400521454 12.249070255255628 -1.596883891339895 0.46980971024197155 -0.6342538688933916
Ni 5.11162820751352 5.785993142693087 6.0252275576565095 -0.6145059968425031 0.823914378909439 -3.7743426739924866
Ni 7.989473364428129 0.13403714247261558 1.027882853367193 1.0572003389249212 0.1349921719388901 -0.20796162231808057
Ni 5.019879258432855 7.49921589361075 11.676734695492712 -0.8335773559204999 1.0867024621490962 0.5987713597160655
Ni 7.046529866809895 4.887640336252771 2.296275592793847 -0.6008372411061588 1.146310403619716 0.26077439524373797
Ni 4.153131535921876 1.6639310113119146 9.519366309682276 -1.3838453687195393 -2.6238321162484937 0.8451709742953702
Ni 5.639373999683669 5.346652921350411 11.779360706918082 -0.41749907376371326 -1.2676250780715137 -0.44438972750697014
P 2.5421219538662743 6.561075038787155 12.584685398841083 0.7820483348032725 0.24586765333523464 -0.0454776727168249
Ni 1.7026477009179288 2.0197514272855095 11.345864008837268 0.23156383511805279 -0.7189933153243165 0.02783501993439722
P 6.7022542652464905 6.490836387915556 4.361332566165554 -0.7890952143477249 0.57543037099728 -0.7124038350322569
Ni 6.044495391114541 4.82880796201844 7.63760774007889 1.129496674496487 -3.7510446226964946 2.581352349817729
P 2.966296906999724 3.81406495462035 9.171057411756527 -1.5972266193912945 0.4462671470353411 1.2013122137768923
P 3.8652315720863135 1.04803825215708 0.7364723423657796 -0.4121874317428127 -0.5957402861992256 0.7414369890398135
P 7.897835245565802 1.6796689023158862 2.7330427059007794 0.8779589673596685 -0.088210435698661 0.9647897491019836
Ni 6.076571503471814 2.301130879942197 3.996330790187824 0.04284203486619073 1.22564461987467 1.492208110996359
Ni 5.24203843109103 0.5573356132960436 7.359401726007276 -0.7633394455398596 1.3806168344799126 0.4431707674982045
Ni 7.148364365759301 8.77723608467035 8.280355584722132 0.45230589703025326 0.4982093444305871 -0.3209526073955311
Ni 8.328438351362847 3.6513107789912502 9.258530161579657 1.273468424226168 -0.7232626321236317 -1.928992772462562
Ni 8.5032176056816 1.8157222311770973 10.703102310416734 1.0863288808597613 -0.584086246900065 -0.5614140021135299
Ni 0.39217088041809645 2.8008181551698197 1.9325437464012372 1.4814398167362615 -0.5788512237533707 1.2744593273845277
Ni 4.975537935246196 3.5888948943639973 1.8908965211053401 2.602951673255059 0.33987104156658887 -0.659174286284155
Ni 8.990787443704287 1.2172944672619985 4.833732518053251 -1.3274392220156688 1.8707670560514489 1.339482783443764
Ni 1.2202684114540636 2.2379114762319943 9.057618065361996 0.6532376090847459 0.4143900958210863 0.34759617812498844
Ni 8.264101409617737 3.64496574899141 3.8823908606404673 0.18376162803310933 -0.922785893866372 -0.5022290071129415
Ni 2.3675458882811395 8.467844294328778 2.9146380186473095 1.0067442391568984 -0.7951288221363144 0.8510641998513536
Ni 3.591194621394507 5.256049217859237 7.586551952831264 -1.1369101933517387 -0.11444134437073193 0.3667035883784007
Ni 3.9474768299445095 1.9571138822215808 2.9555158975109115 -0.7911055599095344 0.2879728100354008 -2.0261575891410333
Ni 8.564423593758665 5.740912951384175 5.225823970148205 -0.5071200166566556 -0.5924425892845603 -0.19743706863767288
Ni 1.0945961797104955 9.00506607016681 9.588103211095397 0.19657549196832597 1.013379227974913 1.241268956675488
Ni 7.00741603558817 2.176022035141846 -0.016902531881671488 -0.10415718883590451 2.266515111291316 0.4866656054570457
Ni 4.868956208611318 6.135062151199603 2.1863504879057785 1.5211034538744708 2.0091625972449334 1.4315269910662183
Ni 8.816229849822209 1.6520444703951827 7.425597844665001 -2.596695922153334 0.5421811220258469 0.5019351300216065
Ni 3.454531726332438 7.679093337973043 6.509753259015517 -0.6259294081880962 -0.47142307747567846 -0.5955415399248583
Ni 5.640962566146511 8.048564342505248 6.040313397542594 0.8253110021466497 -0.15869748597562994 -1.7915629376164568
Ni 3.864575826627815 6.937094262052818 4.102848789447156 0.5874150541629818 1.5315344193998075 1.1230889711979304
Ni 5.966692577841386 1.104515484251731 2.0444831905075955 0.6003122218406242 1.6851154100844783 -2.2934389322653534
Ni 0.1046468157397294 8.753934031264821 7.410850036944847 1.623425389273849 -0.20206428299703907 0.48301643874023265
Ni 8.161398740624684 3.677263521785358 11.87434866912967 -0.5408621461041072 1.1034789102764866 -0.3100696419344402
Ni 0.9245179738195712 3.9317112313859535 5.428398519640934 -1.6188974194965087 -2.2374243645729464 -0.5229472134968993
P 8.463207896861645 5.132926081137438 7.609937128900546 0.3205988236005382 0.31243608528408773 -0.04565533594526976
Ni 3.3433320739334844 2.924153716476765 5.109140069111836 0.5978030822655253 0.480023931770812 0.5490919902130672
P 2.181979159377504 3.9659300612977577 2.927588529660085 0.0028418403241692995 -1.2031657220458634 0.3829092516039857
Ni 1.58637756603002 8.955728151303422 5.447931422037824 0.42461434465225584 0.5350884768451237 -0.6185318301724445
P 6.458243067872707 4.667217503681889 0.08946215224229423 0.3418415350293984 -1.5057771079300455 1.3482726138212522
P 7.200426860823495 0.643053551328825 6.127083299064432 -0.34245037225799085 0.35449341946545404 1.5703639906724955
P 1.215013211934545 3.354470510876436 12.99486341898362 1.0784605338552782 1.0145094849246141 -0.10586645821752735
Ni 5.758396418326968 0.4022859850117288 13.149842854796319 -1.942180989018062 -1.027553719703082 -0.028558528363983073
