# total energy = -381169.9947376794 ev
CRYSTAL
PRIMVEC
9.31532792715036 0.00000000000000 0.00000000000000
0.00000000000000 9.31532792715036 0.00000000000000
0.00000000000000 0.00000000000000 13.63392402915699
PRIMCOORD
 96 1
Ni 4.30872118575576 6.279928454725626 4.203543678974456 -0.39892362475437104 0.19159038004890874 -0.6528899959373401
Ni 2.6178214553621 7.252690909391767 12.774700979636766 0.27616193344340184 0.39157772591226114 0.5588776088449213
Ni 2.2553154614206212 3.724957518215464 13.607856474775677 -0.9196586610913 -0.19178809788201162 0.7912310297438051
Ni 2.935911964808834 7.437413866088657 5.82055422668936 0.8760926035748912 -0.6708522368427157 0.6137272096949494
Ni 8.832328360673593 8.625332454432462 10.211359289274471 0.48978049693694353 -0.7968905420224275 -0.7214924275970864
Ni 6.917152790368971 1.5581376739718706 6.990685195980583 0.4835219176217415 0.4619598751802496 0.32840469279820217
Ni 3.6278359071957067 2.6227958405802614 7.396649058685668 1.1560587412557317 -0.746770742547901 -0.9162138970758092
Ni 8.478494937215464 4.957095969163411 0.5572112562559384 -0.09125667872415251 -0.9130771512190403 0.7434380786302421
Ni 5.0103330693914865 2.106475148656984 0.494261063393075 0.7524045437949106 -0.3925678577396723 -0.14652562649978637
Ni 9.045332653554636 0.6399919196289553 1.0205752393276695 -0.03244809322637637 -0.1848252934109333 -0.017273185258150896
Ni 1.6382401805092668 5.648367838581611 7.351684901364426 0.9520435051799089 0.1006985408633427 -0.11807431313762892
Ni 4.950435509554825 2.835306421070739 5.389640189137227 0.8072896258685646 0.7571592848710766 0.28719993642511826
Ni 1.2546908603359035 1.454867946390341 2.964751289147609 -0.7441659579352022 1.0615123360367138 -1.002894783503821
Ni 9.15728426694764 8.798383304990109 12.429121868429222 1.5340096204131775 -0.5939780520924802 1.3174402018214277
Ni 6.594236940954058 3.5321488567070296 3.7820502327540204 0.7904435008455033 -0.84307501099829 -0.9454473400196298
Ni 0.10012766740533907 5.806029767078579 12.221149715800708 0.3536274719207329 -0.6206373065512214 -1.0880427782270747
Ni 4.611692917657408 3.848264516591498 2.434487414088482 -0.7440361172255573 -0.6583276220131437 -0.2315149841579884
Ni 6.216519016186255 5.732000854477964 2.947585934013703 0.39462551159964937 -1.2357940496038458 0.9120592514774872
Ni 6.149290293116085 7.644204835111062 10.399575494017823 -0.5454528507985832 0.24309420435515552 -0.6673611929703216
Ni 9.255421248732903 7.0393326340420135 0.5052177523324035 -0.9687924425034735 2.2324868180620134 0.44591284901971595
Ni 5.042899456512633 1.3514025969182093 2.8595933445553654 1.390015502085993 -0.08875088158316329 0.624101353840422
Ni 6.111917196683007 2.2019386312706875 11.587322680324148 -0.817430056736676 2.2840052976562792 -0.18165563743370006
Ni 3.7598527373675847 6.901903598230151 8.199401185893802 -0.2537694246808146 1.3085711814665721 -1.9764231980303832
Ni 3.242022962288236 1.6027860416697122 4.427780394507297 -1.2954971218914333 0.676679385047454 0.522770578709719
P 1.9233544283974033 3.578939749873368 2.1857364810647923 -0.04905279166259294 -0.09722626604402611 0.9033835780803602
Ni 5.889197016568738 5.917049847659191 8.53978607013946 0.544534452749372 -0.4774294315707584 -0.26037073204741606
P 9.305668128633206 3.5599271651724926 12.733962255152525 0.5646499925523244 -0.7254508980242022 -0.7260507363917302
Ni 3.6745522777370536 9.244755198031038 9.020817504530976 -0.4520235899031441 -0.09552625263378386 -0.5884980028145155
P 8.074694093700746 7.0535385094309575 4.863697694794776 2.815634355197893 -2.2614875761697375 -0.2420739906207573
P 0.07506757168642951 2.2334244403294616 7.031764861474159 0.5431326873058387 -0.004085997143915544 -0.02433060632556455
P 5.0931835977254325 6.3181119847054825 12.310547056740129 -0.13055059122776871 0.2248936221867288 0.28233438080270085
Ni 0.5843691638683497 3.2186508040253767 10.527870850604204 -0.4635914972464016 1.2191453853035714 1.2028265935388895
Ni 7.853529573383168 3.2828520454552796 5.794868140920525 0.6023367084698207 -0.17458227552668643 -0.3577029275416872
Ni 7.535038504827105 2.4559676292093777 0.030336297568285212 0.2004401171300548 1.506327838227193 -0.014316416622672117
Ni 1.6685243122400581 5.6978508615757555 1.0704085186592727 0.7239779130231015 0.09397047811088978 1.312459974998017
Ni 5.049494708824352 0.2821575627416114 5.396048203353656 -1.2184136493438693 -0.4189412055268785 -0.0974322114072451
Ni 2.974151386757434 4.266373704104521 4.2498306128892915 0.5564525443431966 -0.24113348108435892 -1.2104902807317346
Ni 1.5036895810876887 1.1149423078211904 10.339436667182753 0.499774632035178 -0.6639963902631468 0.8071389592233131
Ni 8.883655818636269 8.925062452146994 7.715669237879168 -0.8699409821511985 1.4477172276728358 1.6101566971894012
Ni 9.30689775194556 8.419733847409917 3.640625852709818 0.3231719836443531 -0.5795585342330406 -0.5951137083588203
Ni 3.324957328575297 0.8710977581203578 1.4314259231665525 -0.6509547265878403 -0.3696071351784409 0.44704310596941715
Ni 1.901351623368757 3.3730803136633525 8.582623538050015 -2.419924609395129 -0.5629615491063079 -0.6333143877982577
Ni 3.3619484965552946 2.3859722536864103 12.11768157173014 0.8082211365438984 1.325709898029388 -1.0768718492119196
Ni 5.096443962568797 4.846783853520215 10.794237069110183 0.5238789812825493 -0.37818304977290995 -0.5656519514542774
Ni 7.491619760441617 7.9093935961421815 1.8432379488678214 -0.018205210154117035 -0.11773467041002304 -0.5973744793685388
Ni 0.5862722854040621 3.737700887088956 4.411801812176375 -0.6888013651219685 -1.0766543338844747 -2.8084116121972085
Ni 0.40362478381317535 1.011085714567855 5.282586575271769 0.4731773411626238 0.23042663618981607 0.15213345960486702
Ni 7.446123697884501 8.691722797971481 5.887959940993884 0.040451680257143234 2.283558697037164 -0.10945674667194698
Ni 5.3171520318083045 1.9893348974989706 8.880987908661584 -0.05043810204589378 -0.07222640156557884 0.48747241762905724
Ni 4.373211202357504 5.164846416982577 6.245905150285902 -0.18390740958235421 -0.44079455395654404 1.227982523979227
Ni 0.6067371297594529 7.958736889214467 6.022172394004564 0.6476567725628588 -1.209747231918123 -0.7932138645017888
Ni 1.7416123767001594 8.437609962079677 1.2048696909308616 0.012141263348224251 -0.3160060620235332 0.18314507749503295
Ni 6.336863740218889 6.238866488355485 0.8123702034960572 1.2925046149220125 0.4473614085407844 -3.380650472840385
Ni 5.542722702328486 7.470688218147219 6.259825045101443 -1.1717581542688593 -2.6399205371699246 0.16922332520761824
Ni 1.3411184746694262 7.609421399896428 8.73408238954928 0.7042362116198001 0.14890621091682094 0.6026233864723041
Ni 8.974303276609918 3.2277705102586727 2.1608543081130493 -0.037098704624510294 -0.24990968461509216 0.14319810478845013
P 6.024679148802706 3.9276963195039736 7.493355206071101 -0.30332152457732925 -0.511089542827365 -0.4463283392905797
Ni 1.935771760786559 3.460877281231088 6.0434961116129795 -0.006548342641479046 -0.4792950240245874 2.31439496569173
P 2.786997129420206 7.096854785207082 2.736424213035565 0.10826915412174903 -1.091978880056687 -0.6210155158262466
Ni 8.51531842928923 6.479602513061373 7.788570064243979 0.6638557509202244 -0.028761131293092403 0.10000382878916325
P 1.3599261221515757 7.056277215899383 11.011929766635985 0.1658433529917918 1.1223927164618541 -0.9362407338196972
P 2.652278854092397 0.16123342529967075 6.173154300703887 -0.004050773030605927 1.0312273118999271 -0.7474878232195836
P 6.66491233543007 1.390666704960438 4.714979412829561 0.7025379979817706 1.206366488371348 -0.18877296520477166
Ni 4.32119441011366 0.6426821863911368 11.074850150448853 1.5350573449514013 -1.0843920688483646 -0.7071898949314853
Ni 4.709280295083361 4.2684417069480265 13.384109745502153 0.09551339711797743 0.7126727724229275 -0.5004397764230026
Ni 6.887893344731809 4.523979788042788 12.325899649021126 0.9071885536487473 0.4036580541155629 -0.28035771669230425
Ni 4.819080067679743 8.084242305027741 2.208491033073037 -0.2849797888453479 1.3535973684682752 0.968983475468357
Ni 8.560861068486966 1.904621303540245 8.975948363556597 1.5393621429743425 -0.34807825996772956 -0.13000166070283417
Ni 2.8702295862072313 4.944687952102379 11.67924261211952 -0.24343898928908397 0.4544777078705915 -0.5043203424243314
Ni 9.24834159935874 5.338894007649482 5.800321334004255 -1.1438061491406237 0.7550733488763254 0.1601481023792274
Ni 1.1834751768287055 5.298828781388598 9.779109433669369 -0.24169732400762894 1.037257320144091 -0.3674684915688833
Ni 6.322974585986158 7.561289099480248 3.998339110331551 -0.848699556273919 2.914688418479277 0.3679505734116244
Ni 1.4283285765653564 6.164818945098622 4.302225607454966 2.4949833382031805 1.0040846900468643 0.0057746977002481195
Ni 8.692337609627659 1.5796001899693308 11.557177346982401 -0.4596255706201181 0.6049520346054807 0.20651177724543146
Ni 1.6552127083510086 0.7058103020211667 8.085312636229176 -0.25884863897593485 0.7356154972620299 -1.424386009146063
Ni 8.993539429185766 4.202908373596407 7.905181204764554 -0.4058674030620559 -0.6810376620161497 1.1151190656185763
Ni 7.847521186743253 5.700738613294163 10.286891695834282 0.08140883939579527 0.02301317306572166 -0.4523277514071242
Ni 7.6167991397705554 0.5106243687755138 2.9813987120378265 -0.6191090428321531 1.8860977728712487 0.6737897222044847
Ni 6.962229663160513 3.4485344714669237 9.61720623627759 0.15914871458043559 1.1811308537330112 0.009583272813060914
Ni 7.256007166203873 7.367083138753229 12.320909427745152 0.4372865408032856 -1.9778023377660972 1.1216033877913394
Ni 2.340941957535489 8.923478846365931 3.6838722635250134 0.4918276092739594 -0.8412801238813964 0.9522401945717471
Ni 3.7458983758379856 7.179481745666054 10.446872209501288 -0.581930891119959 -0.3803936842709836 1.1450801307570406
Ni 3.5741330405614367 4.8017908186817895 8.938660036609448 0.6551106577377427 -0.1589610240496617 0.39280671322335575
Ni 5.632811240614702 9.179613108460622 7.678680864497607 -0.817869972487572 -0.1994399580003146 1.5827291971060677
Ni 6.842863048580888 0.2742646852222329 12.26989123867619 0.04367687206266026 -1.0723631627082888 1.1496201847192395
Ni 9.027465854213002 5.818167639624018 3.0370652498406145 -1.9134234572693951 -0.2079513379054354 -1.0185715708091296
Ni 6.849439670236359 5.3095041474185845 5.452233604932944 -1.429484763825209 0.7731016671329459 0.26023832023460985
Ni 6.9759511414870135 0.6409243839741573 9.982418333039062 -1.3438428601846728 -0.3843644959932735 -0.8883621649708636
P 3.3142074399203194 2.2788832415740825 9.68585368382103 0.20671849393959882 -0.6755146753153914 0.8746656413203775
Ni 5.08395210755465 8.21215107549698 13.50014799334311 0.44991965618626384 0.1138193945160169 -0.4252239532117967
P 7.113566483861354 7.88068375486433 8.439671444193495 -0.544730627920578 0.23434654006951255 0.8042485250493956
Ni 1.758314760026308 1.3596746082922304 13.359405495317576 -2.137322062532706 -0.4757098777764904 0.05242505056893552
P 6.710017154205982 0.6582630042111682 0.8305211203454718 -0.24314922596280703 -1.408226368667065 1.2125273657664215
P 3.44070959584285 0.1521500488460581 12.921319586642854 -0.7647851768474506 -0.20697354737319837 0.8756241485789049
P 6.611228099452047 4.238511557685944 1.4860845424663345 0.024036215013597314 -2.3363920387881114 -0.47784286495909317
Ni 4.27884692846242 6.017087156381729 1.4460416729929477 -3.081568954486331 -0.524421998270213 -0.15888131985166185
