# total energy = -340861.2516918801 ev
CRYSTAL
PRIMVEC
9.35105101275700 0.00000000000000 0.00000000000000

0.00000000000000 9.35105101275700 0.00000000000000

0.00000000000000 0.00000000000000 13.68620837589271

PRIMCOORD
 96 1
Ni 5.8497555263630225 6.951402816460449 0.9306324684737213 -2.348470310108884 2.350026084631778 0.5484972940518618
Ni 8.472837477299356 7.175837385763805 1.1619662430281923 -0.21165346934737095 -1.0915073397369073 0.3145150793003035
Ni 7.970657998306892 8.723370829275337 7.257330858036703 -1.0605813395820123 0.37618453128564244 0.9029773437808772
Ni 0.22874633880903378 1.0938672158646703 8.084881083346703 1.075948823177018 1.0851662280102279 -0.32159049808984613
Ni 3.012637374569036 5.916914772925112 6.207708138845455 1.8479778260710755 0.24072467568171443 -1.037349108526949
Ni 3.6977514595896466 9.093635035189076 8.743009906082591 0.6211492131906334 0.03381334900501919 0.07859965208177432
Ni 5.572758700734756 0.28552311371171224 10.755539310342435 1.0922020518110866 -0.2940907500076806 -1.3749184985435547
Ni 5.784887287237262 6.826463427249077 11.80698174401168 0.13131189487382547 1.078172570301214 -0.09399181826712845
Ni 3.5248972862813455 2.8725866873286567 0.3514676587800092 3.142451906014633 -0.003495414747768174 -0.5161636149161627
Ni 5.8931537529426175 3.32362526971181 13.226611515220753 0.18884521320360378 2.5928490376034183 -1.9415394987793206
Ni 1.0453820176713493 5.558582507781801 7.090591336820709 -1.9842653197826212 0.5343130321316798 0.5301820406824418
Ni 6.969927248017049 8.40950281049832 2.6975929936063476 0.14626080287417392 -0.5180454053199078 -2.361915636980513
Ni 3.1162657190971723 1.2745949739133333 2.3226317548955953 -2.342629277947075 2.6702400140890723 0.5052243422958396
Ni 7.865533485657072 9.276476130709618 11.536200561823936 -0.12592466241998312 -0.02164354641170466 -0.5689733025180265
Ni 1.0603156457359075 7.964271230637453 7.5165204777017 -1.6476495519285366 0.06501034343311385 -1.3263817272854317
Ni 8.38615323674929 7.128651983626197 12.197039319070223 -1.24657519937975 -1.5171645238313807 0.6596522543618382
Ni 0.8132842622697434 8.491492823566603 11.530739548179788 0.7715392077418326 0.23025128695421637 -0.37305472740740914
Ni 3.4452917911569982 7.3608198719085065 13.68375820396068 -0.3766277894706481 -1.6318953744180733 0.2582917380312003
Ni 7.184786341341628 0.8665768356590504 4.185529385305825 0.988825964115581 1.8456193531412277 -0.5078453248584544
Ni 7.343679395864465 1.9624208636544955 8.924680250047915 -0.5207872297311031 -0.7285092252345517 -0.13517600581492203
Ni 3.4136665374849033 8.730515032056378 11.379329204475523 -0.25545915367841165 -2.3821964987167363 -0.19010273975978872
Ni 7.439032060469536 6.4870202846420275 6.283091634551426 0.6372345487882702 -1.5393459450244262 1.5532432718318088
Ni 0.774895393582561 8.648917763120037 0.23941027709633628 -0.1647218377928389 -0.5258229923827976 0.8838516786950198
Ni 5.627041550399603 0.49836144496694124 5.812368155212291 -0.8542274280706837 -0.6399228942537108 1.6392219899864737
P 0.5476975887794701 4.7325013325462795 1.2625349237474845 -0.8805789214810189 -0.6243664345763505 0.8883932753191152
P 3.401388607836334 5.443003520381714 3.6988483378438564 -0.4231984381413357 0.3195657543503335 1.2668537471231278
P 4.816632736238721 2.547946258075517 10.29773524273404 0.3965247855048913 0.7389576742613854 -1.7612789419209347
P 4.295760506775968 5.204121577653348 0.6203449670329112 1.1335937273839962 -0.28819083958347785 0.3639918458741925
P 7.267300013252497 5.082277386243709 12.007402814962008 -1.2425120850539697 1.264854457304912 1.9493888196204103
P 1.6412590252842714 4.206813311941856 10.079454599936188 -1.0298877671528974 0.6063291174586655 -1.1377038928976277
P 0.20167317664716236 8.893344878949396 9.447506849119618 -0.6212764827971172 -1.5202488191836592 0.7884362406074873
P 0.5500858471437081 6.884056548883149 5.0919538535707005 -0.07853666005432279 -0.2947841765302794 0.761278706356089
Ni 5.607628769020753 4.809479182406919 6.5115284535802855 1.0104751669542404 0.9713794865043592 2.1919574904893993
Ni 6.962567971068516 8.845682573223002 0.06717701355853413 1.0179187677164792 -1.914209700616116 -0.6331896892949352
Ni 8.524558139055818 2.950770822737404 4.373988592123291 -0.4457572972784581 -1.6084096325913075 2.0651643094215335
Ni 1.412055420093048 2.6322366296308872 0.7295381218686353 -2.797059420409183 -0.14588079382693586 -0.4681086683904647
Ni 9.418939389046214 6.453730543934559 9.562539735155289 -1.7027925156492676 -1.2742533820213087 0.08883135711211153
Ni 4.62488944039416 1.8751942621603201 7.724181132150827 1.0239657452415076 0.6352774250618994 0.374506115141955
Ni 4.337858937299851 1.5353022691167648 4.259175455780491 0.16421301647722042 -0.43489412931170907 -0.5608000226786148
Ni 3.7299751805104147 7.411427758624466 2.800293713899039 0.4114994045368526 -1.0392856634280294 0.2993247447131103
Ni 6.233101852290736 6.402337168954714 8.667420687259888 0.4435201804178232 -1.2865381129259328 0.8497647643136397
Ni 5.263351133170511 6.591443468484807 5.087861833757895 -0.8331996608661071 0.11514042732028557 -1.7408867514178277
Ni 7.281373344647087 8.188322406859628 9.670140406046494 0.7367169578563247 0.41338530870565576 -0.7123966359434054
Ni 2.397992808079741 9.005473328618848 4.32198085310848 -0.8497981886547364 -1.4362922736653456 -2.386778204550147
Ni 5.446463409163108 7.79208098193315 7.144747947300288 -1.2484873288007983 -0.4441519004645512 -1.3206846769006546
Ni 8.27014410101422 6.536309673200752 3.6949339879955003 -0.9380366493778555 0.17798101679559022 -0.042269707302488496
Ni 6.036589520558308 1.4346101545274337 0.4659862370238523 -0.31744305158037583 -0.5719712088040859 0.976849251369679
Ni 8.475203293141767 4.3972848648829865 6.010516920827812 0.04607339731929484 0.7678327054245228 1.7292892763882153
Ni 2.673727241855336 3.731097306601678 11.762228550176884 0.4148354108886211 -2.410254947515849 -0.9666386293852642
Ni 9.083956697651933 1.2720514881064704 12.96376750491854 0.11962520256451656 -1.0830864626630639 2.3150395412542646
Ni 0.3679703931621834 4.816202587903736 3.8785203622616553 1.1580006954734507 -1.2402579989124705 -0.3968052928597876
Ni 5.433540257012063 5.166100205261054 2.915819400309791 0.28972424550886877 -0.32770149608359045 -0.42770763886559887
Ni 2.874578461140648 0.8485620363688993 6.0004991401480625 -0.06498488951181712 2.094794730693457 2.561292860063692
Ni 2.0335356046882866 7.4784654415266685 9.360052081986884 2.4363326184395073 -0.19211822752792077 2.1419888718807565
Ni 3.2723441073410915 6.228080338032335 11.295131408322682 -2.101839296245064 -0.0059546749215381315 0.9160699152987771
Ni 1.5674698837329701 3.424354788504183 5.936762378164325 -0.5297174423411973 -0.0890136483262467 0.7739668433467186
P 1.7153474004599092 1.729402029752978 12.547912251021861 1.558673955929077 -0.15782022557699915 -1.9868904161102943
P 7.511418544406759 1.9802533174548167 11.763734069349328 -1.8927821268699596 1.6263163376683991 -0.4890091659885578
P 8.404761827762735 1.4777839558887769 6.344871221610985 0.530758482011202 -0.49328439632514404 -0.8253745083947334
P 8.039799667630213 5.251512702907687 8.091217355342033 0.35570749437821314 -0.26482285428149877 0.2194338846237382
P 1.0923149414384232 6.71051974886933 12.77035411140815 1.0359231747136999 0.05871165490859565 0.4036847935884403
P 4.449594642837362 7.1860206800420166 9.865730724173936 0.6321188248282598 1.201769098808653 0.0389486133490555
P 2.155304987691841 8.79221326497432 1.9898923805787656 -0.46893682071871495 -1.8149368364557066 0.23291957781499886
P 5.142647769953658 2.091839406180159 2.281942527721324 -1.0241938020919135 -0.25473024593218707 -0.5503130071043619
Ni 5.884251552618598 4.030162612024783 8.85968483663181 -0.7617191363276171 -1.3369607883528587 -0.5725998435270202
Ni 0.3579432614316726 3.6589165457811874 8.436616182178463 -0.789499391764679 -0.0910173090198368 0.3010388991907396
Ni 4.235483633573625 3.6587949821213 5.271722193811333 -1.2839122452673113 -0.5596543391099458 -2.851851428548398
Ni 2.4274766711276756 2.2904557243337056 8.310101140913943 -1.0274580746654822 0.09520795006241668 0.814270428061772
Ni 1.4123640047681452 6.7003645077434 3.0681470820936636 0.5929809782865336 0.9180465794091738 -0.5422672539817499
Ni 7.001636661145989 2.8649094746542656 2.708883452294605 -0.5664945019602309 1.1357917634765795 0.14210127217984558
Ni 4.302549369628109 1.6526299030090694 12.076340631378748 -1.422791925186066 0.6489050431476631 1.275529677630571
Ni 9.182862761546005 -0.4593049112554573 3.281254723610796 1.2531747069741384 0.057993288685332385 -0.6532800322869071
Ni 6.877370547589375 5.221617393626289 0.6962567971068515 2.266046913405646 -3.017940579002409 -0.8906501896740919
Ni 0.11709105230806342 2.2543326152457985 10.894030242315958 1.1355017430399863 0.9468943568788015 -1.6213551370083816
Ni 7.640724874323295 4.071587766893907 10.249505328226483 1.5504112016996523 -0.5396107901955094 -0.01691683035999667
Ni 4.837859621465112 4.604270373467203 11.276750982947792 1.7568036797584001 -1.15258081000946 -0.5326186751483925
Ni 2.58149782820428 3.9725414372384282 2.1551535006695204 -0.04232447179982388 1.2026373603462193 2.36973256192177
Ni 0.3178347345096296 9.053406814817299 5.642481070310305 -0.10353678164308619 0.7053710965551917 -0.5885805352259927
Ni 6.664793110650364 2.5586812643485994 6.404419647959083 -0.6633803539457026 0.9853241216099095 -0.3975642825129992
Ni 0.3305680603302362 2.236864852425138 2.709020912740785 0.756782104037316 -0.8948099774787364 -0.5027892504917857
Ni 8.085573061102982 2.856876922050975 0.6875855677366169 0.7678265347769357 0.8423198779998202 0.06322136985349112
Ni 2.26095315918425 4.851044603037452 13.55145392717032 -0.41357068524358453 2.824942005752064 1.0642112230251157
Ni 3.9705590144771974 5.5033926061931835 8.69880281361221 -1.1463674821098966 -1.0755405319950058 -0.5842083743002262
Ni 4.648080046280261 9.161523663710486 1.6739596497938267 2.151942126438726 -0.4799653106187347 -0.42135727116753885
Ni 0.12434746769823068 4.8132289537618895 12.20107616768354 0.13746145941498905 -0.5358963174583996 -0.5340626066837705
Ni 2.1511811743064495 0.620625498555727 10.245796701494859 -2.222595784200547 2.750965454264598 -1.0507723239113902
Ni 7.094819881974618 8.176895422830267 5.084220534591746 0.6762782929542934 0.5649901495005625 -0.8089420738703229
Ni 2.986276762475117 0.35253461367178507 0.06700495422454048 -0.8606549288635823 0.962505581053497 -0.7097304019651519
P 8.260390955070992 0.568828158183028 1.5419433853668894 0.4606846080122518 0.852816663766086 -0.5014574190542397
P 6.6348510461151635 4.16072198274323 4.6751952881705545 -0.05870137049595052 0.4003960955348395 -0.4886882923140294
P 2.163215976635245 2.484321708700906 4.172021792482248 0.41047456281676403 -0.9251201984265035 -1.2845318811291813
P 4.817895128091392 8.892288210213456 12.831997173126606 2.9007111303635784 0.1745205690508156 2.026185871275807
P 3.0267668122681894 8.240417110646511 6.8545726858352145 0.9681805199510874 -0.9132201045548078 -1.0102028871294602
P 5.782502769293328 0.09314955704589177 8.306597302193973 2.0247720216474163 1.5005084033319385 0.9606998953033262
P 3.4244576500625485 3.769782603597969 7.140231389782954 -0.010563377338143097 1.200995453867422 1.5528990011185126
P 5.306431424024249 8.515777502391686 3.8830238283079246 -1.3658198786763962 0.7676193038621361 1.078743869423652
