# total energy = -340894.69155756314 ev
CRYSTAL
PRIMVEC
9.02993457597102 0.00000000000000 0.00000000000000
0.00000000000000 9.02993457597102 0.00000000000000
0.00000000000000 0.00000000000000 13.21622201171120
PRIMCOORD
 96 1
Ni 6.070535931553522 2.1976151321529223 11.572864144697997 0.5604606370613251 -0.5677859670781447 0.6049641187903387
Ni 4.758721243184439 0.06297927739327179 5.7591007184383125 -1.2699493553293162 0.16882480421761892 0.2533433928869895
Ni 2.4348224786069843 1.6155545913983294 4.730905433293804 0.8262108882530997 -0.7898606317588397 1.1246671143183276
Ni 3.3521825430789716 4.349701335118537 4.8958696926653325 0.15403941837832827 -0.43714924389447296 -0.030824184469708207
Ni 5.077315388282929 4.444154448823264 2.598890968487164 0.7925872866613833 0.45776254926945037 0.5369484128719979
Ni 7.206510707573449 6.048620280792396 2.680117937292913 -0.11605394027349046 0.05833833072957695 -0.5146294376598234
Ni 4.771020013821709 4.4786307383189286 11.243449429221654 1.2983402477671833 0.0878723356329519 0.7036443436720721
Ni 5.796089135680885 7.930151589606859 12.273653874767625 -1.0426671783057528 -0.41807397243057676 -0.012065415804966317
Ni 1.768286901647064 6.632504868293485 0.31723423697956676 1.0471990047378352 -0.2685468401003053 1.0225107579625359
Ni 2.6434410527867476 1.6966343722735446 0.30237006198249683 0.10041674795686577 -0.5488055693209 -0.16262407472354573
Ni 0.4057528778041083 -0.09933650222208106 5.02941971329237 1.0661768313919187 1.6027791737784074 -1.1830702368475687
Ni 8.774594933890922 2.332359813099571 1.3527600228607382 -0.04776852563353064 0.29932885847816837 -0.4842230574538241
Ni 6.962061353739732 0.628330827555204 4.819995668965144 0.43465835915181916 0.12162423527241635 -0.38557522847192305
Ni 0.9384088415318074 7.370963872658583 2.6780293134688304 -0.38146660562018814 1.0989483693959847 -0.34460675647936134
Ni 7.480840114299035 3.755134335235737 3.792091147707949 1.185744184135306 0.7106729683840793 -0.49318103797806034
Ni 7.550569267647783 3.9618566231938943 12.573820632759302 0.5566533475000929 -0.3610880419638362 -0.3990164415784934
Ni 8.017489115013372 8.759533003330743 6.983901153051994 -0.4496016107252128 0.597388620435926 0.4532075829089162
Ni 6.854948272022192 0.6009927011937257 0.39506956242895885 0.011453236142264147 1.220534295231298 -0.7710229302270463
Ni 1.8501342269453098 6.5099054490995005 9.227896737205068 0.3586339239963888 -0.19415839788640107 0.18320781241216835
Ni -0.06022424441131075 4.864732672906572 1.360055306853286 0.26564226485900055 -0.12408529521839921 -0.22852530540204516
Ni 6.2490216146785365 1.7977967272289999 6.894638445633832 1.0060886078507705 0.6903329712751466 0.18371766216905133
Ni 3.540077417836904 4.447251716318553 0.6725404833283375 0.2925030938055866 0.6415912830950692 -0.9179195669130062
Ni 5.943259006346243 5.56597931765626 4.913646021502726 0.6643154641654624 0.18204773066579613 -0.5524735050907905
Ni 5.310784341900112 2.8360224634923616 9.356503771747786 1.1261719809986284 -0.1509738920791271 -0.291002340890344
P 0.24171508970084993 5.741548331973758 12.346581430876812 -0.08045264613011305 -1.8846286445248899 -0.043353684395286626
P 3.975843991561832 6.271804139140967 12.604323751123985 0.6404641114691614 -0.7335105351038851 0.03853595129166912
P 2.354419942810914 8.535391971936981 1.3880336555629158 0.6142463154232131 0.031770607543377544 0.7009891654374121
P 6.41874826144661 7.598500159382458 5.845918119624042 -0.7766474755026753 0.3159422986651333 -0.3165843031245064
P 4.603966227632659 0.9696162947787996 12.819656081521668 1.0417454378224318 0.34194566470743043 -2.0411206382087688
P 4.027684844886769 6.168131462425482 8.164043144153428 -0.31905179082839247 -0.2575108940011178 0.10843190495185841
P 4.9274636271041565 1.1081896679062135 3.845709092120562 -0.45150808371930623 0.25241445331481693 -0.613404279137892
P 0.13498126522763 5.5297783106923735 3.574934770563767 0.10897440771888973 -0.7224277949271622 0.25482460541820634
Ni 1.6818072200074679 1.2170184371575883 2.5697486612348435 -1.1514891196071784 -0.7501573996319468 -0.42652930228678154
Ni 1.8088313070518658 6.513797350820986 4.83654212073881 0.20350898586336566 -0.3356927418191831 -0.5068022283059207
Ni 6.124860016835323 5.837671983540376 8.992991121026659 -0.9693357166014532 -1.0086679385421724 0.37989051938231994
Ni 8.222586014781582 2.426957405754516 10.209530971661652 0.6356414932695376 -0.9077328561879916 0.5497255100320081
Ni 2.324603099459766 5.262853450165437 7.09078035946887 -0.12489056472851394 -0.7022775452315325 -0.24080386565908207
Ni 0.6553059505542606 9.13883539732377 9.25847841599893 -1.1611893776140776 -0.026490590091360827 -1.1414924134057824
Ni 1.3207182036762395 1.0016093523176 11.39336078796739 0.2901564479502809 1.6824774582409994 -0.25233757733029444
Ni 4.3219342868736 6.936786567386048 1.4731462051360782 -0.4906592999974711 -0.016314420889307388 0.5400278231282699
Ni 5.425997274764225 8.046520354072713 7.898225353582534 0.22863509150703204 -0.3234841155681332 0.1281404391243793
Ni 5.542013871788923 3.022508668485673 4.7742671782278485 -1.8027863171361016 -0.9141217904334707 0.009903889377273266
Ni 0.9347246283012597 7.334645476547644 6.927190456111286 -0.9154569643051267 -0.16190647983123085 0.653195700103217
Ni 5.052275380223349 4.502460735170437 7.057978219808851 -0.07907324928408317 -0.3889793690574656 0.13584397841622411
Ni 8.260186661575702 7.258189022079391 9.17369636202439 1.2034413443047534 -0.025178299037840506 0.06305424814800754
Ni 4.840451179335633 0.21703808500369126 10.362879123435688 -1.552625692852468 -0.06363326057992912 0.12654969759849174
Ni 8.258922470761297 7.081021709375113 4.816731347683666 -0.7794026696503094 -0.9570656409848486 -0.3926755869621302
Ni 7.561269739898271 6.275885669484612 7.171650645866269 -0.357070693274327 -1.0878106076116105 -1.209360795112982
Ni 2.153693531286785 5.358552694815791 2.551259870574191 0.4927298093732546 -1.1032781071195903 0.11914106383924643
Ni 2.409159405074591 5.137743709211422 11.555114905663771 -0.9456756539803519 -0.04604768628768199 -0.5806720790121934
Ni 0.8869192526545868 3.3657635643994217 3.835704827811435 1.1001339050636538 0.5806224567211807 -0.9541656937292342
Ni 3.3912460392440433 2.8317242147233896 2.854625031326311 0.24558097533275125 0.01710117845666087 0.11382376539139107
Ni 0.9896446892527084 3.36262114723219 8.15255887359801 0.1343231708963235 -0.07470031702736811 0.7074693738451171
Ni 3.6916629264182865 2.3638471943126094 6.841787142650811 -0.1483588230537832 0.7544354581820103 -0.43213250740617193
Ni 4.066630951904789 6.60266996507356 5.896893002241113 -0.20337811671245618 1.2397013550780522 0.30539254817374506
Ni 0.8693650602031536 7.559111585579396 11.337733683153314 -0.4642939226300649 -0.5127234788863622 0.3068349370472264
P 9.353115740365185 5.440661888211307 8.17010945407569 -0.5599906394034421 0.5398822986893411 -0.36751040055041223
P 8.374595930279229 1.6948012955926592 8.017131529611582 0.8355275376683353 -0.48113953343249394 -0.30882934176943583
P 1.8165789907572822 3.135364788474362 10.497407085957011 -0.8887583719680178 0.24156156976071302 -1.0558014016948656
P 4.002157220370204 6.030289513983544 3.5784510270146868 -0.10149095485765103 1.1548973739577788 0.9061968791594393
P 6.792117988546331 4.192761075444716 10.358306364661303 -0.4237010888093671 0.03011661687972233 0.8792267783284987
P 6.342806513238508 7.6947502300305155 9.932267739253211 -0.3210413104545955 1.1503418933766123 1.8130571029344906
P 2.422343109281943 8.467784853169553 5.713359585792873 0.3544368551959057 0.6205295773287637 -0.060228862884070464
P 6.874958606627323 3.8891205016937436 1.5467338494490739 0.3028361003004784 -0.07294785311263566 -0.5407719003831462
Ni 4.977236625454106 2.5617743261762738 1.0255775071652538 0.6634878260578444 1.0296759082524072 -1.2819702910495923
Ni 1.3495688440478077 1.1808354900624787 7.039514712964487 -0.14670020440443768 -0.4407858122057957 -0.5292387029325659
Ni 6.8623347583520635 0.7162110520184717 9.195728498939129 -0.2217792449274632 -0.27402406116479255 -0.66196727564826
Ni 2.6281714337356292 1.531097615061779 9.009234167004868 0.7893659515106083 0.29362255212201044 1.1521087554690481
Ni 6.625669207961317 1.8198839467435088 2.506641158773254 -0.051660404488769095 0.19094657581732277 1.1031626645876484
Ni 3.9507046542239768 6.597577082078391 10.434616534192461 0.8470969876734896 1.6987245162274809 -0.6833742805691263
Ni 8.368446544960594 7.242802013881222 0.3825305955369526 -1.2480528123665409 -0.14427873944713862 0.301719470197532
Ni 7.566642550859487 3.7681645305584826 8.2582091059446 -0.3410316375335933 0.49490856219212825 -0.5791160473789833
Ni 3.057598993519762 8.386000737412028 12.463320422652599 0.9467490895501889 0.1224143352738795 -0.44623500824582507
Ni -0.06411253415904075 4.652213167070934 10.36332881416824 1.6207624977297055 0.6612753917875579 -0.21994604837346635
Ni 8.647606966584078 2.3535982187815514 5.689781524110806 -0.5682060853346989 -0.7570374145812316 0.663730795306586
Ni 3.6201909957325387 2.368253802294245 11.212285319659726 0.5057164514409097 -0.46494106929576057 0.725666356469118
Ni 1.050307788475305 3.5085177971487567 12.597993767117577 -0.8927289265799916 -0.5694250453434645 -0.5133328303355869
Ni 2.8706793516757982 8.363922547831907 7.880013781907611 1.2902582420899973 -0.11728138492268836 0.22686103032574478
Ni 5.809652097132558 7.892722511566123 3.5506307021568575 -0.6580887665294601 -0.4149691082530079 0.1909766577243098
Ni 3.306111817828348 8.417614537706505 3.625976474695313 -0.21172417468430635 -0.5098410151322446 -0.14971250886820023
Ni 3.472497388872642 4.045816953139072 9.103980753577225 -1.6439191383518268 1.180898940227863 -0.04435538618692361
Ni 7.441514750036694 6.314587968274141 11.290843039860206 -0.7249670164092482 -0.6267675878186755 0.5350542811730785
Ni 0.5717032060108714 0.1563876276892387 0.25584874300588245 0.08313070718290844 0.19093809117689053 0.6160643424685583
Ni 4.657098361575166 0.3573795192843926 1.692324384589867 -0.5646466501182147 -0.9135610328339944 0.6529331904704496
Ni 6.063754450827686 5.624673891182142 0.27613178162954966 -0.30608340359318253 0.45978163658200816 0.1362926359178685
Ni 7.980773401789335 8.916084975825854 11.207091301399405 -0.6606362155416622 -0.0858409070252199 0.3076512623009347
Ni 0.01667828881573919 4.715422707791115 5.797243161295747 0.2350037140375372 0.9437414130721166 0.3308888926726366
Ni 8.076842873749623 -0.16397638454941588 2.4495340477128873 0.7114368431332974 -0.6542858478436021 0.257481326314763
P 8.696296372807396 1.551460117108066 3.541075225586844 -0.5509694097414382 0.2827395866609195 0.95858439162222
P 1.8345214703874253 3.3556139181466382 1.382244564626386 -0.7788144012470071 0.33202583449055717 1.5883557992642257
P 4.726872664595857 1.1176259493422978 8.249565652747833 -0.7324849220528482 -1.2648829965500024 -0.10355040848984103
P 8.323495531574157 1.6866111451022014 12.345061692919213 0.1569519640394329 0.7209059589659971 0.41758469149898403
P 6.483285202521915 7.799912845920121 1.380222762316779 -0.9978991300614427 -1.4970654390886604 0.25656421381713235
P 1.7602412301068238 3.2704164871902233 6.019909604403852 0.10412710692891745 -0.1982107135789038 -0.0203875625174165
P 6.960426935615396 3.9162103048595354 6.12289058814517 -0.034083057726638076 0.42339461331254186 -0.473127718871611
P 2.4313008041954314 8.453869724276725 10.218478733647313 1.5765462082238073 0.434372195369968 -0.3664973859048656
