# total energy = -381169.3608698532 ev
CRYSTAL
PRIMVEC
9.24824467685278 0.00000000000000 0.00000000000000
0.00000000000000 9.24824467685278 0.00000000000000
0.00000000000000 0.00000000000000 13.53574091147046
PRIMCOORD
 96 1
Ni 4.90108886620448 2.7626726970722926 11.079653516712133 -1.2199992486634343 -0.4385715781632963 -0.35546709623263295
Ni 7.184905940999992 5.624523572005766 1.7927010543099866 0.21498896147850716 1.9125641945928933 -0.5849668497328054
Ni 8.4052488430416 0.9131911186298457 6.279325203064101 -0.6216055840017618 -0.43662139641546094 1.0921580859470286
Ni 4.447813889205956 1.4028940073010112 13.054301765892271 -0.7256591573802664 0.04512620291467712 -0.23013635864290688
Ni 8.738564835982181 2.5768939543573173 8.339356948074672 -1.7497202905490576 1.3054650317374228 0.9323403703240265
Ni 6.774542820144314 8.015657280137825 2.618462040522242 -0.1965703497620034 -1.7070034684068216 1.5059321454506711
Ni 0.8968688912793051 2.697111889271294 6.634990504529425 1.7092038184922498 0.09750728761955464 0.3342683506678308
Ni 7.830821858398404 6.410282199907618 9.37475992320996 0.07666206873942925 -1.2256780442157664 -0.2259338905257851
Ni 8.90802042652213 3.3733343050705904 12.619506631769745 1.0431523454722873 -0.7926117121414157 -0.6412346710865989
Ni 0.12147754586368681 4.5941488675999755 2.0891202495636083 0.9584815474957687 -0.3831884734073014 -0.21068904855157264
Ni 8.884761090703327 1.580876479600379 10.413573651049013 0.21582251312339604 -0.05998255120121927 1.6365842952533105
Ni 1.1837291006473136 4.9202512295510274 5.990391537198845 0.1107052743670674 -1.0526780255745354 0.743301553052378
Ni 1.3351691102031538 6.191108045009063 8.778658751916682 -0.4798092446568446 -0.04001510694035689 0.8110061554882033
Ni 6.028977064396944 7.780122980084808 10.038389928810096 0.5849483377900442 0.21417495021764407 0.019832718455211003
Ni 6.097525055287198 5.94885027094401 3.627064526882453 -2.180866008561928 0.3608589566721656 1.52968399645463
Ni 5.0994544701717 3.964694826049466 13.05507306951346 0.3770335095494991 0.11122617986754393 -0.9779977631518253
Ni 5.192815502016964 1.9043800847462284 6.003954088283648 0.026689593476044354 0.7627789450506992 -0.7634026946776271
Ni 2.1694810236114597 2.946888486406203 4.63588342217235 -0.21256903918310488 -1.0057265965256614 0.442631864275599
Ni 2.1181810093820705 2.4740164785527887 11.510185209954951 -0.30094402548408816 -0.5049875436946852 0.6356844306923309
Ni 4.039226431363085 0.4254913997950035 10.690988627943167 0.10109706185334202 0.9549084854325296 0.539171902885878
Ni 0.18281837953581023 9.058193426532375 1.549179045172795 2.926156309909561 0.5275870262617558 0.7626856140059445
Ni 1.3278445002753232 5.8385926957425 3.999947285800608 -0.11643780597547043 -0.08014925595708132 -0.6143530162044065
Ni 3.4760360642228103 6.2408820988368205 3.4113455162629847 0.9886254180690005 -1.0901559679153354 0.28164018294915366
Ni 3.3839512901680013 3.6126603855155386 6.562655357369669 -0.17109405986776985 0.5759510193874403 -1.089559214871601
P 0.00234812936954063 8.32503881538494 7.631031099898509 0.5616415447433037 -1.9423239423538288 -0.5439875791069663
Ni 4.463665380893206 6.060162146059374 5.886599409977823 -1.2211194783108066 0.22019698804200788 -0.5145692738458493
P 9.309653204231507 4.427440005782963 9.82673182250794 -2.0012124891599212 0.5859004172906684 0.3914329728042807
Ni 3.2483812687891276 8.424688653733899 13.24181270486922 1.077080622788616 0.22164580467339248 -0.29830041721365397
P 2.8752608299781124 1.934603348943388 9.487444237862306 0.20880288727245333 -0.09704500327115545 -0.2016354229897366
P 1.5191999346398966 4.477204811365862 0.33043886396514277 0.2522097935031785 -0.6733485209020081 0.23627023945478665
P 6.694804452975431 2.0614060341965255 7.480067374952876 0.10950122675663722 0.10187636322152777 0.7884233850916809
Ni 3.741053768884316 7.531631888985214 10.14215523612103 -1.9325002713951878 -0.5069279552505076 -1.794859091869225
Ni 1.515537629675981 1.3088486053362274 2.690093396248276 1.1550647527735785 1.806916280144075 0.48080374735963005
Ni 1.6044410074995104 3.8200337799748123 8.620615495531965 2.0895440238174787 -0.8000884801344349 -0.25995575599718457
Ni 6.855723913511102 3.310520225992528 10.098570107752495 0.9278579090726407 -0.4655059406602951 -1.069596398596429
Ni 1.8505183066910704 7.032356142061148 6.275304991024166 -0.41095073112223424 -0.39270618308974947 1.183542548498297
Ni 9.33804531594671 2.378213910064914 1.0570651390670518 0.4221784815172536 -0.22800362857062023 0.7039847577306263
Ni 8.754592044321742 0.753580284741634 13.011650710254433 -0.4286504623948424 0.0925928810370728 -1.842536857561162
Ni 6.297546095084066 0.7943372998324789 3.618577412575925 0.14855525533530545 0.7762016462145084 1.3360735006518991
Ni 9.109419454802897 8.25864566554669 9.99422308583997 1.3122753697910368 -0.20218795305909695 0.603881170138805
Ni 7.012555649819373 8.444285684588788 6.807205771335111 0.014185547471762665 -2.445111393073402 -0.05312799017323108
Ni 4.588433452277501 6.386995119354239 11.719082715166884 2.2476972072538643 -0.9518624995173542 2.4882205655580503
Ni 0.8908279377378167 7.995893780875485 13.139036034933646 -0.3234612327499978 -0.7446814641190401 -0.8815582546751526
Ni 6.6978933667581275 5.834042559272182 6.028588638112893 1.2872135417264026 1.149471060735885 -0.9329574350827352
Ni 1.687314529675381 0.1606568103816936 11.210070416055924 -0.4887332866193519 -0.1990164973096508 -0.07678908123559679
Ni 4.526100281932075 3.338348194771369 8.593246239698098 -0.16564306405552764 -1.656448124056773 0.7765731706213143
Ni 7.690609218100627 4.897694760341458 11.469429119688591 -0.9744743233795992 1.5606968998963766 -0.11930998531694291
Ni 9.290971749617595 6.869078379086591 2.3701762604585026 -2.5306226846733444 1.0734990760849448 0.8318943117911222
Ni 3.1549647474747124 2.7525088759729415 0.983984583371711 -0.36683600019120693 0.17539114458122698 -0.15751272163890936
Ni 2.7297212006419134 6.136941074873579 12.912474382042223 -0.08043721951114535 -1.3046682468677402 0.3368273696442586
Ni 4.359289689421621 8.326250335461388 3.0801936126192615 0.6197986127000099 -0.23503096773104684 1.677548396370498
Ni 5.679615366627088 8.520861152016108 12.498009664591857 -1.064394285570199 0.4572542421744641 -0.38393229355186137
Ni 6.355523342101199 3.627152385208608 4.522101340855315 -2.1785041931979707 -0.012867599991287518 -1.5472616003270772
Ni 7.3294467598914865 3.730177832930871 0.8143995174037452 -0.3367468941153104 -1.1045916837246912 -1.408096013736788
Ni 7.743009773468162 3.4653913343908243 6.163121006418658 1.2543728410472976 -0.45651505001559445 0.3466986060113836
Ni 8.750097397320571 5.099463718416559 7.565247409396424 0.7369591557741179 0.08014925595708132 0.2175477233446189
P 4.1731687616468855 3.9317155848845116 4.2926708824088236 0.054366490566022496 0.6040876297226563 0.037284338272755145
Ni 7.692403377603151 8.244477354423664 0.7116811114107799 -1.5190730537080033 -2.5184878490830234 -3.3097777570892224
P 0.24490924586594762 1.8841819179755441 4.903092036040804 0.4893377529725702 1.242428524201228 -3.8566786531882413
Ni 5.805373000211229 2.1856654521136103 1.7026065025486992 -0.027714435196132915 0.870005773950863 -0.4965517542225061
P 7.214389345608482 9.39723408304029 10.88855610837911 0.3918605472600025 1.0945726089257923 -0.05810693144506121
P 7.042140785121306 7.887199159055039 4.683487837756334 0.029077376981930567 -0.3826315724625668 0.9368842809409671
P 3.493117572476223 0.39463000670261644 1.7405742469902592 -2.823390602104544 1.363014033796485 -1.3550757527860144
Ni 3.291209890728248 1.2663066789877162 7.203437574047197 -0.6557500910939545 -0.284702109703929 0.9742020435548191
Ni 4.677179609938438 6.920785316089749 0.9352481826170627 0.8708627226345195 -0.8751333249854154 -0.01639798174204918
Ni 1.748833854473271 0.8998847439276201 13.639966292862876 1.183596284554368 1.0606134783715282 0.007239712281548822
Ni 4.798239135134527 8.792297138609323 8.187512790218522 -0.8127277661650002 -0.3753568931780245 -1.115550753839356
Ni 5.450850781810399 9.231718244810006 1.1937209043922987 0.6464043882129965 -0.12206929322963493 -1.0552136475121956
Ni 8.879591321827496 0.12101420879628239 3.805207918642356 -1.3438035223063052 2.0282900621030033 -0.7550664068977899
Ni 2.4592285350242515 8.11827580508632 8.236498893584345 0.2199704738534986 1.1406069254770357 -0.22313138807998348
Ni 6.516211596515411 4.644977221341588 7.87911434339985 -0.6324497258051173 -0.901305355395093 1.154388038421528
Ni 0.8447152640494884 5.353864437980653 11.734269258048815 0.9273218340635127 -0.9378361033312751 -2.704656543895729
Ni 2.4152346342329762 4.08770573091067 2.748946452053497 0.4971924731302985 0.9218389565720705 -1.140843466967874
Ni 3.1782425797832348 4.343928354711864 10.891886401352608 0.5337602449520032 1.7037029432786788 -0.8883426245868379
Ni 9.054216681243274 5.919440852294388 0.007022192320961796 -1.9027626351214393 0.25503440743616723 1.684740286133247
Ni 1.8199806021687264 8.358637688955405 3.230778159525702 1.0396834130870802 -1.142586674911226 0.7297119872934014
Ni 8.199059223924198 5.114834301371173 4.17078178964894 1.0000544858415488 0.6111908164263409 0.23210299545097446
Ni 3.727847275226561 5.399393547418418 8.073203558944558 -1.524881175749348 1.052391090461736 0.3846969396320278
Ni 5.120651447387089 8.825193145570552 5.697870477153027 -0.7226314262975362 -0.030911859087508053 -0.9458744002547195
Ni 6.683503097758501 1.7203955015337775 12.315791496147355 0.13110826350345162 0.6435589483444014 -0.10566462661936642
Ni 5.378168825468454 5.294481457745047 9.83742464321319 0.2127122496291885 0.3082960949737852 0.40342125551440844
Ni 8.105994135914402 2.91185613488269 3.0111610136984304 -0.37800744342699416 -1.313863283103447 1.2496641227177188
Ni 7.69042425320346 7.630782322111819 12.01091293132178 1.4821990634997892 -2.0247010592001646 -0.614531964984432
Ni 5.7162661610008145 1.2229139141122352 9.265228335229832 0.48068547661421096 1.5089261950819883 0.8976178792411769
Ni 4.015930102564846 1.7371348247274307 3.391501557270376 0.18776663542744437 0.6552590103901489 0.3819489445732454
Ni 1.6762813735593434 0.12848401616838936 5.52784796920326 -0.07263006476190072 0.818537430868242 0.591923997776929
Ni 4.83906088793938 4.488006761360441 1.6474351730215957 -0.05292795834728304 0.5781017471818559 2.083917421659321
Ni 2.007183574591891 6.681736682990551 1.4749489326415584 1.3778181886888528 -0.5820576465058105 -0.07462421237379406
P 5.36359359157166 6.773127838680983 8.032135802826472 1.1773166221932432 -1.017990501494679 -0.31425205544690393
Ni 7.742787815591561 0.2781881301643131 8.616081081077905 -0.23511452858378862 1.0573132103537017 0.9823390708396565
P 6.5646446548387045 5.8215759252030965 13.202721298677368 -0.4929378116190027 0.1776514013703134 0.08246324880223863
Ni 1.015864208223005 0.7861267080472164 8.26086246983924 0.9893905783697994 0.9792509188326359 0.8573690590234588
P 3.2945300106324034 7.935844927010075 5.137747752832275 0.48075181107577203 -0.16938864714088891 -1.8086700296103881
P 7.636053821681091 0.825545502107055 1.8030692616207076 -0.9647851211162932 2.1320561861480765 0.5198186951702467
P 1.8921261603088857 7.23240492659259 11.211911741607224 -0.30424403639159864 0.15093969640708196 -0.5637441929086033
Ni 0.0405174855490132 7.586196533649608 4.886470165556852 -1.2163498248363052 -2.2122864318547384 1.3241050154361131
