# total energy = -340867.261716082 ev
CRYSTAL
PRIMVEC
9.30243207338212 0.00000000000000 0.00000000000000

0.00000000000000 9.30243207338212 0.00000000000000

0.00000000000000 0.00000000000000 13.61504964364164

PRIMCOORD
 96 1
Ni 6.81099890232275 8.051496824432173 0.7812015013084873 -0.9046035665303905 -0.07499419411870312 1.0019918120735776
Ni 7.311804635530223 3.958547642903901 10.5486677375436 0.9308002795304162 1.543869801036709 -1.0459525339252438
Ni 1.2303582711473113 8.614907925506616 11.187241559543502 -0.285225843417883 -0.4734280237208492 -0.38824017689859586
Ni 3.6767583704780016 3.020174109737051 12.637271182690489 -1.4352766879166379 1.0645619214963151 -0.6302591459117016
Ni 7.137858458153624 0.1099510261575718 5.492951255217339 0.9665031322486645 3.2886435462137684 0.9064730156389614
Ni 2.323747532417462 0.8991870380495217 9.378277594769903 0.3479139664757234 0.45382336211604424 0.8336220931155062
Ni 3.6599116659895787 4.870306917903232 2.1246419972499266 1.510175236997741 1.9223644685127665 -0.7410785772591302
Ni 6.464967033984621 1.8548956533887493 10.386676115627006 0.20693986592178557 -1.6534605021833588 -0.5841217281236908
Ni 5.035462296968642 1.2475305607583709 12.217954754462909 0.19235759723223647 -0.7534283570737346 1.216555255978892
Ni 7.347516672267415 3.551910429594996 0.9386014427526954 -0.7564663725691101 0.8777882461097594 0.10674500416773874
Ni 0.49904943403164964 4.785375713055468 12.13622358624906 0.5302694581899254 -0.6107586139849288 -1.9483536934876768
Ni 4.725542469946944 9.241975569272542 10.339078361427166 1.1612413138979356 0.24818216040102417 -1.5684744869592666
Ni 7.854945737112521 6.141549378021619 2.843516273410495 -1.572202586543131 0.27623700965571135 -1.049879636893792
Ni 8.386542520489336 6.493004564259666 10.788688159708057 -1.2702185498303027 -0.9268253540430683 2.557167010820777
Ni 2.6871749487364593 8.913190410002075 2.6713412791010396 0.139606787892766 -0.9654050140884793 0.09493541312732037
Ni 4.252551008644709 7.4170988641908835 0.4805608502819311 0.09062213046394715 -1.8795692277241114 -0.17029830343935187
Ni 8.601931032761529 8.532479074887116 13.025000272563076 0.8932801710977712 0.8528513736587635 -0.8697944292710051
Ni 5.237901823791977 6.871362384059567 2.6328506059029464 0.14071853289970604 0.12214179833878319 1.3810724339600926
Ni 1.526463986537144 1.7709225990447444 12.793191107191513 -1.022814919466516 -0.5930079748697271 0.6975585424893083
Ni 3.813197141726868 5.384387221682199 10.47782878704675 -1.0786947613532714 1.0077066030701678 -1.2727978805217048
Ni 0.16216278666677714 4.681653595415537 9.522052263953373 -0.2257531419735467 -0.5179572164814756 -0.19956208540047568
Ni 7.625473342678279 2.3649759113753257 6.684867225813349 -0.33565957458840256 1.1723749619172519 -1.1485014977337638
Ni 4.851729961048797 8.93389762380176 4.10201068061285 0.4370299447077893 0.7032231969742533 -1.6602955228273213
Ni 0.4247862582878743 4.174894305679853 0.6640196946987613 -1.3653108002504615 -0.26766032373029386 -0.055935120604723026
P 5.745870429697452 6.360119322063575 10.69161262978595 0.6157545245376235 0.11190083733706535 0.3740528296546203
P 8.96670730173145 6.493888295306822 12.995837148006919 1.2145950469287277 0.4583101942428042 1.1654278411754575
P 9.036391820407747 8.417445199843582 6.040466360361459 0.13512046998663826 1.5315141076848335 -1.4050479709390835
P 7.121625714182173 0.0887991561046862 3.2916293103704666 -0.6819943695024642 0.2460034075821505 -0.6439975785437166
P 2.510233388231605 4.177601313413775 0.4198568995311569 -0.03581135327165445 0.07919949044930231 -0.5309698266910597
P 1.6053765178321697 6.124907327038853 10.649895873144134 0.013168676171474094 0.736205565437545 -0.590806339232718
P 4.697421217783222 5.202050250573654 8.020067627422462 -1.4710947260565117 -0.37886876298602495 1.3024565839284021
P 7.749735230340538 4.6492067123367855 7.033044234988051 1.98473428899924 -1.317554358801789 0.7969867012806597
Ni 4.718035407262153 5.355549682248676 12.579774710519288 -0.7902997761787873 0.26108164207151163 0.9177118217775743
Ni 2.2027414959815683 5.343168145156412 8.465442958622663 0.7679144665050517 -0.03355135359288416 -0.31251758925430045
Ni 7.233785137714428 1.2461910105395233 13.49933500505699 -0.640279249151865 0.2872739841961633 -1.3972840107229483
Ni 5.494621041774861 1.7490525812356432 2.5693373206654226 1.5840216906652462 0.3679706280162824 0.41320995947005607
Ni 5.301269991089126 8.118502242670774 6.155363489653484 -0.4794351491468775 0.4294469901542088 1.9649990153538415
Ni -0.03025523008180366 7.147123680500653 9.01235991738434 2.1051963856427554 0.5096224713635352 -1.8840663442635166
Ni 0.24050135790275462 7.791968271962537 1.7641020558471123 0.03345056634896174 0.9028426179752257 -0.5298578245738036
Ni 0.4089897983807563 6.62189906309544 6.674219662059926 1.0025551407762154 -2.587797848332756 1.3435842072066475
Ni 0.2732161510252756 2.7784318073954477 4.786615727251109 0.5189380923375063 1.1276876463122063 -0.5075979847343387
Ni 2.7197055537038883 9.115974126812198 13.687481344996579 -1.7272984712104316 0.5065294342605082 -0.7216307529471636
Ni 8.576516788331729 1.0763286008439954 11.067197394584198 0.23490421234519543 -0.346085655017733 1.555905134934688
Ni 1.7736203043465901 3.7792990792443653 2.5051012364556455 -0.0002535107717027892 -2.3777212365542018 1.9507057386596212
Ni 7.431238560945386 2.5402244292424694 4.132031489406355 -1.040196348167757 -1.432695814563339 -0.3308295001896109
Ni 2.1116148713716343 6.932581689547315 13.066784936959046 -1.9826856340003272 -1.5218184776636243 0.20825112853404135
Ni 6.938888738494389 6.157242580932701 12.738050010821784 -0.9465169189347247 -0.10999282168107509 -0.45775355040838583
Ni 1.3060521609442726 2.7699293844785955 10.803242744933119 -0.16632414928295225 0.45987316785454996 -1.219668604796893
Ni 7.497360248136832 7.483546136504967 7.166458785569226 -0.9740452062619807 0.37152157859233437 0.007311446059748698
Ni 2.730487072479196 2.096340277903942 1.212335739244567 1.0831579393309474 -1.1843820136804573 0.1584725144490174
Ni 2.609276382537645 1.2109254905419469 6.999960135312138 0.11136219122477593 0.3523090102196255 -0.4151043482792916
Ni 4.930251790196659 1.498500875718702 6.18651547418735 0.7966786831219376 -0.2809488133090839 0.1507355508160759
Ni 8.031989624370205 4.752007889201259 4.802245673624078 0.5538405606416461 1.042888293177623 0.6575015265674224
Ni 6.888246298276291 5.79637333343442 8.66851132985429 -0.14929110506006546 -0.6184274433840963 0.9588335315185488
Ni 6.15355881783087 3.4895190176657565 12.414882590281609 -1.2938675567078104 -0.5349617214592722 1.014699489448233
Ni 6.164284522013726 4.283835087714045 3.0701253792519516 -0.8048702177937945 0.9453349828114815 -0.41125514973653043
P 1.1138174021075757 0.577171258600272 1.6496672574292313 -1.4444359858184026 0.9068771930559154 -0.9264111493237851
P 9.268766573649494 0.10088487585695509 9.21949903289213 0.044118587585769184 -0.23263032870935418 1.1283237372343085
P 2.407041509219968 6.914962883196639 1.7196764309849584 0.2442794829125083 -0.22028877642486577 -0.22743155811723412
P 1.0040300987545299 4.845627565607381 5.554245910404897 1.0427908483678106 0.10037458186502068 -0.5669231048572172
P 1.7268383734397548 1.3086196321970636 5.00645824400097 1.7154210030465555 0.29706705902718517 0.4993591417643141
P 2.966080467219007 0.6661369282391065 11.525330081132507 -0.31622820533666834 0.42513010794640976 0.5472528801217995
P 8.230140730006811 3.092751684788777 12.394215376939847 1.7406445535000348 -0.6086672786735388 0.3683107849645205
P 3.491695786771384 7.973319185271098 7.198617293253643 -0.7163016274247664 0.015443845358895982 0.2256392421035017
Ni 2.942377870291066 7.579212347967662 9.257675283886078 0.2266419723364032 -0.48669028804739406 1.9140204674234456
Ni 3.365424573780853 1.6412559983467179 3.5726297365563786 -0.0876609909530942 0.5715318072738222 1.0503691749357007
Ni 4.656295165578188 0.20457629547103726 1.1084526895297329 1.2786137158725335 1.316990258768203 0.546826076997026
Ni 2.5706712894250248 8.57858192825245 5.21293037512896 -0.15950635503017044 0.8199787913004588 1.088237924957016
Ni 7.281050795089181 8.278141279515514 9.478170831367628 0.6371525305974253 0.4167020317837146 2.328878761130202
Ni 3.455732584368158 3.923328635066701 4.301484592090568 -0.19439031139154908 0.8460726601740332 0.8635317361907451
Ni 0.17480386161394323 0.384367190920565 3.908390789640136 -0.9916801457349245 -0.7948267175148634 -0.5842865358363293
Ni 2.824088144021168 6.732486375606964 3.9238160825074484 0.9484020517725795 -1.3312699086156685 -1.408621804333271
Ni 5.9319097687719795 5.369242862263562 6.279110952821978 -0.43346973816035667 -0.3661366601313372 -0.12754779984570294
Ni 3.0532349533327743 5.8803556902105 6.1695096981104385 0.42623208276133684 -0.06726417246429707 0.20006962116451352
Ni 6.874469396372728 7.464513360478842 4.6300018413172666 1.1560086047440865 -2.577395936273142 -1.9668003302286385
Ni 3.6863863876759684 7.803252122069913 11.671215472153872 0.2754332828074934 -1.2145726783312243 0.23704362728570144
Ni 0.5592417510182807 3.1981947523626437 7.08875743093041 0.7246679971115907 1.3606517042118955 0.5892749901898561
Ni 3.6970283699701456 3.308902996491147 7.293799778248421 -0.11118298533443434 1.020437934593907 0.4371906386553696
Ni 1.5550410578725584 8.606796204736927 7.802403740264642 -0.9457910965122938 -1.5445902241425011 -1.08957721259373
Ni 4.704593392913301 3.318540316121189 10.44334188061388 -0.31651359778757104 -0.32501160795625317 -0.38412384073737715
Ni 0.6948898155407444 5.688939545396432 2.629474753302809 1.2831110895222546 0.5652554873468072 0.10187456344931488
Ni 0.08455631683512813 0.8705243843390147 7.235691206046664 -0.9263113905211273 0.8945880912759174 -1.2323791103850261
Ni 6.0317434698044226 3.140268507829563 8.293593549435846 0.31263611711003575 1.3077674546183544 0.008694956670836638
Ni 8.128893059298917 1.6275814231959826 1.9245280784454253 1.5368455472000757 -1.3252571267626854 1.4568778111261813
Ni 5.276172029349884 7.746525891274549 8.547909018970465 -0.36155778251140314 -1.1491321893392275 -0.20460736113386696
Ni 0.500945269688602 7.18772879650947 4.370090958889335 -0.7506693062713587 0.2259886550231205 -0.21514914120545528
Ni 8.619810307210313 2.333747646898442 9.036485774971707 -0.265299279697285 0.2627891116809216 0.021575669288246713
Ni 6.731797995633389 0.6410957113355255 8.017548528816462 -0.8053145044200648 0.15130325039408782 -0.326458881925741
P 5.300488586794797 2.8706003043978185 4.562975027484891 -0.34142347365537323 -0.4694387000557979 -0.2602501473091518
P 5.837276127269646 5.754912393674673 0.9554704730780991 0.4775417887789066 -0.7239943680833338 0.2263902613369133
P 5.054950892166459 2.5024100428562526 0.5744037850578613 1.1019192790988508 -0.9576575089325766 -0.01645068935685554
P 6.5901591648544136 8.967470101161625 11.912338232519259 0.7966851108798408 0.5513278215221213 -0.0017079838300422198
P 1.9846924881358305 3.1819713108232675 8.763245437623036 -0.48466940096262334 -0.5553521121901661 0.11962314568198754
P 4.754221868035187 1.462574883043777 8.79948864323173 -0.3281028452870672 0.4987598176174185 -0.8225326680705641
P 4.910139932049796 6.479795110712697 4.848768066676013 -1.6315868420387192 0.13808212371812348 -2.4297189697777317
P 8.823375428314762 3.8172064899513356 2.737619247151352 -1.223411359668777 -0.5629268392136305 -0.2134216169913873
