# total energy = -340860.58077140094 ev
CRYSTAL
PRIMVEC
9.39994647571577 0.00000000000000 0.00000000000000
0.00000000000000 9.39994647571577 0.00000000000000
0.00000000000000 0.00000000000000 13.75777182836317
PRIMCOORD
 96 1
Ni 1.7760916356716119 4.031495928302748 13.77276734034495 -0.03523876859763608 -1.440447690594616 0.572883179095394
Ni 2.5196085806262984 9.01529100672831 2.6623627436638384 0.5097052608853286 0.9712452749193402 1.0043433430248898
Ni 4.793361568250375 2.4450106075402482 9.619488528988908 1.1145793910650224 -1.2788664553132878 -0.9169181222316853
Ni 6.3024947316886415 0.3130736683224139 9.102347668514996 -1.3907297545441983 2.1835168159212137 1.2826092101851718
Ni 8.104248220500994 3.5185314639278937 2.0151698674597416 -0.41453999113538936 -1.621326854873608 -1.9093099493216537
Ni 5.6443668980638035 7.03006936787897 1.0973431400559894 1.1876087481478708 1.1390997448038898 -0.2400001388108641
Ni 7.5274111216604505 9.241641711354328 1.8501171520337532 -0.7627702032999508 -0.6966987655921744 0.20932482121419432
Ni 0.9164693751716928 1.0847913918879195 13.273993034761768 0.6901123706239082 0.733928339367594 0.7533815629961993
Ni 5.32271013886124 2.8555062583300432 3.4942542228632085 0.7230505161128257 1.737878560719123 0.9526531137394496
Ni 7.161405416260812 1.8487532198393497 7.514191977311797 1.1946162898139556 -0.5806494533043742 -0.06547648443625496
Ni 5.097421628156431 0.4717560402050033 11.407325397444168 -0.19915713665257315 0.5703269883324436 -2.809812092089161
Ni 6.351562450880826 8.52534701061048 7.2140667348873215 -0.2825434114897134 0.0718178532732505 -2.175657724888111
Ni 1.8803464390356972 6.967343526850339 10.995472394422315 -0.3963270676717884 0.3540591601415128 0.15298963695757523
Ni 5.321337746715251 3.1207633403002104 6.840528852593296 -0.7346731879534186 -0.2987837846079758 -0.18778797558368304
Ni 4.26676718187769 8.082468545143083 8.993110893662049 1.9554180565336257 1.9486113180244375 2.603235780154381
Ni 3.5648355989356917 1.9226085971751732 5.296136490938575 0.1958761519084562 -0.37470126187189656 0.33705825470814205
Ni 0.6373060127852574 2.299273841571735 4.62210206834496 0.2596158561592625 -0.910236853556768 -0.18137641563038437
Ni 3.0620512763012853 2.4142539835561814 2.8238096397254355 -0.27669852267316214 0.33694075529367135 0.5802936126268522
Ni 0.32829218122895565 8.58443507245762 12.275949046430377 -0.3900587181645734 -0.962215303506588 -1.1380391647498593
Ni 3.103157241057497 9.106179086588318 12.60469148508257 -0.6245921774339114 -0.6338527768002309 -0.8417326380377826
Ni 0.9537749416770617 5.504382899172994 7.491436587537766 0.4066400195620223 1.3561152497941225 0.8983827824316591
Ni 7.464741680309053 5.473720274650982 0.598514314784815 0.054067728378681075 -1.345712823513876 -0.8035422430109903
Ni 9.110305662972488 5.22555229488223 12.13319864337132 1.3739201391860272 1.1203582025303287 0.10455699537748445
Ni 6.0689060684844645 6.05091457144733 9.83194987310183 -1.2451083850262363 -0.1391244489397088 -1.530123912205526
P 1.9466442596223796 0.4333563199613259 4.50659176939453 -0.48735928908996073 0.3033382367478776 0.7350611674204566
P 1.8729486813720482 9.399372808680932 10.885726142485034 -0.3577836601809516 -0.9396248198005819 0.1735245236861334
P 8.338570079509191 6.837182471744174 7.032560353623401 -0.32020055972085504 0.189683392834183 1.3467991145995193
P 7.564785307773119 6.827068129627164 2.256164748279153 1.3391853068080033 1.0842360028864746 -0.12926169721301609
P 0.8268935278019592 4.541067012097453 10.267768978968972 1.0431901406887583 -0.6913801815927383 -0.1254009287060292
P 9.224007412273 1.140288674284598 6.7361217701006835 -0.3302468882132635 1.3924279681822278 0.36326499501049697
P 4.064433339806468 4.428333457256097 2.7870492700999803 -1.4542195475677278 -0.49315069896075714 -0.057802512830764964
P 2.4233343315905973 3.6646912274756502 5.387887485860238 0.28992093490070714 1.6253148929870784 -0.5481386251608624
Ni 5.6847960666932265 6.299101351108492 7.559194219770147 -0.26417416495390633 -0.24874651754492647 -1.3900275862708513
Ni 8.734608613035082 5.061513833651804 3.2703456242613522 -2.8506622933363035 1.1335669879111188 -0.24121884170931363
Ni 8.337460885856954 8.959351926859977 5.586769667684838 -0.8024983751275082 -0.20598212999420654 -0.751567392605596
Ni 0.47448860456691294 0.6152960387453147 9.431200086537793 -0.8064622448712627 1.6892682559105874 0.6449645704426763
Ni 7.4267000980158 1.849044618171717 3.470975256085537 1.0336873434046456 0.2208557046719293 0.7105109888849183
Ni 1.7253225262162493 8.322627770744834 0.5997109279367624 -1.1286644084031787 -0.7458723991033477 -0.3579700651601448
Ni 0.39475920084733523 5.659933208979945 1.2005019096925253 -0.11148843238999509 -0.902810993406342 -0.9045462309298937
Ni 1.9536472195454022 0.9108961470665116 7.132950839102447 0.7254853508065634 -1.1042479272320271 0.027850703663681066
Ni 7.146177503408064 3.692759466844973 10.26343466377366 -0.665574533383544 0.7334112905218595 -0.7847577633146355
Ni 7.404760623572399 3.250097200140301 12.533508512452944 -0.9557338095473025 0.26620302245847705 1.6398326269872792
Ni 4.756711177995522 4.184414253172187 11.01308225364351 0.9022389229529558 1.219038684522378 0.8854812438786429
Ni 5.960910086530631 1.0913901541241098 5.545015106640455 -0.24249230910509847 -0.04099238325196166 -0.0830682293760892
Ni 1.6095339888581388 4.448740740468019 3.5196923572842604 1.4640923265967496 -0.8362531029804502 -0.8237315734746716
Ni 4.384351108961033 3.3148816293879144 0.6751295163265439 -0.13396193090216285 0.09160300631997773 -0.007347184393690572
Ni 7.414940765312846 7.825408216264024 9.137072949786983 1.495590654315347 -0.8295237546764166 -0.4250761147800227
Ni 0.18495710151592196 2.8731217575189616 11.929639048314913 0.7868650394656256 0.06539086670098415 -1.7859332501345049
Ni 3.6921202705030054 4.931916775317962 6.772552201614329 -0.9463924775417185 0.005980900173783248 0.4296231107207569
Ni 2.841077340904755 3.7622814689801074 8.868067169270102 -0.7266901697479421 0.0666134262541756 -0.3136144218629051
Ni 3.5096297148713806 5.984381752205513 9.351404883194778 -0.006217184554305422 -0.9486038833707405 0.44607919939425106
Ni 3.2628905269258497 1.0300931049186999 0.8813981758793474 -0.19286281900342914 0.3531579884834821 -0.7276124244518953
Ni 3.789221714804782 8.086895919805826 6.933724619246728 -0.543165083205671 -0.5948879655012593 -1.4067572403207065
Ni 9.25367364249724 4.295042220063532 5.841687748823687 -1.330762887072263 0.40713881357531173 -1.484228178114676
Ni 2.595466146503872 3.136997047396935 11.065911831307094 -0.9997971184151039 -0.6169423741981375 -0.03359737633947117
Ni 4.014585425079234 9.026072745025903 5.005847352223429 0.21952515878596385 -0.1454953854630591 -2.5825324861687586
P 8.273531851714033 7.190263251111388 11.066655367051942 0.685061438463562 0.0032786707512717727 0.5525010158946162
P 9.246059686070867 3.0752394008274604 0.27769133081066977 -0.5459231055667824 0.14420906255146776 -0.24338293924016796
P 3.7323332403697047 7.918448883805068 1.308507291592565 0.8525233008953833 0.9861499599453146 -0.811747404529602
P 6.677279986844123 9.267519763257793 3.851721957124483 0.19386503501569835 0.02262262249552233 1.0896720863003815
P 1.824379159328749 6.304402920768338 13.4204582965612 -1.2718810251343902 1.041076693890181 -0.26690750472466934
P 7.61398462621218 0.35518542732260344 13.499606783605284 -0.36011642207918626 -0.2079289693079322 -0.8343638563775373
P 2.3067843985898495 7.531979495516274 8.401114501576059 -2.1831126385042596 -0.8076575507309445 0.0003872081360896557
P 7.93636518127256 1.7834141937656183 10.051964073990789 0.03974128445367994 0.5652076648280072 -1.0334016938434267
Ni 8.561743602317785 5.684269669705723 9.43265801819425 0.35721364661009447 -0.41502747229476905 -0.384479424304583
Ni 7.736794923385724 9.407090164515566 11.046954019800046 -0.19975260414472695 -0.6638740057526696 1.566619436028399
Ni 2.84662330916594 5.773399959625323 1.6315890826398676 0.03254116716081493 0.5365015551425664 -0.3399651439422919
Ni 7.25454008326391 4.395490045214431 7.34243992022522 -0.3735465794421632 0.6645437781261845 0.07816076477214282
Ni 5.138546392805052 4.993693221779847 4.843326982305174 -0.5965406706133338 -1.390772949077308 0.505829065759374
Ni 1.379517305212014 8.286108979736857 5.993407580551937 -0.038641109410965706 0.5046286176933696 -1.2314817953817372
Ni 5.89840984421093 5.502380710631244 2.6985459565922825 2.1434371742915084 -2.224543909065853 0.5832238988997698
Ni 8.823174906182356 3.2272647308073865 8.548927715661344 1.5138758257777798 -0.35257460517618633 0.6575606619401321
Ni 6.848067609450026 5.674380926297644 11.752246083510475 -0.47205171219861286 -0.5260993859726358 2.9561484853962767
Ni 0.8906063631821567 7.325979674424945 2.6902082043080933 -0.618804881328173 -0.9043755096799845 1.1323230882016886
Ni 6.497835013783047 2.048182478533105 0.995682721844594 0.010922817560090866 -0.8514681201579917 -0.23298077007023746
Ni 4.292015437385394 7.055317623386673 3.270745121975082 -0.9798826388793641 0.3373572740057997 0.2480453777128438
Ni 2.950671313713507 5.1383489939347395 12.184611649141752 0.7315734659821722 -0.3340863165640117 -1.553710955496847
Ni 8.522151028900643 7.619267395979614 0.32414116498465123 -0.20472794587213128 0.4793312765791615 0.09276977293456927
Ni 0.10210221568304895 8.55503204072713 7.785963222002307 -0.41299552946640483 -1.1667139069767325 0.6349388107755581
Ni 4.264473595003573 6.831138306334101 13.108748560433188 -0.3952227788640161 0.5626525025063213 -1.7317976446323657
Ni 1.350198872997373 3.1038246372380804 7.051435445603843 -0.02867397089592481 -0.30428183160806954 1.30048094825927
Ni 7.474019427213781 5.912133765670813 5.2847728959708675 -0.27014838025947024 2.8949544303854595 0.3396465842606086
Ni 4.922498029220153 0.840794168250504 2.7726316326101386 0.37416981484845885 -2.03997624019168 -0.5302871988017384
Ni 5.274187616548967 9.328196416013647 13.437008781845046 1.2851373759236642 -0.5896264599920039 3.1818046967806426
Ni 0.0916316156048545 0.08307766455794097 3.079883914247549 0.5325808799319215 1.0238952970148882 0.9011564885220545
Ni 2.5382298740591946 6.596976246411396 5.2836580623509075 0.9982048342273196 -1.8618790095331998 -1.0537841141545206
Ni 0.9544141380190289 2.002207341642496 1.79661359822724 -0.32444493681950576 -0.028185975515912745 0.4078206701336847
Ni 2.9161641111934857 1.163591140927783 9.37003275659002 0.013841276758466485 -0.38664737849017927 -0.027451668453049496
P 7.096827785829718 3.9993199124416656 4.784209780624797 0.022323346087548653 -3.4993169110360576 -0.8189403227336154
P 3.428263780517443 1.8926791684571815 12.54842246710243 0.7939574275360326 -0.1358141536195532 1.2525165045648492
P 0.5158220480212954 5.993650099164037 4.486216445999705 2.360947873750605 2.857349989769124 3.054582912815791
P 4.256248642073849 0.8788413905114788 7.5046858117142765 1.0127850460343395 0.379422835717282 -0.18456689754322408
P 5.040589553398585 7.661905551967306 10.954818567078581 -0.2676209858519262 0.18519064717015202 1.2450001415831462
P 5.559532383560074 4.933749764828015 13.526709648499311 -0.4175168143755261 -0.07301958689083554 -0.6511326469266012
P 5.108203366454024 4.370382788899809 8.712466099753643 -0.04894583377108345 0.42293747117046515 -0.6446838059774639
P 5.083707106642753 6.984037831311129 5.293687804952068 -0.4992958926265465 1.4085631831811936 1.7031385861347765
