# total energy = -340858.444853417 ev
CRYSTAL
PRIMVEC
9.39504389439520 0.00000000000000 0.00000000000000
0.00000000000000 9.39504389439520 0.00000000000000
0.00000000000000 0.00000000000000 13.75059640503950
PRIMCOORD
 96 1
Ni 9.04824465197482 8.51035020312491 8.246604075007278 -1.2054609458379433 -2.935052841068242 -2.47565661285011
Ni 4.281744285733547 5.685410820769631 6.052338958108421 -0.30660790863808485 -0.7495547330509413 -1.6765796046993253
Ni 5.415322098509885 4.963721127952578 3.4803855600832376 2.5623593536549936 -0.26002491867222316 0.6603248549488305
Ni 6.87593199467079 8.968865925998314 0.2168479479389671 0.9762051900277768 -1.4120066616451037 0.853820165329936
Ni 0.2316817827648998 5.4188358449313805 0.2774102799770489 -0.6138454804403686 -0.6123046183158101 0.24914658119682248
Ni 0.21912060906024972 0.6893143715109773 9.427628738526492 1.470105365560049 2.5078964467204226 0.036214502247344085
Ni 8.167327755009367 2.6393872651773873 6.639420219832921 -0.23761569773908756 -0.5287180545424056 -1.3271710559559466
Ni 8.079474699428077 8.956163826635047 2.755537253504402 1.5976955886079132 0.8034327140163195 1.412091508049426
Ni 1.6975716936019551 6.54504794328405 9.190582385690272 0.055799623468123255 -0.6714122231112436 -0.9235795934122609
Ni 2.5851214915662735 8.602374658201235 7.923547034700078 -1.9308437096283713 -0.7459040236722315 0.8306105599826921
Ni 1.711701839639198 7.3367588983455 0.07814327770263804 -1.198644180026426 1.2532258719270482 3.208449810171997
Ni 3.6351397838271615 3.9304917791548237 12.474870831313572 0.7091264498325658 0.4629273812998414 1.1125284220732645
Ni 2.0104642359053706 5.910553652974743 6.768978814825064 -0.5268907715256796 0.3443743287535811 0.9860833683734371
Ni 5.0549094241211145 8.119300290552994 11.09156147741678 -0.39447844449882385 0.7901704496897747 -0.5747721685879907
Ni 2.744583571812366 5.491271633460065 0.7219339639586548 0.45289030877881353 -0.4086339100635995 -0.16089166541347127
Ni 5.146830533714455 4.554191164014136 0.8799529654605186 -0.8291856546107074 0.756660233747471 -0.30557998159420274
Ni 9.173085995420886 0.4392633988976617 5.317878582107575 -1.0010623582807727 -0.07959441189487583 -1.9756451822137784
Ni 3.745634895226106 5.510954250446784 8.381140164261744 1.414160731873629 1.1995006144894502 -0.6358078436440727
Ni 2.7090515157532886 8.38822402736818 12.257831224478887 1.6724622400968423 0.8072402606878678 -2.137923443562131
Ni 1.980973193078971 1.0837183147579559 1.597447771172766 -1.0604003339194574 0.07748739285420204 -2.2317175439961563
Ni 2.1668729268814473 6.141746893456441 4.512560784954544 -0.4279794044697468 -0.545588605045499 -0.9181766772291349
Ni 5.900219104676228 8.892690909994348 4.457489856080537 -0.4449479140032853 -0.14330789089343707 -0.9499922790778348
Ni 6.374922488202671 0.5686406695423852 6.364394401999657 0.42856021667388133 0.8030570758444556 2.1485153601453644
Ni 1.5662571649034553 2.6545226809127582 8.12731708151947 -1.0542965350145648 -0.05462488643373173 1.4797284904721095
P 0.4243994999312243 4.623019255682249 7.3819800631866315 0.2072489125217721 -0.47466523856205994 -0.5102030264573535
P 0.5961380840515624 9.374788193076183 0.08752047102695461 -0.5479848731918175 -0.4037256741287047 0.7988124416354888
P 6.733747400171033 5.440406865743555 9.561944983753515 0.4800244459914443 -0.2685748651247632 -0.9466606436014406
P 1.427125959673715 8.268258711710232 10.230499126741558 -0.4585919871492812 0.7692504117076558 0.07024022437348548
P 2.8292047322893916 1.8153009888098612 12.880856984690014 1.0124770278756174 -1.4379773746772524 1.768430208253735
P 1.410017584717718 6.651832012339438 2.4377329822460188 0.6682022008143783 -2.535964665711549 -2.228567428402949
P 6.623402609474613 2.0242279752302115 11.452692872664493 -0.029759747760935845 -0.8978698473509827 -0.5950324614989236
P 5.922889345625608 3.9054727772285087 5.409031177109262 -0.06733616335281306 0.015206018316477039 1.1925756052348429
Ni 6.42512960284564 3.7738012368615146 12.600592490373794 -0.9300346050089853 1.116308200830671 0.6061661095182399
Ni 4.533700573251353 2.068694718045551 4.951066943313242 0.5941559724312412 -0.6520695569185738 0.5540192523113556
Ni 8.747030149248728 7.50896065813049 1.1676404839682455 1.1359802253383016 -0.09981588114807326 -0.12168337064512592
Ni 1.807324596532189 2.0094871513389654 5.923426742137131 1.5058550123558325 -0.2808164014962776 -1.390269012857696
Ni 0.44982342824996285 6.9351959316408225 12.015078321973103 0.16372502109720835 0.6537587716955386 -1.1395913397283277
Ni 7.3637978347119795 0.06047213961656748 10.375416739514074 1.065595762077468 -0.18255166688540816 0.4891132956665899
Ni 6.518685450078928 7.139556926722011 2.990631316216593 0.21673371208375578 0.15930658031453854 -1.6999383340299237
Ni 0.8364792787862274 0.32547720361783483 11.658938513553576 -0.23890510597447243 0.8349955764242651 1.036903793459414
Ni 1.8653108075307678 8.429834676835565 5.601869150837605 0.7659488581382486 0.29906583462476877 0.3434199352601118
Ni 2.8917475395832253 4.692542580599534 10.270292774717188 -0.9636566639388048 0.27884153715809396 1.3522639943688326
Ni 2.7152240596006743 0.6970042149494635 9.953548264411598 0.8470417089555218 -1.628467836793763 -1.157071498790962
Ni 7.490048434744207 3.5964791781468057 3.863615038106349 1.5446614437000687 1.6431164399448737 2.652722059809967
Ni 4.460165564585461 8.045060653594023 6.616030318520208 1.1067326413270941 0.10256104799337822 -0.46868999481523155
Ni 8.857675581350195 6.251988338669877 9.890460544571114 -0.8593868607844362 -0.37264875021824206 -0.38234283757755444
Ni 4.803836270730637 9.524319711911794 13.356325124790548 -1.9021537978928464 -0.7197672173758637 0.4106974774608475
Ni 4.222433373543976 7.173585775755849 3.706720623360242 -0.28924422054865667 -0.3378768939546955 -0.05590735269058114
Ni 4.671131275533791 1.2828274802947166 11.408567169943005 -1.467920184983272 1.0038964852954582 0.7707707050069242
Ni 5.378484131347633 0.6350081992110603 9.414772560443138 0.023784246903791297 -0.0628902117663175 -1.7453090488552394
Ni 7.307756397802303 1.5062510194647118 4.282389725250009 -1.403319418283751 -2.07229526403936 0.21927576177931915
Ni 8.749538625972095 2.258653110816172 10.80261972054737 -2.1100765965531916 -1.9426730981631317 -0.3814120982331689
Ni 9.351826705765664 7.2902158508265495 5.203459160868366 -1.6069950116319678 -0.5345377465479761 -0.22507205674612207
Ni 0.6746026722558451 3.687667474315343 4.852833303718289 0.3769568906752927 -0.743515725945713 -1.0262591692613745
Ni 6.141079845338991 1.9093265882385357 0.42934693005304075 -0.6957055484409695 -1.532853138211231 -1.4261541567900795
Ni 3.4595370181475693 4.708410809759709 2.8530014390033096 -2.827845552552104 -0.08349760360402395 0.22784319173335602
P 7.547179696747182 5.307964931776126 2.6883927537045564 -1.0175616414873765 1.526828529283706 -1.8501311249686523
P 7.229195040645769 7.90011391618539 6.393229670761296 0.663852665596431 0.08058737193576444 0.7235642225244506
P 4.285539883472274 7.757703840631847 8.940390487418341 0.690293890507095 -0.16162520114538617 0.3078587503260504
P 0.865118191130195 0.6001525863133402 6.9849182620181525 0.366094236929176 -1.4508074365623853 3.3928413584796213
P 2.927307780774026 3.6037509421313976 4.752742263942777 0.7204423890660173 4.055956888799711 2.937311298085116
P 8.242798142720252 3.5184627335369223 -0.1053391113023767 0.9001565865026304 0.21189592437548022 1.3131814265450739
P 0.30805127617775624 3.916897150620322 10.547958599888526 2.962700941802814 3.413447464765747 -0.6172442217092725
P 3.659736008777628 9.06546576745771 4.636865671393477 0.5627967413936694 1.1490560846856532 -0.2297298672331076
Ni 6.622218833942237 7.672791433793682 8.73257775320545 -0.47066614470499585 -0.5886047035957089 -0.5760533492932596
Ni 6.886285333057121 3.3550171546739476 1.796308907550362 0.6633991229987801 1.2667997539567408 -0.37283798341091273
Ni 6.174873818275137 3.1716446876826536 8.203509948106861 -0.6036991360349862 -1.5760237600614342 -1.1434950456581081
Ni 4.484526913438234 6.719513908650806 13.136838109017896 -0.07253647660682992 0.39754217102581213 -0.13565834476797925
Ni 8.140457929433227 1.082553329313396 12.659417678793332 0.2795730160074798 -0.4499723638010702 0.9820274531365086
Ni 6.131421740201833 6.0520242241375115 11.566657573778567 0.31052421297335553 -1.080553411828565 -0.7152503033421166
Ni 6.5119210184653555 6.2797131132416215 5.2464302126935936 0.036208331599757 0.8124526581267428 -0.9909558659743901
Ni 1.4145178107495262 8.481206776923095 3.025076365695545 -0.34992045538279093 2.9430772540346153 1.7094457592997268
Ni 3.3422868701789583 8.606799723881782 1.6082426766227604 0.3314133977175389 0.08960243095018117 -0.33906140118109995
Ni 8.521971872438785 1.663270388294792 1.2951744469982704 0.6516620370675099 -0.6884761205720659 -1.8562295245569063
Ni 3.9871157087867806 0.9134848166716378 7.581666084419327 0.001907758545674134 1.7349737283675022 -0.7490577388098648
Ni 5.492286298202101 3.595304797658338 10.334302148365017 -0.04279395523707469 0.9481652531714252 1.340590414685646
Ni 4.454951315216665 1.4449577530106077 2.3454116437822083 0.37998153643422944 0.05843757531160258 -0.6625097784152914
Ni 6.2465298181594795 5.334853547440082 7.329246621236869 0.2694971198287165 -0.07478027833568411 1.0051185306280173
Ni 2.589198940622233 2.2807878342628105 3.401209767055139 -1.8690462167056006 -1.6246543765849437 -1.3647952940666237
Ni 0.7219536935508611 2.830858260017154 12.634405253397754 -0.8182373831293198 0.5744052721668753 1.9589186134877166
Ni 8.436345442263631 3.674730498854383 8.708156276071666 0.1909316634189873 0.6130116716851636 1.1821186715675769
Ni 8.473343125172315 5.0647460350925195 11.978845395638508 -0.39467410544939774 -0.860666241717492 -0.23951368609274878
Ni 7.0487350372658755 6.052381235806005 0.10480453330402623 -0.16271046378976495 0.3539802272744613 0.5521492889821523
Ni 8.48576337321835 4.996143424478193 5.725129308393998 -0.5649639242483173 0.6214929696832974 0.6623434280407561
Ni 1.3636248579012915 3.694929843256027 1.4424511552960226 -1.1902431004469245 -1.5504037455004847 0.297770512852113
Ni 0.17668131672020085 5.068043695504137 2.9708848129313026 0.29972326570310964 -0.1741619001598162 0.7373080544731044
Ni 3.4498037526591494 3.493631632488762 7.100615409228814 0.8076164130803639 0.38637149912097324 -2.172597855015865
Ni 2.3120921205634044 2.5363893988168194 11.085428392753807 -0.5666634234379272 1.0428648961388554 -2.8950909559633238
P 2.5928724027901597 6.040938072326377 12.1847744235479 0.21211189704102823 -0.24843078607672053 -0.16643522093951982
P 7.081965307567557 7.93492255386357 12.032638598541064 0.2364167923349799 0.15407104294721208 0.18170268862155156
P 7.6485804056434334 1.1731121575401142 8.247690142083012 -0.7435625200232485 0.31914692164536007 0.4744369246013377
P 9.085101409224889 2.0274316852027514 3.1925449023598143 1.6299521346487735 0.4982841635325805 2.3120166952675407
P 3.369410361940607 3.3221438960407603 1.1339789811511993 1.3634277242951356 -1.2995167845737876 0.02399841979712641
P 3.8650083231178667 3.1048929007181516 9.080577695583312 -0.6623943358833496 -1.1944926197518977 0.4114037594992528
P 6.28325504479484 0.2964709450570744 2.2086207439898864 -1.2201673988101824 0.8409523082283323 0.1894368240410157
P 4.75865550457831 7.060394286755383 1.4766763607475333 0.7958420461532552 -1.3407310540285684 0.703994270812323
