# total energy = -340893.8903055759 ev
CRYSTAL
PRIMVEC
9.02278299469335 0.00000000000000 0.00000000000000

0.00000000000000 9.02278299469335 0.00000000000000

0.00000000000000 0.00000000000000 13.20575494961880

PRIMCOORD
 96 1
Ni 6.1715746092745745 1.9380667389109496 11.290617209842523 1.2618436955030463 0.7288090158631577 0.9286657496859169
Ni 4.508675686192371 0.13419043919505025 5.796204275864225 0.6964668520870264 0.5130548940838519 0.6930778810101353
Ni 2.436764982956942 1.5311301988679198 4.709475919254823 1.3245336183330993 -0.4152920388100654 1.0175590703842152
Ni 3.2615826989285086 4.178667394755954 4.7846699889519595 0.15134258827245547 0.2542895588503427 1.1489622394202663
Ni 5.178689512726491 4.6060766296252105 2.566934870008067 0.049041478808683286 0.2876768760615368 0.10857048741225173
Ni 7.260606482406293 6.379531713882272 2.6161658813700504 0.2957465404435487 -1.8083604687897696 -0.0970059225031039
Ni 5.032700882365828 4.39497057371987 11.563883925274668 -0.4536107318846059 0.2781131436325016 -0.7389985548016498
Ni 5.7466195714052 7.823564987603623 12.456988770489659 -0.4679700859300715 0.7752279694473294 0.1467796514921214
Ni 2.0970842680504003 6.669154028217679 0.23556050490821492 -1.397444704670529 -0.962117344476143 0.32370317355747474
Ni 2.765582267025769 1.5007053742958458 0.3624731672646428 -0.5924315335409668 -0.25969684590884307 0.8404828247910816
Ni 0.47701469172938316 9.05679898004462 4.667785247719317 -0.12814506711006962 0.34874237591428975 -0.03609443172971203
Ni 8.73612926910408 2.5897372474275646 1.3798695563490537 -0.2557643436236563 -0.5588292721054893 0.8699576943217469
Ni 6.909268331750309 0.6889255798861561 4.853168251319638 -0.7595002742994275 -0.6470667043873437 -1.080207855563688
Ni 0.8197721756688663 7.193901047038161 2.3760190958183047 -0.6189303511624438 0.9283531035415044 0.19124482378403193
Ni 7.728735537350808 3.979597731489743 3.8408543959485875 0.3597595529603998 -0.13381563513228567 -0.4598438572785113
Ni 7.62545173934472 4.035060779130472 12.740000993934942 0.6823301555753282 -1.7056222717885787 -0.6184423557824317
Ni 7.9060061566768844 8.830137646095904 6.913979126800451 0.18037599939032806 0.3436410501319824 0.41800609530711885
Ni 6.914104543485371 0.9264593674556736 0.398565201894166 -0.3601205358442443 -0.018738714060083858 -0.158775647511733
Ni 1.9137774068385824 6.257814370027801 9.01299427043164 -1.0690603235873009 0.3569884179731659 1.5188920480454486
Ni 0.2736104834677915 4.950864239759449 1.2006590386590987 -0.2796056690176281 0.5969559037738816 1.195530831208425
Ni 6.157959229595079 1.9139488397172508 6.766338424856412 0.5348028272839048 0.4280205421203274 1.0704893427243434
Ni 3.4028072998188104 4.271547923861805 0.4320343134800646 -0.061088125560572214 0.6621575372821951 0.19884629028037368
Ni 5.946131351042713 5.58345156204536 4.795022730266906 0.24324564233135526 0.942300566860532 0.22775834532903358
Ni 5.409402076281629 2.7070875642675385 9.173021448998616 0.2966335710341923 0.6443493054561806 -0.4076617759583173
P 0.33892460568378413 5.528439653559022 12.338533162721427 0.6386250013778937 -0.2492867063191126 1.0088070352231981
P 3.939374164484315 6.1720347712120525 12.515569189687223 1.0404740273091757 0.14104352033929257 0.29400718915493884
P 2.27619553512639 8.474973835410692 1.393087933572686 1.3310688483484558 0.5284637724397544 -0.3827614131722118
P 6.4070602250831605 7.635160253947196 5.955835354253646 -1.4919767117118434 0.3948977914244296 -1.1848486689042304
P 4.771247696830544 1.0707697601620043 12.720681410787336 0.5391387356550973 -0.3163451905305068 -0.36485419387448775
P 3.8182072103982003 6.046618086291582 8.22334285154479 1.9510770059561109 -0.2070331969665402 -1.0742740065777563
P 4.796150578152882 1.1414091289564188 3.902142552350802 -0.18261517313349193 -0.42024115528522465 -0.7554842111614988
P 0.2261145532935933 5.584137293560033 3.6376044772777973 0.31093893191327093 -0.25248670131364903 -0.39444450593709485
Ni 1.5252473442946717 1.0929658065580012 2.6071070071498954 -0.7135428337327067 0.38443237311673145 -0.39324842874646465
Ni 1.8222502951959028 6.4911886545938415 4.908236101061122 -1.246043495245996 0.5872456184646532 -1.7915850491036436
Ni 5.814497968574747 5.368907825783566 9.071310322084734 0.05855224651259594 0.5180009252352176 1.4801655780095282
Ni 8.533838472275523 2.2884845656919786 10.063286824375876 0.001618766550345599 0.5682996734897696 0.8420915640390981
Ni 2.276348922438882 5.132366544353706 6.822687509796363 0.5916584028203681 -0.10187404922868262 0.9036859398121275
Ni 0.3001311497977726 8.988090486830995 9.208187746083333 1.4666940258856545 0.5276209648234849 -0.11449379487522217
Ni 1.3747834135224588 0.9487456416825484 11.24323496673523 0.3383862294909462 0.5368856779548625 0.33903389037727416
Ni 4.135123443574214 6.614782737330575 1.711452323434292 -0.03579978330742867 1.074767144164091 -0.16157609307500562
Ni 5.513308446320774 7.780733836285819 8.12890859919122 0.2639221968441003 -0.7338617477957168 -0.25759933994986606
Ni 5.38499544802912 3.0815059940621246 4.629369846444684 0.3642972929297532 0.14067533836659643 1.3867663990210761
Ni 0.6934766716756441 7.401614536502487 7.031892465305104 0.7798991496707536 -0.2980803307830479 -0.19896121859168314
Ni 4.9114707687980985 4.334752519391869 7.077875274755478 0.006038492884596053 0.2409733013574108 -0.6719351854942492
Ni 8.203225654372222 7.053912567430888 9.118019465573674 -0.8675472851080415 -0.9653402222888149 0.0941370855957411
Ni 4.62390564900671 0.3654163991078843 10.471516329235389 -0.043473754912918675 -0.47307089749174663 -0.3454616482804889
Ni 8.208341572383008 7.222070175838284 4.740231879966218 -0.7955224580303074 -0.6445213122576706 0.5171439765515611
Ni 7.079997433337729 5.931559556355911 7.070651634615381 0.6235585939630746 0.2800103606552145 -0.09168785272430016
Ni 2.2942140329527336 5.183624975075519 2.6787614390416876 0.677387209747756 0.4690193531301922 -0.4644492172610065
Ni 2.5369268980146504 5.111866781178217 11.199154159959766 -0.6317254460445829 -0.04383113825233742 0.8457145055036661
Ni 1.2276037757942067 3.3452419437186234 3.701613002780985 -2.146199567527994 0.0975337699821159 0.684299363486557
Ni 3.670603501864821 2.8522460985841227 2.935243071095593 0.26978919714783856 -1.2217100607069538 -1.1935487677813894
Ni 1.3253205166351194 3.380773663518394 8.2694835596992 -1.4272936697111613 -0.069237494140584 -0.19805747583049116
Ni 3.725209385112209 2.2867702369052956 6.752181678191648 -0.670534962712613 0.3452582740204312 0.11054380908853864
Ni 3.769024019786583 6.959353800670707 5.844418419572213 2.0330797701821632 -0.7611640351550956 1.8645642696748466
Ni 0.5049762965184864 7.437642509372088 11.52124225240171 0.9001601860470562 0.46266769988055156 -0.8030437061080169
P 0.17327262413987154 5.431589099894538 7.927296315650866 0.1260627306597442 0.40145384737539247 0.8168240477215611
P 8.456666608525538 1.6673471551444907 7.957972875871089 -0.011734514828108823 0.25991616100850073 -0.09427155429107636
P 1.8620497913962044 2.9896991761437226 10.389601188416146 -1.1465148063210384 0.7881403066336233 0.3366617906006718
P 4.018792701223163 6.019333190234064 3.9433577232175803 -0.8338419224357962 0.3926033389632981 -1.5498054497948535
P 6.804793526376631 3.9284114830326335 10.51425093677415 1.351119339241428 0.2450310163665522 -0.9684851956756997
P 6.418311635593652 7.6130363898159015 10.311516219017674 0.06497949019517842 0.31563170940324997 -0.7883961313981712
P 2.270438999516371 8.581758473254848 5.7399607574864016 0.3002709106764635 -0.5519963083440558 0.6611257535835711
P 7.065849709456053 4.186697671704099 1.6488576680409635 0.06223175224671217 0.3867185980477469 -0.5108447738064106
Ni 5.371199612687867 3.0762276659557592 0.43296907380796107 0.48354402910892846 -0.8077843061167959 0.0970473172640006
Ni 1.3662207923721332 1.066420778713683 7.116897909331919 0.14116307663629235 0.33847801787380416 -0.4045204021158581
Ni 6.893992759982657 0.6245805045737934 9.05875151030482 -0.5899614747339195 -0.36953437295897645 0.7579265020544043
Ni 3.061719030750571 1.7160882293848057 9.068497920596265 -1.1366618247863585 -1.2927375568684254 0.018733057633129026
Ni 6.383068644852691 2.314677704995872 2.615135479541423 0.7612578804204825 -1.3261014770408517 -0.20793642550709995
Ni 4.324259022660753 6.964785516089564 10.48511907701856 -0.7764317599474434 -0.8522597628213515 -0.8217996465592815
Ni 8.11343993986549 7.315735687072774 0.35798523495676926 -0.5727137433970653 -0.596075043830825 0.030217404123644733
Ni 7.678424498853214 3.842803317095553 8.143249410630975 -0.1032436758826996 -0.9941507187626041 0.3715393192041472
Ni 3.1526506387094555 8.473042959829902 12.234749502532276 0.37393687290204636 -0.1856159076330287 0.6540397932710672
Ni 9.245645830072348 4.752787082632897 10.337016408580427 -0.26494061080628567 -0.8310777294270978 -0.916897296296079
Ni 8.390448403444148 2.453565405066433 5.78627289851948 1.0401660091504539 -0.19890748253561227 0.41396946334389995
Ni 3.579464369894917 2.4951514123181195 11.557359550823877 0.07855825732087761 0.4366964726277705 -0.49184766387861745
Ni 1.2655445786784207 3.408681131608971 12.782616500736946 -0.34404728443146554 -0.3819227193210003 -1.5111196031888814
Ni 3.102357645778038 8.240074700502813 8.038171883347031 -0.546308256820343 0.5076010700581322 0.23068297517499625
Ni 5.421573810667075 7.860314783120248 3.675571446232966 1.2870055394806545 -0.03762526655194165 0.5465669097983684
Ni 3.1928742057148845 8.399570437145917 3.4617432166700346 -1.157346863939536 -0.009806444567460531 0.26938861927531027
Ni 3.4481106937026724 4.031541893726229 9.202060374088404 0.4992537265347014 1.4553528898412225 -0.32769429699473884
Ni 7.41890218889872 5.99679427808073 11.464510601458834 -1.1487506376300927 0.38568887123165185 -1.0080956109784704
Ni 0.33606348116664164 9.287691999261513 0.6410326472560945 0.723706918749902 -0.3672406918287934 -0.7954054728364689
Ni 4.730636150152339 0.583235405630551 1.637883256971268 -0.26311846999588234 -0.644350076787129 0.9145748188104894
Ni 5.906124330831393 5.63262572987389 0.21132079814283053 0.07996105120567519 0.35171251428620715 1.53243147729278
Ni 7.812818852946049 9.02449741659028 11.38682082995961 -0.1529623832640656 -0.08740722307107526 -0.20613948150767725
Ni 0.14981970405974365 4.947146853127275 5.766424580282929 -1.0535884532039468 -0.9178468046935417 -0.06340957460489725
Ni 7.848287413264205 8.78792906681116 2.4698461148700654 0.47562528848248403 0.9626855582747872 1.1290601011797008
P 8.48056796092513 1.7143919461642987 3.6394794116034426 -0.07517468556062537 0.04413967063169172 -0.9672371822012116
P 1.9697186619829647 3.125113104725479 1.6928193740796689 -0.6633111912706641 0.359855969328948 -1.253931125524189
P 4.81685786533939 0.8282590054412543 8.259975350881271 0.05458991943073824 0.04705401606500929 -1.5592429410586695
P 8.690437895547442 1.7247681467152727 12.402488453804398 -0.8846950005319215 0.744431295781447 0.5163006547146591
P 6.1527530837534155 7.85417929062054 1.5480443080443163 -0.14580366073209727 -0.03286075528376276 -1.3043167770655923
P 1.614536805731576 3.1352456901330825 5.983237546491306 0.8204199926029355 -0.192378680278159 0.297026692707553
P 6.912895490551605 4.047782903284276 5.975960671930992 -0.7921512275652293 -0.4959169488519846 0.37435467716575527
P 2.1924189941561334 8.081760948444211 10.30600871222088 0.3729107456303771 0.6315529250224606 -1.0472159740186995
