# total energy = -340864.9445676964 ev
CRYSTAL
PRIMVEC
9.37451373701843 0.00000000000000 0.00000000000000

0.00000000000000 9.37451373701843 0.00000000000000

0.00000000000000 0.00000000000000 13.72054844449718

PRIMCOORD
 96 1
Ni 1.9342809611046818 1.7410066070229735 5.164510667160487 0.1906601549251555 -0.6008123014054944 1.0768638787921194
Ni 8.862309255633315 4.464237287541852 6.955000646062023 0.3807868059443442 0.08482249306303455 2.113192259364038
Ni 0.9334494148718708 3.3247463680414486 3.532328105311764 1.4878107532596119 -0.15980537432782801 0.1657831891778177
Ni 3.1426089365308743 1.476185962484283 1.317117334898832 -0.0474525370550086 0.5264961071904223 0.5663538626173085
Ni 9.2722661251268 3.6016976336298425 11.720682929237602 -0.770410236343712 -1.442238978167084 0.6614851938055188
Ni 8.78850370731468 5.143420823129949 3.3460715123721014 0.018452550278232737 0.7844548873622361 -1.2080119943945713
Ni 6.327637548679915 4.522734254582152 0.380933374308106 -1.348914104059993 0.5145409917110751 1.3594222026801683
Ni 4.0667391470862775 0.6418504712385303 11.871389490380755 0.38724361731328144 1.0881661911788163 -2.069815177929984
Ni 1.948614592932345 1.433841282977707 12.935115588147232 -0.9078454705064558 1.0745588848080267 -0.33845153551124296
Ni 8.317978103198216 7.5024141386834735 8.595484340012378 -0.7460534047659022 -0.16423127130966556 -1.3021603928442218
Ni 5.462754266280713 2.362593128909851 10.689734819492987 1.2097860555758584 -0.3478736001560912 1.087795695213275
Ni 5.426053044171295 7.25789869135781 0.2348025134233469 -0.5448990351776422 -0.9297008758186505 0.10953490820805008
Ni 5.132049537710095 6.011885169857578 4.426811415504194 0.40697760540709915 -0.2761285091023051 0.001142341134559323
Ni 4.313654469982824 4.223902873437338 11.414028516202544 1.333358415713581 1.794481139704516 -0.23323710905541764
Ni 0.9925829114092919 8.373765835707324 1.3449624536808515 2.7257316193984735 0.6739115924943297 -0.35368609307281024
Ni 6.026771898008219 2.0649616855504798 1.903534430255519 -0.40244937851944235 -1.1883674806907663 -1.210231113533077
Ni 1.836767267009618 3.9452079482544744 6.364125969322696 0.3243822019023703 0.44810008647902183 0.40501251126092824
Ni 8.624271597446247 0.42282713969374636 2.091985596910588 -0.4225777738382013 1.56625408226918 3.824043897872356
Ni 0.13971775589240834 4.252054538825483 9.438708745384352 0.5753799773753188 1.0040988311142514 -0.08455741232710598
Ni 0.6975200848718823 9.411918259421567 6.83863667931878 1.0130784089050422 -1.9514107351464456 -1.089263023787421
Ni 4.4856486774008335 1.2002752679442024 8.927288699069186 -0.9951274808535764 -1.3313768665071781 0.5876937617456652
Ni 7.735380184824257 7.378079960180989 3.260907802953142 -0.100119271321105 0.5964033737045212 -0.08529866136850471
Ni 3.112235511336872 6.104439746073745 13.37727391305473 -0.30041283557096654 0.322825913158844 -0.9620211852179109
Ni 7.617289432611652 7.300065255099359 13.000370642293197 0.6665991179933165 -0.44960341049742564 0.14469551526958305
P 6.506822008296627 5.1773940616802765 8.71949134797805 0.03614996755799581 0.5144625730646558 -1.1958856434446823
P 4.569363086963315 0.4497441815948382 0.15284301287207558 2.3907011937536375 -0.39807053272545634 0.32563741446571015
P 9.072579603504135 5.799346189611156 11.447986755530554 0.1233003374232586 0.4004344049719426 -0.5175962335976312
P 3.053672922698931 0.185559129101874 6.617598764726406 -0.631425398305661 0.31008918231846594 -0.39324842874646465
P 8.62479657022738 8.975094032950919 0.3243938057803086 -0.4009406551843998 -1.4854165419958223 -4.045834969874361
P 4.168733858848851 2.7800308605344517 2.801749734450953 -0.4795907008881353 0.39686905621818747 -0.8446981484240097
P 6.628090720737865 5.847540565821762 2.029626330123396 0.34528552771394083 1.4549062892221072 0.5230909381636152
P 1.4095800408783006 5.4257999322946775 2.136467665597482 0.10780455578050467 -0.8891142126455398 -0.4289929333359257
Ni 7.585828563799594 8.419382220582019 6.421436122897083 0.6687439322504611 0.16923258117899886 -0.9929752103972641
Ni 9.29779292660929 1.1336130992545275 11.679877544921414 -1.2432497345509426 -0.5781176880214559 1.9381212171263913
Ni 3.3053973712511957 7.202560935518244 7.235832960425205 -0.00599144169674452 0.47174240848831017 0.17509958148273716
Ni 0.9312576535106494 7.365133756417745 9.573156149534762 1.8144426704281074 -0.9104330287279739 0.6113260564526246
Ni 8.47992283166315 2.1465668294744877 9.670777650540238 -1.305143643842262 0.297630644840139 -0.9253983917885547
Ni 9.047784014109649 6.663479510894456 1.2812532568850379 -0.8724043560900264 -1.6330695972318328 0.2263781771520553
Ni 3.701367465933122 8.112188772994907 4.759178245397928 -0.28031349371793013 -1.0778907773947373 0.41174057401338116
Ni 4.271300415962299 4.529680769418188 6.543425735460979 -0.48067596353251413 2.51534081881361 -0.3624394137854081
Ni 6.21714015276581 3.948910881264237 2.975466040081351 -0.15077488869444355 2.89345213480832 0.19461759691100677
Ni 8.671537896775925 8.298947839882223 11.130438219835636 -0.1048614139917807 -0.9341290867933331 -0.9662951300029166
Ni 8.381256072352388 5.0073685021915075 13.370907680632122 0.7740095236591961 0.8504119109793354 0.0023067937563057044
Ni 5.197586764725918 -0.00011155671599031528 6.1996435599318325 0.6165181421765252 0.36171539113518997 -0.05185040901238812
Ni 5.090492317375215 3.041261066230765 4.721323020621416 1.0074824028745035 -1.4041190313669107 1.7346924496816574
Ni 6.372841454940864 8.955238812407432 8.54084967271897 0.23137125949127252 -0.6035327856604509 -2.997835580722418
Ni 6.619175557972588 4.049443168850804 6.369696305511053 -0.4291420573192803 -0.20123201690373088 0.660829562499391
Ni 5.347466493738789 2.677848658492903 13.310715801469884 -0.6651058212772416 -1.6554276532120586 -1.0604016194710382
Ni 1.8019128241481062 8.918668833493296 11.293287588896625 -0.08761831064061684 -0.0015508894268876515 -1.1184422164545382
Ni 0.8714323178438095 7.243443190848812 12.782419755144154 -0.3648071426866363 -0.6256548143704709 0.060338391878741245
Ni 6.373741408279946 9.218006438391342 12.682397441116398 -0.05931920658560751 1.0855230971290144 -2.368510516589211
Ni 4.732638996408971 7.556120729095953 11.521103277073955 -1.0993767151826548 -0.29383132569870685 0.01639026843256532
Ni 7.688582611192018 5.896288038355346 5.29135721540124 -1.2243423561234785 0.5618271783915485 0.037043168796226524
Ni 1.4482030383472166 2.167322003357056 10.26726484878069 2.278980590748178 0.570901629888991 0.7088605977656889
Ni 2.8171914338273605 8.69293053760701 13.262693916315937 0.39931160422140904 -1.7630370622626217 2.323232361477702
Ni 4.699668830851161 3.796134427441198 8.935438901496243 1.6181811101557744 0.8472065166681604 0.08745170315576552
P 7.349937669306795 2.2628951730647247 11.97079496139068 -0.6934620038224315 0.014389693062768764 -0.4399874846742164
P 3.0782997708423396 8.598913537214836 2.1163949563303843 -0.17105060822434415 -0.11050935630617742 0.944913836113663
P 6.474273695866513 1.8550850672655068 8.573230181349402 0.7632098619405308 0.22793652277811066 0.4271479097073869
P 6.579165132439256 1.80286902457088 5.917165080919247 -0.6327101785553555 -0.34421697724011036 -0.9901724508411462
P 0.31466962246125363 0.33667723140737665 9.594834713041283 0.12458948854832737 -1.3001256218023802 -0.29146616790063995
P 8.673225309286705 3.8301357895333723 5.058066811077828 0.012358264455036782 -0.8328667030067205 -2.025530754190312
P 2.5720010214973863 6.589289607503923 11.203363501294481 0.7645818025873928 1.4862765760032726 0.4393426520013659
P 0.4953118189969999 2.1098187347953252 1.5152289381781034 0.5496149525960727 1.414752856931673 -0.23079019017682187
Ni 4.047783879881872 0.9076170042346513 3.9257230210119647 -0.8666468847809591 0.08698376238041149 -0.7777422512287508
Ni 3.579892514185013 4.201647777322968 0.9272866094019521 0.7224720179015364 -2.70521035951667 -0.030098104936961065
Ni 8.15302415575573 2.720305832166864 2.9000846359679286 -0.11485683464159574 -0.3348298795982556 0.17023068342621003
Ni 5.167653941687508 8.139318616362635 2.4700831807491914 -0.6650140328943838 -1.112233259430349 1.3736643144214795
Ni 5.909374859827822 6.749387556720947 6.962698059465353 -0.006413102615195406 -0.5824361128911517 0.6314945609806996
Ni 6.3631200839759945 0.5182109442196505 3.7385336639344 1.2001094517180428 0.20852546524135057 0.4790340570537169
Ni 8.56188420711721 1.1490435492141962 4.78279077113208 -0.48029698292654055 1.9933749953933735 -0.11906701606820139
Ni 7.240705832775774 4.162687297351897 10.601936871654424 -0.9681368111973454 1.1960365672002498 -0.2141070730941861
Ni 2.3723519979305165 9.190529738007509 8.791688229703075 0.8291658571163655 0.1941815378148527 -0.405497678427463
Ni 8.000388319641923 2.7305802994547115 0.3057844581406132 0.38082305849891834 -0.9337678467991726 0.29759593494746167
Ni 6.545088774235491 7.013720726534302 10.086675149523055 0.05693270863130195 -0.49965379018659756 0.21259140778060806
Ni 3.6391581913691113 6.036905747586835 2.062157768428404 -0.3250445180767176 2.134498734151298 1.2483394903690244
Ni 6.989459484434897 0.4625469552946679 10.380253990502375 0.16813754834260722 0.29336647024714635 2.275263032687275
Ni 0.9473321325785985 1.947377157091108 8.042724562085944 1.3629402431357558 1.4035348767286666 -0.4569806767981033
Ni 2.8587205306203938 5.560867929268498 9.243080450850107 -0.6687701575027062 -0.4779323393491059 -0.552994410591267
Ni 3.431250221013379 4.370567144165783 4.109949094230324 -2.0468431425148426 0.33345896739265796 -0.4973662797040015
Ni 8.350179558612227 1.4242605297220683 7.13851331876888 -2.8162503915153367 0.8279486968798129 0.8001591854713703
Ni 6.6227941203568115 9.274637877155838 1.1326559613803584 -0.6311932276901968 -0.029583112973755505 1.048892076169542
Ni 1.5235085088976537 0.8130037847553356 2.9607846137861884 -0.13634225820888135 -0.659564065523406 1.0346476504353859
Ni 1.2392451224292227 3.972919011487027 0.1303769901938579 -0.3041296223009214 -0.30305747228266516 0.8668561725782878
Ni 1.9284218898867032 4.550257827535729 11.433004407337638 -0.27985146647984704 0.3312730154849327 -0.5398972110876765
Ni 1.6385806676187562 7.222153669671165 3.4643422552525234 0.006473009318853368 0.25987219514444276 0.27295422513938156
Ni 4.1787552142600815 2.357755879712288 6.982236421437372 0.17298510624289562 -2.0916512999684684 -2.3369995904651235
Ni 0.3282832916176516 6.974394640519229 5.566412954269192 0.8525862929228349 0.13207679806430803 0.9368434004007028
P 4.596455432275248 8.269127511011197 9.290746104474003 -1.5163224875460597 -0.8216114418078753 0.7370661136656275
P 0.7247530478930475 5.841250266962139 8.034437491755236 0.6411837632440055 0.8847330528587085 -0.38097809601954385
P 3.070912653850712 3.2303918851471187 12.730460574131722 0.2564390010931777 -0.45039659582268243 0.7665448398510346
P 2.8308875987065076 6.027915588709968 5.401574313348276 -0.02751697447334616 0.2896818223067075 0.0015496038753070084
P 0.3465364077272938 8.911825438310697 4.577147683346369 1.255655050193831 -1.8094457314341483 -0.15116158260990095
P 6.236170416081805 5.6919892558698875 12.327514903620518 -1.1509216771394823 0.4687997809202184 -1.2789433312978102
P 6.1315227168717295 7.909380538227302 4.642690535070562 -0.36232217148125345 0.06024377528240592 1.2891218144927088
P 2.8382184686144427 3.0481513339831086 8.441924176823221 -1.917348246245098 0.2724608304427308 0.532489862880012
