# total energy = -340869.2671772494 ev
CRYSTAL
PRIMVEC
9.27765094009721 0.00000000000000 0.00000000000000

0.00000000000000 9.27765094009721 0.00000000000000

0.00000000000000 0.00000000000000 13.57877995016050

PRIMCOORD
 96 1
Ni 8.694847244571765 8.015342829165066 4.586260039957647 -0.3369034742978327 -0.32451281394296366 -0.5846927701358124
Ni 3.2962101313167342 7.484178770907201 10.839410532724514 -0.38922748051252964 -1.263812646303959 0.2597636945910365
Ni 1.3542122853980527 3.845567662610365 5.098057930130424 1.9934040488590958 -1.1659454042418242 -1.5183829696195141
Ni 0.13399525362619116 2.8389703938895594 10.67111487667072 -0.0705181606252205 0.33497309004433923 1.601996529976112
Ni 3.3801172043077936 6.1968212365013615 1.4683821272291757 2.2350967448810346 -1.1253893371963326 0.8682517673742337
Ni 7.480087326945562 8.061629028540608 1.90316067229552 -0.010628683358439759 -0.4320170648742302 0.254302157255833
Ni 0.981890884888963 6.101400598983334 7.926462935395236 0.7041711627098195 -0.604868730863055 1.1143143103290938
Ni 2.9671133054499874 3.8407340065921938 2.780811584904701 1.2271096344559707 -0.7466501578096367 -0.15830564985384996
Ni 9.206621012852706 5.916849571126395 3.185446115060027 0.7781893660684984 0.02224775565460685 -0.2877061866375755
Ni 7.341414281833073 1.333755065589861 4.102271907778092 -0.9607364049682164 -0.5924772991772377 -0.4665629211698998
Ni 8.709264713769919 7.431166274769329 10.610960445018858 1.2805579840830978 -0.9370380329100121 0.15870957016048795
Ni 4.185343064440481 6.640051721361476 4.845832006958804 3.2740309385069164 1.0194112931016057 0.07791830974403355
Ni 2.504242034043868 9.084156023524754 1.6288557959721828 -2.715795591231684 0.6053986352245961 2.7734716057869138
Ni 2.3885868403346078 5.951204711693168 3.9115577365567176 -1.7882552133994623 -0.5106635110335399 -0.6366755909610068
Ni 0.522715829524378 0.6875555606899407 3.3652423469298007 0.09813592234248905 0.2581505844676457 -1.3424727193100232
Ni 5.729450304502511 4.7486912929997604 12.301071002016712 3.218149553958264 -1.9333983577294251 0.6605835079268559
Ni 5.861981544847191 1.7865693636299576 9.656223388218155 -1.5432167408337423 -0.7158480848271155 0.6352738255174736
Ni 8.299702823324285 0.35647981192746253 6.309311823554579 1.3029090980847884 0.2367420368848826 -0.2582428870711359
Ni 8.641714138974708 3.6667409452394377 8.631378836087483 0.04719054164287356 1.0351348744844493 -0.30956287750135075
Ni 4.449691166025428 0.4746279103816028 12.122048526215874 0.5924647007717474 0.25386095595335634 -1.0211724987670865
Ni 8.169862101684538 3.8221323169253347 3.814944920922883 -1.3147551987900972 0.08334359452466292 0.43713407438582136
Ni 8.245994503383413 2.20247716715895 1.8640674355128544 -0.14616670049847086 -0.7899429070600008 -1.4211122234907976
Ni 8.086474577133052 5.707276719313587 0.6844234258113713 0.4858554508509246 -2.1243107378747026 1.4329284993994353
Ni 9.343243697159021 9.354747984035285 8.484157363613875 -2.2717177385381784 -0.09747874837446438 0.5052454253417621
P 1.917551236306625 1.8552518118113834 1.4511507465716909 0.13856960487750328 -0.39480934547568136 -0.525169675069515
P 3.9543666724474016 7.300230790346195 13.124474563178964 -0.07662350219200996 0.7471211839087842 -0.1787685456938921
P 2.4168651196885165 1.6706822286530314 11.094881778113324 -0.9359648544504914 0.1984526543863808 2.5178815829575925
P 7.122721499375614 5.3810559651659045 2.508842821029302 -1.025370338898518 -0.02634789386590946 0.029397993546142916
P 7.947077875265441 1.5473265848572413 9.581757252586195 0.6510416298746916 -0.03606923491873143 -0.16241478692621705
P 6.3174399733386855 4.085432043980429 5.830212085532365 0.22655249794639049 0.6352082623868609 -1.500305800402829
P 1.2698784404744867 7.7504102355856 11.966543967191356 -1.3411300892391997 -3.1151102807768867 0.3199182525937458
P 4.398970249612102 5.82984376279931 7.400461889755628 -0.7455579531867225 0.8909764626652591 -0.46300837104942194
Ni 8.527088764493886 6.933949140447144 6.685579936674282 -0.4510519700184942 0.49918559230092735 -0.24595069996734414
Ni 6.327190784231389 0.6565784127454639 7.610064430050698 -0.09513673050484905 -0.6347904581231519 0.5516042151119597
Ni 3.276346681153769 0.3039376926804185 9.841112122560817 0.7785693751157365 -0.5783259473775202 -1.6114515047414248
Ni 4.077202767803619 8.08750439636149 7.942241435952058 1.6230700628169596 0.11847077724509919 1.8855434430296754
Ni 1.265824107115675 2.136689345998003 12.830656931889374 -0.6087585528357644 -0.027358851628927074 0.9306131032202747
Ni 5.691940762695473 6.403972621479731 0.6097105046706149 0.653685752365758 -0.17708087357882407 0.9219623695238123
Ni 6.197461394400121 2.086951860559583 12.342594983284522 0.42054094591383057 0.6936414668230894 0.47736052600603596
Ni 5.525685262032073 9.089852501058646 3.584104910395191 -0.9090042667012473 -0.3720594533736754 -0.44229119310672865
Ni 1.507720293990497 1.800458006737832 9.036107070514946 -0.5720252019704729 0.20423917916117085 0.27768119830140564
Ni 0.6467385364059772 0.23979479898976308 11.129439171465503 -0.8255385447764234 1.7544729747426946 -0.9929883230233867
Ni 5.6463039988693975 5.9511119351861 9.277659984313622 0.057608137431771754 0.18683538186242662 -0.03744914598539357
Ni 5.164775371892179 3.7759945599611 7.6007765739282585 1.1364885324332878 0.29482402862927937 1.0659752569040737
Ni 4.149596276267709 1.709852469936562 7.830909627472103 -0.8018766823831093 -1.359667485921755 -0.8587795662177404
Ni 0.19629003929607933 -0.12044617253418063 0.6757924273589628 -0.2425722704134145 0.6653595891592606 -0.17596655746872275
Ni 2.1779841692933593 0.21056741596856288 7.407835766537284 0.7650975658815468 -1.1764825563277221 -0.839942121796263
Ni 2.9785990370248356 1.4295746420882753 3.829405995079359 -0.05077748766318352 0.21239163306497613 0.2527911199279453
Ni 7.289255329560214 9.348439181554754 11.350312201839026 0.14956801287053598 0.05536125037912401 -1.0089492172280172
Ni 8.253490845154397 7.359310870046225 12.977946131213141 0.48735851775901223 2.649893075001604 -1.1859092489582608
Ni 1.917987285889838 8.660315828641565 4.70595657831473 0.45900027833129337 -0.9552044194063937 -0.40570388090099807
Ni 3.375580433112235 2.8437669393049037 9.720192789840596 1.4530116433025555 1.360872819083766 -0.5974492984705323
Ni 7.039296864221301 5.910809820516357 4.6182512351243625 -0.5226939598355127 -0.15804673976550845 0.8226640514421057
Ni 8.373654977107094 3.4451257028093805 13.142886988771407 -0.5287018565924895 -0.36292329540036206 -0.579967339635685
Ni 2.916475887893021 4.132599620173103 6.9085432217520175 -1.7659002427430297 1.0641993959505736 2.2372212474232054
Ni 6.363438565542321 -0.506971656275171 13.482723623096188 2.106028651736063 1.2390603790599435 -0.17363302423953966
P 1.6017214509504059 7.998058565898553 9.06557381692438 0.977665062402755 -0.7349534381979987 -0.1794347185229813
P 7.681625733246402 6.021631358207446 8.51168136996533 1.1369595585324355 -0.7912158602351534 -0.12976151966757005
P 6.420394063230525 8.91354930467993 5.640665970534958 -0.6531262803178622 -0.028236883358506205 -1.0414248212582196
P 0.8617592247137382 5.9266189373205105 5.5584325857313805 0.6020508017982857 1.5434887635482064 -0.40680354172308003
P 3.630242667359426 7.885901046505706 2.9443682169775327 0.9039083402355786 -0.5434515040978383 2.0051737878005143
P 6.383886507699805 1.2684032940121273 1.9058363467593216 -1.6744695003348582 -0.8299922096724028 0.19265533097831336
P 1.408013381845991 4.054435412969467 8.879312918042203 1.6607457229908624 -0.5217117984279015 -0.39521840798864194
P 0.2774388667320478 7.983863760317359 2.566579496907006 0.41526041424118154 -0.370603180543123 -0.5645126956435117
Ni 8.820151195015955 4.337190373556433 6.2179408805700085 -0.0918572884226289 3.257442438020616 0.2396738658196969
Ni 0.8238813601736457 2.9954565283588424 2.803189278409172 0.7696826141490679 1.035481459190591 0.42139969436970004
Ni 2.7103914327459178 7.198445684443397 6.445140340960407 -1.859131785805366 -1.224243368651769 -0.06324219578909754
Ni 6.96528904453425 3.752661268433843 10.265584125457128 2.403461321632783 0.6468882698279504 0.6578367984196541
Ni 4.070550692246941 9.237589810911546 5.722328779820075 0.19675984006499017 0.21862218735572025 0.06695255476114922
Ni 5.084198975504811 2.5004289196034293 3.260088526055413 0.686674548586953 -0.1211534662835849 0.004234864016953997
Ni 1.6192376554845853 7.053677222816629 0.668630081013419 -3.5149942125619984 0.42721810082369005 -1.6357581998075892
Ni 0.8060088938523302 1.9603583166671674 6.891217209057325 -0.8560444266747643 1.4675165217869501 -1.647566505296427
Ni 1.1555685061176928 4.632071223617007 12.727390185168721 0.285961693142643 0.5377544537130611 1.3042650978920505
Ni 4.9711600792948305 5.067026044046779 2.8520194096084803 1.0829725627930187 0.06785012687475411 0.19705757381106706
Ni 6.46578033048752 3.656452030605749 1.111663879678552 -1.1520547623026611 0.315585686656663 0.23238684523998043
Ni 3.386908444625071 5.2357215668460295 9.487303346271803 -1.058327510550829 0.4505529188948886 -0.6666543967112842
Ni 4.179628031605177 4.08840089220656 5.022871848803628 0.8014822751581681 -0.166367600926378 -0.792666733749067
Ni 7.6605840214436896 2.7623648320046432 6.825563913831624 -2.6062324008888598 -3.938652878169204 0.3204052195324934
Ni 3.768535328792943 3.1034576602351054 12.192617120785963 -0.02273703658619955 -1.5322910950601738 0.06263155878829214
Ni 1.1232915593092125 5.384247477008997 10.465029493758545 -0.36670230282682004 1.2730881580686138 0.7573958263619149
Ni 3.665692570709585 5.360097752219553 12.237766807949939 -2.7062210601693715 1.6742563558827874 -0.5503384610256586
Ni 4.454682542105613 8.96800911432804 0.7994764999897688 1.0958969841641708 -0.769070691596682 1.3989580559912616
Ni 6.171799412545491 7.0915578706519335 6.864303672122366 -0.542607153819672 -0.014296104907697959 0.024584374207583467
Ni 5.545094107310411 1.9551628322714363 5.729986552713356 -0.5142653694521853 0.3536033035510168 -0.4710147862936662
Ni 4.085877371214348 1.9904921261624084 0.9879807348128166 -0.013650500903899071 0.8903928222476472 0.031014703213959483
Ni 2.35021447701185 9.185245305624553 12.946442940473597 0.6851797092089812 0.5077098277218546 -0.2561258407281331
Ni 5.875165086501359 7.025528830572613 11.877833854429456 -0.00955499067828677 0.8536116488635557 -1.1880026411521798
Ni 6.988037844066988 7.921991107754625 9.244799473275695 -0.7182021868815889 1.5915907612617557 -0.9592202254340061
P 5.011332306854682 4.090831636691706 10.339018586330507 -1.6831287186717527 -0.2061482232584256 0.9497361972029709
P 5.224170891716235 8.553251739486676 10.36252351439584 0.2855554588431598 0.5758651445418533 -0.6530573747531399
P 1.6090786279607896 4.887021065036104 1.53983395414654 -2.2443660859981023 0.851308968872308 -0.3907392891713658
P 2.919518957324806 2.1376078334179627 6.05318928708616 0.5760659476987497 -1.0322362127804157 -1.1520215950718806
P 9.13493260584232 2.1231625312676883 4.754975973588453 0.9931595584939281 0.5465329712366395 1.8793529979482473
P 8.18976266245033 1.2283423982607566 13.05625414200273 -0.057796085072861755 0.24691949163851667 -0.05997843743616122
P 4.150997201524415 4.194091889056865 0.5656685690010154 1.475786475105226 -0.04006318656947294 0.5437584938152957
P 8.33666498373963 5.4277503811725385 12.0247695752613 0.013390048153660811 -1.0497911909450437 -1.1654530379864378
