# total energy = -340876.0778206379 ev
CRYSTAL
PRIMVEC
9.17259194538315 0.00000000000000 0.00000000000000

0.00000000000000 9.17259194538315 0.00000000000000

0.00000000000000 0.00000000000000 13.42501549186916

PRIMCOORD
 96 1
Ni 4.7452754147945635 5.726440073648704 4.929732572831091 0.13693541170818999 0.9725722212608799 -0.028891743333685726
Ni 8.23947347568472 8.800221548358817 7.530252323771152 1.0292025681604144 1.215739702056132 -0.040707247911375054
Ni 8.122577961998843 8.066221556154051 0.21378835578553293 -1.0380152813560382 2.330299552737128 0.3271371389396882
Ni 3.5813835487734154 2.99326446128147 11.850435882193763 0.46095225985134164 -1.5097792871109033 1.257820690386582
Ni 4.078969152266647 5.237339117845321 12.727935574202933 0.24623583530793075 1.6607742622359525 0.34406425371233
Ni 0.8668558161396555 7.048430737056054 3.892422477750393 0.04307214859912582 0.6038032657130181 -0.8528765704697441
Ni 8.107910987235526 6.395828327121257 12.104719397569724 0.06892253400332647 -2.2097726642939493 -1.0321343970952288
Ni 6.820354234560816 8.297517638475384 11.529900568618622 0.3516034995121687 -0.46717021573659545 -0.04405996643369186
Ni 8.563587017436951 8.447535382224013 2.505148641869319 0.153073197810317 -1.2971886506612436 -0.3602028111454055
Ni 8.619007818887836 3.884326747965462 4.446029687476871 -0.006460410913363067 -0.4966222024491254 -0.6277188959883512
Ni 2.3575029304370108 3.063434790824546 0.7747464808186545 2.152947170664473 0.2945448068259637 -3.0435066003969715
Ni 1.5591938950392379 0.25081535830403406 3.8421053065423543 0.5578761641636005 -0.2818515276290114 -0.942832270994286
Ni 5.431266059962929 8.972987320508336 13.344130131585787 0.5104043438348823 -0.47472643081729854 0.0933079048262264
Ni 5.213747210971492 0.7709196753957301 11.107280725816848 0.438438909240174 1.5729011552720524 0.41935361047394876
Ni 1.2846215232036267 3.7318324043506084 6.095359893277016 0.0810170032740153 -0.5751130968671773 -0.5931218747397721
Ni 5.590584812098051 5.048310339907582 7.586960039893263 0.1159904340254067 0.8948832539188328 -1.223135480299571
Ni 4.407907477461972 3.5950965739586307 9.183422176623157 -0.4784948967207953 -0.7896168911791498 1.8814039669400051
Ni 1.4098824408820896 6.690213497886678 11.958386284066513 1.5358415314155935 0.2635501582166622 0.4836083066879606
Ni 7.129525623786816 6.730939806797952 3.8293783350075805 1.1176580299903462 0.6688290357650998 1.5721768755115182
Ni 7.8874569087730055 3.7901976078646724 6.8351046799122175 -0.3240633851103709 1.4339242876538014 -1.6508582886738212
Ni 6.1307495881061795 3.549545481604263 4.236048874670859 -0.824098212785471 -0.6992343875298345 -0.4465247715721019
Ni 1.8610272105875316 4.935193934165724 3.794513312446374 0.21832111117553368 -1.715296561653549 -1.4065253268155582
Ni 0.006998687770113297 2.8838446101547577 8.546768152567646 0.42405847214878584 -0.8753377276867377 0.5809068207308189
Ni 8.888140843609847 6.101617435605681 5.726615270157759 -1.3023200583505377 -0.23650832360752175 0.33767917612159265
P 8.272870883510384 8.489830204383896 4.827125205854919 0.704673813377851 -0.2589216583057154 -0.1469791690974372
P 7.19016563014097 1.7737224790070096 7.326299738491375 -0.7336475749023816 -1.700745917532884 -0.08766973270384255
P 7.118839553993656 1.9827475077165009 10.536261184512378 -1.4903391761084204 -1.8503432409794585 -0.13597021958144326
P 3.5620477246326567 1.71662309320235 10.091678487193228 0.6485335187408573 -0.9515069159501486 -0.5701331271540826
P 4.222226695639687 1.569054431543657 0.19719605394102713 -0.7828276361714582 1.2718460581313968 -0.13253394020638465
P 5.3825045603745645 7.399685978823706 8.138995984593503 0.10685581871399015 0.4375302813829755 -0.3154455615343728
P 6.823115184782053 3.992077187330496 13.268023300437445 -1.5097268366064127 0.6836828129484807 0.6951661309977318
P 1.938975898228977 8.153177729234882 2.093228627748852 -0.9555420052514704 -0.8600838868514606 -0.45897199619651924
Ni 3.5724769618470984 6.838800317268153 2.7825223233313956 -0.9258797023003473 1.4163754801367605 1.6217017217145233
Ni 3.6153863476774912 3.6524894827103984 5.07481729654988 -0.21480615604373973 -0.8560583106318354 -0.5933172785800297
Ni 1.1044626418238164 8.658229822695182 5.984294479128078 -0.19295100784186126 -0.4206353053998498 0.173341718251366
Ni 6.758209923102732 7.525469734251706 6.248915505797509 -1.3086220893091658 -0.17229116549966458 -1.8606564499800087
Ni 4.173116637551631 8.140969009153597 9.898895367310132 -0.07539425777059919 -0.9490322291574108 0.8564845995359766
Ni 1.6481130028288558 2.354531010597539 10.41393274452737 -1.128215236680902 1.9395584637935501 -0.2917731576180975
Ni 8.429951523173806 3.544060271530177 10.881914724286313 0.024998578926866626 0.1545955479921144 0.9728588992633631
Ni 2.3777376686032885 4.894036513425884 8.621759596516975 -0.7152618733063423 0.21760994404112197 -0.21395897755209603
Ni 8.499571497191052 1.298802350585796 3.4616674630176703 -0.290850388693512 1.878148693227501 0.5526352274796353
Ni 4.868600915540531 9.09498279540022 6.145932062545355 -1.074823451323323 -1.671596292552121 0.6916869141998797
Ni 8.965447449804492 1.706900145579388 6.095990967613298 1.2131272041339494 -0.3782283011885486 -0.349338871847708
Ni 7.67201106559552 6.314926064824534 7.8898949837524235 0.48534637242498996 -1.3314254603569262 1.1773577598438238
Ni 2.91600371804731 0.034907216484853426 12.109229561103884 0.4078468953859299 1.0396633584824224 -0.54940926434317
Ni 6.83314082794422 0.9823662684188648 5.179183049431072 -0.24908307494873877 0.08358245000834638 0.05412634953075839
Ni 3.069873950476734 7.502969365837436 0.23030177333800342 -0.1597297838948862 -1.103731649717241 0.16143211129797358
Ni 1.62870379795132 0.7475185584375218 0.7544466172484872 -0.40478445441052224 -0.6255483706995937 0.3099583131675565
Ni 8.845130559266385 4.34447900311029 0.12078927903111002 1.7441942185245058 -0.0902608904697865 -0.1979003814273366
Ni 4.712015595850355 3.778337446283078 0.8976619666978802 1.178561550343938 -1.11533400984286 1.0370200073223044
Ni 3.0983823667146266 2.05056965368271 2.8515671758241528 0.11432487339752569 0.8781260890651521 0.5869543124764794
Ni 8.827436629111013 0.7279726819377388 9.945573771233239 -0.9377137188207979 0.36401395736137954 -0.8413423445778994
Ni 0.6372594151339216 2.757684778450776 1.893866924813691 -2.1944231784210726 -0.731350808448405 1.7356537851536624
Ni 7.743988395781732 6.155799937123453 1.5560935589104066 0.22681577891010615 -0.9512454347586456 1.411763435286046
Ni 4.687075317938247 0.9012833060578288 8.461276842444729 0.1966341131204033 0.41537559966280724 0.27115291026458466
Ni 5.320846396297629 8.698965304198554 3.8618135379222567 -0.15433560946250838 -0.6543920344041634 -0.36420447610563084
P 8.44747117407933 1.0295409095744252 1.0993773567651652 0.4178106914668611 0.662345227812969 0.2300242585450748
P 3.966247167984967 4.48472793627547 2.9499725783606263 -0.5198827156389627 0.0733260623876608 0.02848628036515094
P 3.3002894639567417 7.754078247088579 5.157340355870166 -0.22468716260287758 0.20850823885016992 0.19334052997079607
P 1.3144324475193125 4.011816605523529 11.92569608309154 -0.17029238990208093 -0.48364147391874124 0.8691506250394192
P 4.844623759798623 1.6828771268769938 4.2095749393601105 -0.09012127956812865 -0.3108808249818259 0.9061937938356458
P 7.30196118262084 5.614002439722034 10.036542036097355 1.8063110424599083 -0.3458766243307204 0.42872810971031333
P 3.7675321327926543 3.9318132572523252 7.2386473656703725 0.3125877803706036 1.2989526845402015 -2.3186367716872196
P 6.763282366532447 5.090806959093603 5.533523033920989 0.6402365688393877 1.6697816079408856 0.17180676966407832
Ni 1.141455705751558 6.967766962153857 7.658487913066716 -1.1872526503600327 -0.26001771958337155 1.5925261285918315
Ni 2.877570557160318 1.2671569078506832 5.721983111148706 -0.21221448405716356 0.34463092484907737 -0.43140231410836666
Ni 5.654664540488629 1.4441604175490796 2.109486129981812 1.1497963052857876 1.0358686673266806 0.06365254385363876
Ni 5.112417586074452 2.186204773023032 6.5424265285360725 0.4067683176097705 1.6583250293645118 -0.04300221459313885
Ni 3.8927288423264375 0.031008864843571442 1.7022111164993332 -1.5802761075798848 -0.5519847383798301 0.8821881749496678
Ni 5.590548121729663 5.851352432827475 2.50873237360167 0.10772459447218867 -2.0483379818928142 -1.287516160568486
Ni 7.058621486875971 1.7994974627999563 12.850209895894567 -0.028265165493280356 -0.04432453294898817 0.11745107773133322
Ni 0.38130923977391196 1.3153130163606372 12.056214730560079 -0.2919539061703359 -0.48714125954188364 1.8537221847540202
Ni 1.843663493747657 0.10252297912887723 9.851907847033353 0.4348095400177028 -1.1268119285754723 1.3917972765767643
Ni 2.5921378362817 5.354895058162191 1.2916890054144683 0.02316898191729558 -0.9939774264095331 -0.18923704932538377
Ni 2.042130868953347 5.912240099168251 5.80880261260729 -0.3124029180533071 0.2185851634701977 -1.7250986353456355
Ni 2.3617406679858863 2.527232574602379 7.843256939234545 0.3060993444327825 -1.7752148352757362 1.457968987307831
Ni 6.1112945202681574 6.4266574091597235 0.06565191067602741 -0.7808723122173004 0.04001613538162141 -0.4750046241793497
Ni 5.235614670531059 5.876338573700068 10.00413343369976 -1.2382247705325256 1.2664187164682381 -0.457811914450147
Ni 2.8291484434795473 8.584977502207469 7.961262336564175 0.7040328373597423 0.7319010245249201 -1.7205009886726241
Ni 5.871036815467925 4.123346152832582 11.294627250363973 0.6587523682553881 -1.2662371965850514 0.36982156518209214
Ni 6.686388526982173 8.862154890198665 9.287935608237113 -0.6985617869428421 0.19496315317588359 -0.5278461934604136
Ni 2.9539415589610565 4.945412201761932 10.877552239484917 -0.3935803581645867 0.9372375505153278 -1.1510072948747532
Ni 0.5279918290360217 5.380890184165469 10.340900566249989 -0.22313575895535764 -0.510979756722378 -1.7167626046761142
Ni 6.672565430691792 3.2892915260322777 8.710298041734562 0.060552821882392485 -0.4562949635849884 2.4083788135390587
Ni 3.5080853653252166 6.491094868642091 7.191754323092193 3.4717770537445762 0.4343886504302002 1.0143205088422595
Ni 7.239835216346951 3.6198258822525045 2.137222213965126 0.342886431354145 0.06849084578254656 -1.1291336347301135
Ni 0.6338206103567061 6.576436665513826 0.8645131361180474 1.932389713959253 0.7998941047354418 0.46272092171599016
Ni 8.796928587795946 7.4556387906162245 9.6083241603387 -0.11839390126057675 0.8033003022035133 1.5562656035979003
P 0.07270013044346522 4.770023068272631 2.544523827964687 -0.5552852635079727 1.1495715908694912 -1.0927455830193826
P 1.3382353240113753 2.364987765588272 4.182067252920015 -0.7508865644884875 0.6243700341207764 0.7541243546994947
P 0.3749994136702934 4.877525847651042 7.745025815947917 -0.3412046727763478 0.9305292852572168 0.12067626953685025
P 1.0295684273507166 0.7683761156071949 7.922974102632318 -0.7221169485549628 -0.4439374704609 -0.584751905508522
P 5.712039104056203 7.914314258433413 1.8753401232958997 0.4449394293628531 -0.36459219846235275 -0.12162860614779052
P 0.07328992811531095 8.28860187895697 11.84852981755598 0.017302238723873424 1.3674345314616838 -1.259532016650734
P 4.65663148476786 7.28644115679249 12.028760245154146 -0.21351083427108392 0.2526949606697132 -0.9642032804708942
P 2.1690153354330026 6.911346348164385 9.716395640427132 0.19312301464335127 0.30773610870525714 0.1184260400500928
