# total energy = -340863.2989555836 ev
CRYSTAL
PRIMVEC
9.29866463399801 0.00000000000000 0.00000000000000

0.00000000000000 9.29866463399801 0.00000000000000

0.00000000000000 0.00000000000000 13.60953561528063

PRIMCOORD
 96 1
Ni 4.56389603890614 7.533498883158088 11.742960523259445 1.8497156346977885 0.39329830814779365 -0.48525535537308045
Ni 0.13458142863315556 7.209282353838225 2.712421315979489 -1.6764690472633899 0.11485169243527317 -0.09346114257463903
Ni 2.8284305223391324 8.743143528988309 5.4280813567463735 -1.8312669410742977 -1.123402131562975 -1.1796758664540394
Ni 0.9772710241333902 9.299036280179982 4.183217089886185 -2.0535352098230377 -0.8850865795433853 -1.210035195472187
Ni 7.044277555238375 1.8640753429651216 11.414140225228012 0.7759373368095281 -0.9026860377927034 0.7425230230151405
Ni 0.8306859497119818 1.3034588702919774 8.664401509544893 -0.23013712997385527 0.21538568269629355 1.665065690522455
Ni 2.5465508117301807 2.99959103672783 9.776654734744218 0.05300740543496677 0.595283144057149 -0.3297576072816708
Ni 2.3028979101966858 7.972163373095982 2.577441904512855 1.031479022899417 0.8164265551728263 -0.17840319193467338
Ni 6.267104488899867 5.092162458362667 6.4326969630856015 0.42106262274525547 0.6890147666843554 -1.9441771935124839
Ni 1.2980935409714864 6.613265866047041 4.76260198665028 -1.126089448587151 0.3586004996552921 0.5338718308292032
Ni 5.344890856285762 0.5020953286895907 9.390865239806512 0.860254350991054 1.074295603844311 0.3720337423420625
Ni 6.9121807297151605 3.3929431353680575 13.447786010980785 1.3111212015819353 0.5024910025250765 -0.02573237176909762
Ni 5.943213412831681 0.8225133536291751 4.716615442188429 1.3283085119944995 0.6138177125262267 -2.1634724956758284
Ni 1.5348561322337784 5.328562401715949 2.554618332906018 0.43600433165675234 -1.4939070959653367 2.580325708325427
Ni 2.609270302660357 2.1663656217863396 0.5857544818326164 1.6673516583431545 -1.1420819673606655 1.6731980898216021
Ni 7.0225093820334035 0.07907212202725739 6.5646133945207445 1.0186769860387423 0.8310641025803429 0.16908782807101846
Ni 1.4404839879120048 5.200110652611506 12.23317587839642 -0.922068041863741 0.779008262425368 -0.9008194168976098
Ni 0.49162410278351626 1.7127953729216752 -0.07015005359916182 -1.3560792543498645 -3.363836743717155 -0.10532498389176055
Ni 6.015817383948481 5.324312912115491 12.55407464428205 0.12471804370639167 1.0372146398316135 -2.968138310768301
Ni -0.06628924816784834 7.801560778567301 7.2701867454904825 1.3133292649768478 -0.5372379190879586 -1.5968324692766693
Ni 8.489987392505867 5.056697352594291 4.071863724758379 -0.031934386814751456 0.5700940463860311 -1.6754812294288242
Ni 5.475081455620588 3.4056823055050987 10.837653722136704 0.856447575650454 1.1311609495727872 -0.21860161853042998
Ni 6.215887445750362 2.7670500390729944 6.572494012543476 1.1028009103728555 -1.3080672452469602 0.5302823137057319
Ni 2.8253247684517073 0.17921408756803406 12.2063920056499 0.41400391612626114 0.6876322845145318 0.687680621253964
P 2.2343016634076696 3.023832654645542 6.8169484589425275 -0.1349867726222514 0.07098507295931 -0.12546700605727423
P 7.822333994688577 5.068339280339967 9.899643518552667 2.565819287179136 1.132580198517817 0.8003227076324281
P 3.3312464975145777 6.968725907527823 4.343224786273154 0.8444004146779329 -1.545507593750448 -1.1958717594876114
P 6.610439072089625 7.208027034153188 13.036873384746542 1.7130545596969078 2.0953215497312043 0.41325238267221737
P 0.6186531562449166 9.019109289081086 1.609450017517971 -0.4934849423717243 0.16767680665610477 -1.0541579525541716
P 4.738022827217258 5.676471927757841 8.235184462569945 0.1052257393097349 -0.9116710149001332 -0.9042263856966298
P 0.6204756944543035 8.746518944141409 10.396895172990881 -0.9145907596500893 0.04282763668848753 0.10569470852635346
P 8.409907295264848 0.9345622588491349 4.987513430219391 -0.6025470247084139 0.5302915696771126 -0.9012266796383576
Ni 2.943083053572502 0.41723943744683 7.467129666476971 0.13385574434160172 1.190808228921775 0.9780630691721222
Ni 1.0734192133428828 6.381617540168232 0.6621606767954287 -0.05004472326221704 1.6925793225616916 -1.6168955585751315
Ni 6.395258680745633 5.4442284873616815 1.4327437797207108 -0.4993334307327013 -0.06847541916357884 -0.09137546369020391
Ni 7.407074242878372 3.17993863147813 4.7216646169215775 -0.09695141511608464 -1.2640623004209197 -0.4797539659388769
Ni 3.818524404588566 6.155306647616914 2.206473550656485 0.8083993139929755 -0.02861020753752492 0.43233896699002317
Ni 2.7341513646606943 4.562231577990425 4.706422246345929 0.27049110831086964 -0.44032661318119 -0.4613081005288636
Ni 2.9105749230622133 0.6493136421521176 9.810841274166723 -0.10377846534024708 0.02431183727248716 0.6611319242311582
Ni 1.8873406011278053 1.960437401454287 4.8161697321433214 0.8859610117285387 1.224949136469542 1.7865698552772393
Ni 3.7749508635212856 5.145890140882246 11.416834978151892 0.08905504308714342 -0.12683663271129123 0.407135471141202
Ni 4.106141391091352 6.6323281279309345 6.458037683127546 -0.7002546012642327 1.324884831024931 -0.39677623939406503
Ni 0.5104194930010354 0.6885251797805035 6.590512964289139 0.34494485654507046 -0.07911207294181859 -1.372243779924869
Ni 7.83046102731615 8.040694529234662 4.173050860170252 -0.12886111934048775 0.33369242355970274 0.8451576045589316
Ni 6.008676009740271 1.4526373421960286 2.4517035056609595 -1.2424457505924085 0.3429342538729449 -1.55130260316567
Ni 4.820939017080028 7.732369417260934 0.5890183130137121 0.9369153912892187 -2.371251569669458 -1.2264434616268813
Ni 9.132227540699411 6.635573361783364 11.379273023576289 -0.8231728727577243 0.9994973277864981 -1.4746631601340603
Ni 8.157243987992087 0.9206105428829916 2.262448720345497 1.2319402230753946 -0.7833680820559605 -0.26233454064200623
Ni 4.5802802854619555 2.5875114281197176 8.281714978895312 -0.478310291513815 -1.7931217974631442 2.4439685377182103
Ni 5.046989547030006 0.7574794251463635 12.586057400257491 -0.014480710114678287 -0.6815187154176263 -0.1659773074664948
Ni 0.7999427056922116 3.8755252169535748 8.309628639358367 1.8170441126066963 0.9024430685439618 0.8087757234957876
Ni 0.2983281179486683 6.219309354225128 8.963825010152062 1.055218275497886 -0.41711675072362997 0.7960526195021644
Ni 0.8210925177189998 8.396926359855133 12.729937493224252 -0.1120594744021167 0.2770854736989357 0.1932410282784543
Ni 7.705477680008143 8.7020248353051 8.567583816503381 -0.9388923125099313 0.4578283695103793 2.3112690184682387
Ni 5.786633204118078 5.639881683605099 10.039604224502813 -0.17504430276476948 0.34981941102855235 0.7377991351769101
Ni 0.44302463364392125 4.560334650466369 5.928476889595781 0.3766293321325449 -0.5489572644074159 -0.017844998601220883
P 8.401231641441592 6.3334876535774844 5.754192953857425 -0.66883366375079 0.9078192452542108 1.1243012463384767
P 2.1962515289545514 5.237742347169612 9.90785051969351 -1.1899474235833765 -0.24041871440552143 -0.10032007447800141
P 8.636515745074842 5.355984162835755 1.7916685035321933 -0.1271222822725101 -0.22220142006654636 -0.3986814268365779
P 4.921857421092661 4.077241142342503 0.02269710977190044 -2.7963125149408294 -0.9983321038338032 2.2854831677533864
P 3.6901842394561273 -0.08386372375836489 1.2136058768363365 -2.0173672445429127 3.865957507387007 0.5708388949718556
P 3.1145318265555413 6.670052809132377 13.070025912695149 -1.3651940721669393 -0.4862768546590592 0.4770183121752688
P 2.1749482889662586 7.613058255196426 7.719872942263 -1.231293590630331 -0.17375206631590723 -1.5058395857368647
P 4.021746713599539 2.0964954579836195 11.185445155141558 -1.845613439603957 -2.129187092130398 -0.12980497131099583
Ni 7.0200452359849965 7.817507987899436 1.821350769951499 -0.24717994438875493 0.10508150042238679 0.27475296891101714
Ni 8.547601916716895 2.899025981959874 7.173273276206334 -1.1108538625843192 -1.5336769196641071 -0.7990898636665916
Ni 3.785653626169266 7.862931963169104 9.093632504516343 -2.2234193085431064 -0.4206265636491014 -0.5395367424244643
Ni 2.3013636305816405 7.402369118725567 11.008018270858443 -0.9200736371415316 -0.7873589483829084 -0.5576162256339945
Ni 0.12735357684664314 2.5041767983619354 3.493840152452723 -1.5443053459122307 -0.05802285637168717 0.21683527065862657
Ni 0.926026084990884 1.4392565642199688 11.246252840684745 -0.6086338543324422 -0.14660198826367654 -0.8904632704742663
Ni 4.166220061350786 2.134675773737408 5.796382853671865 -1.899998956333373 -0.815408398320957 -1.3387811293910492
Ni 2.328776093037113 3.2094897867303325 12.149314014370923 0.41533497623285887 -1.651113856328053 0.011549138290180108
Ni 7.57996430883312 3.355367232795953 2.235175737855029 -0.26446135717702196 0.5280192287031681 -0.12536544748240344
Ni 6.691597814393344 3.815539533337478 8.696887323260782 -1.418959695924169 -0.09510973392165555 -1.3617799042790677
Ni 2.5533388366937135 4.545112736952255 0.6131613650894884 2.459314166936345 0.5022614030127738 -0.6351938642091577
Ni 2.5025216361105533 5.275364743063385 7.079353976837607 -2.87030603570916 0.33883591543385516 1.5394477607096133
Ni 8.071761366773243 8.884036890971116 0.07449159997652277 -0.20669278290798598 0.7013820300004566 -0.8103284126948883
Ni 8.349744937026413 5.34630425326447 13.056484267826116 0.2555563413779083 -0.5146361225280427 1.1527191353595374
Ni 5.945175431006072 7.532764288675733 5.708056700899802 1.2522686502201015 0.17631365639549634 -1.3969721359094842
Ni 7.557768397068801 8.772313439002833 10.916752810290527 0.03202617519760936 -0.4846038378320106 0.8698589639603536
Ni 5.166895823611863 4.9122704981647125 3.9816053095377923 0.008210817945566504 0.7958289335271326 1.8112419041026224
Ni 3.6815457802902065 1.2425619175711875 3.3093630208718676 -0.5867938756392153 0.5393148562216454 -0.6442518606463679
Ni 0.5308756246685367 3.5430049803838015 1.0839136859097913 -0.7524274266130461 1.3301159975168835 1.097781088560761
Ni 8.511588189752835 2.924578711548625 9.823172232939518 0.8085911182888075 -0.3677466849309344 0.85825094740778
Ni 4.343843147451339 4.072210564938023 6.754358219446588 -0.9096789241707689 1.9964783169090456 -0.45061873913581757
Ni 4.193595329148923 3.7288759817482644 2.2274457581945017 -0.39237991009858225 -1.090936811945418 -0.874918380761132
Ni 4.849876460486213 8.449426618682676 2.8597856184720536 0.40965463801863 -0.3376737768049539 1.5148183921967073
Ni 7.422956361560173 6.23705120577365 7.889038893152138 0.3964977889216978 0.976153510854235 1.2099367222211097
P 5.646548825932294 7.729998257855864 9.655978528755538 4.883771631204821 0.7507747215009715 1.1868124774988205
P 7.10562084384718 1.6336730381070164 8.36227023788378 -0.41844395417548574 -0.482451310265382 0.3338847420761669
P 2.0285687150266227 3.1021367069988433 2.9106167670517142 1.7346891072475477 0.39475715208150725 -1.0206222826905713
P 5.261119189304299 2.881972231572039 4.012077032559022 0.5445179976891397 -1.8913140269648656 -0.17458587507111223
P 4.603052714414957 0.10638043944219336 6.0378161640289285 1.9849536040988975 -1.7421003121099545 2.2027730930476643
P -0.15926752270601446 3.219206890958951 12.179078109036363 -0.35924661787972323 1.0984737437524112 -0.5187473164829388
P 6.733711465160248 1.4055024126889768 0.04415377772169775 0.9276095405072605 -2.1419703599379947 1.5256779606190305
P 6.110961317409944 6.612549868893353 3.3953617179612285 0.8561891797827447 2.0500397950752696 -0.2922698947488579
