# total energy = -340865.6642419957 ev
CRYSTAL
PRIMVEC
9.27446582883630 0.00000000000000 0.00000000000000

0.00000000000000 9.27446582883630 0.00000000000000

0.00000000000000 0.00000000000000 13.57411821787316

PRIMCOORD
 96 1
Ni 4.130680032980412 8.384014873375957 13.388071330876814 -0.3638602053923346 0.04497116539405158 0.47059698202995726
Ni 7.766632248044353 3.610011534811379 9.63999917386034 -0.2797835893563891 -0.7156765922462578 0.6301295623123729
Ni 3.3371753061128286 3.7725558187249963 10.057729451009994 -0.9641258902657397 0.34280364183235157 -2.8749363353923196
Ni 2.5743505114138086 1.5472034474269825 10.412407273852521 -0.2390660570323689 -0.5914938522180458 0.33688624790665206
Ni 7.948040794966089 3.333864321897539 5.639259041015254 -0.8833647117562722 0.31442843312376817 0.11535125777951102
Ni 3.410860935217798 6.18356444218453 8.985210773914998 0.7744653802496919 0.43582486865609454 -0.5522570182046102
Ni 4.276252044866076 0.30120032680952924 7.946967739297437 -2.150076276874581 -4.183351708007318 1.2864514667493976
Ni 8.488630845220392 4.93084382614093 7.578457051028848 -2.0308619365952376 1.223733776005202 1.9205965779790666
Ni 1.3641996924239301 0.8684591028651342 7.850061630697173 0.8106066060569395 -1.1747578603271316 0.3712557265254574
Ni 7.621792918940224 0.5381935283460942 8.107942783633387 -0.03294174503334327 1.2963759249519609 -0.19241596127399765
Ni 1.66833724248551 5.71719794003936 10.35390301747026 -0.14031384126211963 2.0352610941041984 0.3524337087229478
Ni 8.786786364977038 6.2538648913494965 2.451390574080798 3.059973487703743 1.805526341775084 2.5405134614244957
Ni 6.168716022776467 4.814115402237199 6.491821709860764 1.6251701398790979 1.4321710524081208 0.6123791803074873
Ni 7.602743166620323 1.8299726287714009 11.455795781978884 0.5929691512119917 -1.5158805149126346 -0.19160837777103773
Ni 5.360158838257862 4.75356241640632 4.322664253013338 -1.5290448202087346 -0.021232941236847304 -0.99318732640807
Ni 1.2040203972355192 3.165152518367207 0.25438746174882043 1.5799140962547757 -1.7709966834293305 0.5997859170235089
Ni 5.507613566658103 0.49186479038913355 9.90320108770499 0.4367787479289317 -0.9270297567443906 -0.9802639334781826
Ni 2.2774284955805064 9.144845657973331 3.9314172123532036 1.5074748073474424 0.3545762089872474 1.277480630709355
Ni 8.08518231763131 7.859033748708017 10.869366685550721 -0.10447909095169748 -0.00027999313426403395 -0.7414519014381489
Ni 4.0971713888071895 1.6914863085957683 0.21801671749481824 0.34230253382621695 0.9545945537365367 0.23478157072440212
Ni 2.595227333454751 8.756996781505023 1.6691821463006722 0.3243019834837383 -0.4852977785752416 -0.4500487255649604
Ni 6.286362618773514 0.7704521151994513 -0.04514995338059293 0.4046787820705934 0.43377364255402073 1.0309146657555148
Ni 6.026788875867299 8.514432408489117 11.739195626983358 -0.09178015532779032 -0.7722717150324828 0.8170757587210509
Ni 3.859754344193205 4.7272229341334295 7.11600066357602 0.16033450735842064 -1.0047997138360178 1.8630599172151785
P 9.137685770538587 9.028163606397545 9.40112140091608 -1.46559719327705 2.5928027577465156 0.3992336997956221
P 2.58230800288921 8.210220662702826 7.932429087040049 -1.0298186044778586 -1.2376401016736491 1.5380511374724026
P 4.521719325611352 5.3120150873851255 10.86522656411177 0.055639957961807394 0.589740616972365 1.34847598808131
P 7.834558434018524 8.447109062778235 13.044564601836292 -0.12099277233600453 -0.8277401804134326 -0.13203026109708874
P 5.771963659342675 4.743722208416342 1.9995219165444245 0.6634191776034382 1.778867601536975 0.7037021934932011
P 2.176754171611414 2.902536750747785 8.137711035834547 0.22925832691332773 0.4580445992862434 -0.009713627743338109
P 6.7516440084447655 3.383371419211866 12.47260552662016 -1.046056920713592 -1.994865978116603 -0.47024782622065464
P 4.094147913025161 2.323717353335434 4.290941870912565 -0.06734953308925175 0.3657286260596411 0.04944848443911484
Ni 9.296075093868312 1.8097728427184592 9.61423563590053 1.1546690599970566 0.0889704537931371 2.439182429183477
Ni 1.5288029076983154 5.290071701801443 7.980033991462062 0.30655340125106556 -1.7164597287237149 -1.2632470036084762
Ni 5.570698481594792 2.6264915569554246 2.423658994522992 -0.6304298671616111 -0.9986707181201446 0.8105528700008686
Ni 2.1162011857805334 0.8641520410455814 12.966364162882577 -0.9478708618594578 -1.1314147174548064 -0.7141784104341764
Ni 0.4541705798955746 7.397610536721808 0.4284441397981203 1.695341972908493 2.1708253364964745 1.7978495419561165
Ni 6.093546479177252 7.521266986420557 5.368454847727264 -1.0407429646998463 -0.49174893351722404 -0.4717897167864778
Ni 7.561620186198494 4.47254610905823 3.4215460470229377 -1.830673530464673 -1.6158252083290883 -1.093260317872272
Ni 8.102933644768743 8.879605216592209 1.6556080384645446 -1.6754874000764113 -2.093158480641615 2.3516286532322077
Ni 7.9622214528517405 2.6725207296738587 1.9127157009706321 0.6381588603747526 -1.2319829033878718 -0.654029508858422
Ni 7.5984027167246495 6.401069209178832 0.7638375663413437 -3.0174353572312165 -0.21094127377169475 -3.130460280870396
Ni 1.013550697433285 8.038958381135505 6.193543767158343 0.8960117110963214 0.4568474936543487 2.283630430815364
Ni 7.033930917578553 5.28893094253399 11.801649878259994 0.21272227693151755 0.6339093410697793 -1.021225720602525
Ni 4.959112397256343 0.2627270612064904 4.123843824394727 -1.651149337551679 0.17157691304145936 -1.0001395893561873
Ni 2.355890474463834 3.924953837284198 5.549207689931855 0.39377936154927023 -0.9388249496071058 -0.42265516404335596
Ni 1.3709978757007006 8.307315042954547 10.700965576617623 0.9141138200136709 0.3632991906825421 1.396269453415505
Ni 3.2451355096071377 1.4985959732747933 6.277567643055422 0.14575018178634255 0.463894373198801 -1.0428710667864425
Ni 0.7570180517937184 4.061724381325856 11.353405681875818 -1.1824590856261312 -2.3558051532074007 0.9729661142651888
Ni 3.0717030030919807 3.5971663999705505 12.20953901997311 -0.18213386262169923 -0.09519226633313282 1.3425220844907202
Ni 9.108341361414846 6.342352567534584 12.239863740109614 0.11958457913456826 -1.4522475114430216 -1.4159988135236323
Ni 2.8067871680064758 4.847772437859847 3.1742396397513537 0.3204209032617772 -0.23985307171003853 -0.49375079443860126
Ni 1.717677399419234 5.459479090250954 0.023191728651968016 -0.019329039345915098 0.525559711419082 -0.6884702070347949
Ni 5.9918983363213085 6.694939925833339 10.09541067725173 0.0712151866922451 0.42921507664906083 -0.3011245169260104
Ni 0.5511091491253994 4.326334159046923 3.9339825295351334 0.301381627242139 -0.960187731553598 -0.7531203389150126
Ni 1.0834523445779234 1.6485733563152534 5.640779125925299 -1.9461417734380224 0.08904630133639503 -1.3137843502363955
P 3.3082018756126494 4.053711243056921 0.7978321925114324 -3.6479238455449043 -0.5865761032014544 1.7445752560130083
P 6.072345050840693 8.353205098689145 8.103544832051062 -0.3563505272788508 1.1920043061124053 1.2119372975909064
P 7.6464073506135515 2.166311123358148 3.9715969796246267 -0.010872423938129662 0.5019099332106259 -1.330449212486586
P 4.065248678249694 0.43262785122533887 11.693885225348074 0.5977061516763449 1.243334323844949 -0.7581478740365911
P 8.647122187671597 5.4379066832908345 10.093117101911558 0.9119090990528682 1.6917822805816929 -0.13507084769562544
P 4.742127000335026 0.2794173894805373 1.7760787092334556 0.45614943914605954 -0.19423861630503322 0.17896754907857565
P 2.204911449139757 7.479902869893412 12.52152647770926 0.03137260077401049 -0.6937684793192568 1.0508342874975773
P 1.7283801327089927 6.797738102422324 2.578769794266989 0.2913016172983177 0.5624907801174764 -0.13466692738898742
Ni 8.981921120970563 2.53078834654206 7.545417694814431 -0.18183998553036426 0.8881909295003219 -0.8428929768944708
Ni 0.21629259434181464 8.080257576403527 4.076769419404407 -1.542052288211996 -1.9823048536221408 -0.6653968701550993
Ni 3.714033940858117 6.119440787101866 1.3127329005306378 0.589506389474372 0.7061485981511645 -0.05690339805526329
Ni 7.217426219257826 0.13409949795201373 4.149879104196296 1.0442859448560982 0.316403554572268 1.0143184519597306
Ni 3.670518148314314 6.988374742605161 3.7121141264811848 0.978356946263457 1.4602310438691304 -0.5762862912396719
Ni 4.428548044303797 2.304741796740246 8.307916955771276 -0.041681181788870154 3.267337328536825 1.9129097508577702
Ni 0.34721929761581577 0.7942615232596497 3.225400374280207 -1.711901419929071 2.8915189223413496 0.006458611141150167
Ni 5.198922253992301 2.8669320773514375 6.1702101391828625 -0.04148037863197372 -0.08383518944910077 -1.3735499003308023
Ni 5.533350208667704 4.3510413353761415 9.112834839992738 -0.25811921700907803 1.1978497091495885 0.0438787036608212
Ni 5.125051135575551 3.9915352257479575 13.626377796740787 1.9927975256233486 0.2229840638688418 -0.4799012901500187
Ni 5.709592878256342 7.508579517494741 1.9296555123690244 -0.9516282720193611 0.3940156459297924 -0.483437071217419
Ni 3.454432374555135 8.256249835421261 6.069789008124351 1.3163922201728877 -0.6220249309273674 -1.9948454092913126
Ni 1.5566912257245762 6.2505168092718515 4.928476982522606 0.7890574191312539 -0.5107326737085784 -0.39507699731477114
Ni 2.207387731452032 2.6431021248254054 3.1574890274509784 -0.09132121341350079 -1.4198924921510838 0.2914468846269303
Ni 0.6206138491428268 7.353102376359977 8.771052234105222 0.5238188174685752 -3.07340030263261 -2.017631811058209
Ni 5.375851234034529 6.508217110129079 7.799565875351055 -0.24846369619718503 -0.57204731345766 -1.3048610796048365
Ni 8.45551172860191 3.969972093253426 13.455154467928942 -0.00930507945100978 1.415520331225317 -0.725154449829706
Ni 5.765629199345357 0.6368710598738652 6.414666503178933 1.5535170943184857 -0.8711396304449901 -1.553947496987685
Ni 8.01879569294492 6.083047784130452 4.865221417419078 0.5763389988544784 0.4903219712627104 1.979154480918617
Ni 3.690142917500735 7.531728583604999 10.777144182072925 0.342352670337862 0.8843805546152962 1.5258864770854106
Ni 8.864126133524092 0.9542868623192822 0.21665615339290523 1.465057004502864 2.7041531218967494 -2.511604234589313
Ni 5.284664688363029 2.4515102146868966 10.894315925431814 -0.727382053608644 1.2273397481889057 1.3077952225324962
Ni 7.764146691266489 7.497756216152324 7.103281661467203 0.9535247177111255 -0.3991210854771578 -0.35765587635383567
Ni 5.247381336695065 6.383197313988741 12.843111152436952 -0.3510067464684342 -0.3921127724801247 -0.2874737589117953
P 8.656174066086505 0.0066822524569075245 5.94931833735544 -0.5454016858456735 1.1059559110620696 0.22684483237582867
P 6.572034707847304 2.8665889221246434 7.963093252617111 1.1032266850563646 -0.7540104548294498 -1.5434278284032839
P 7.295257534481098 7.4916072454667875 3.323988870938323 -0.4917162805070758 -0.7058786323192294 0.7634150359728012
P 9.363314969388894 4.424393083719905 1.842713889597632 0.25337784566935073 -2.180862151907186 -1.4743633695054543
P 0.5380562662553763 1.8750558059997526 11.851955507061536 0.25122197566861254 0.6862523734478697 -0.5762968327626333
P 3.774327241652504 6.027141305559683 5.561519543001314 0.5887314589815602 0.34293759630705456 -0.31122432436417363
P 1.3713503053930842 1.293583911428935 1.5014330322984824 0.47454002583810534 -0.08120597935636982 -0.33701737416787764
P 0.3693778508011641 4.586779701718508 5.989972957265023 1.0502791863250558 0.6333478121393544 0.4439210154006678
