# total energy = -340869.23581857857 ev
CRYSTAL
PRIMVEC
9.18676685116408 0.00000000000000 0.00000000000000
0.00000000000000 9.18676685116408 0.00000000000000
0.00000000000000 0.00000000000000 13.44576189930303
PRIMCOORD
 96 1
Ni 4.657176226451654 7.09394770360465 0.5817749642576243 -0.7206167098603524 -0.576768115972097 -0.19766615392934345
Ni 7.652613356384795 5.308766023773521 2.71776527095119 0.8137945168666177 1.8036633204244166 -2.1870775366892787
Ni 1.085857443059061 4.657846860416217 8.277668096949935 1.8772367229361926 0.20811357451491255 -0.3489002416483927
Ni 3.7080178709636082 0.639000252321375 6.084758421521658 -1.0250373810391316 -0.1226786446788597 -0.7744026453325566
Ni 6.48340437962064 5.798429872336873 10.05620590714858 -1.683390456973572 -0.978721014471095 0.7091501039816497
Ni 7.120699568054032 1.8534209824169827 7.691554222809259 0.4738972500477838 -1.1555321793283002 0.30976753731298906
Ni 3.2852153099904347 5.482294858795624 1.7797082042683057 0.4302625440769687 0.13141216789711563 -3.122182614242636
Ni 4.391265266119461 4.072383409353501 9.868611213727283 -0.907251802786515 -0.053516226750585254 -0.9474947094669617
Ni 9.10682339455457 6.411701666012322 7.046453038763697 -0.256709481145745 -0.017144630100086603 -0.04673699904522274
Ni 5.5954666370071395 7.96183992141439 3.8783763528189943 -2.0503015333770884 -0.008548660900959472 1.7409281461787243
Ni 7.570015137544003 4.705039280634785 6.30260697483468 -0.7985162505513087 -2.4024506209800816 0.3203489123732612
Ni 5.254058828445202 4.530297792416487 0.7616610417931112 -0.09326548162406519 0.5084387354680792 0.3076566616175734
Ni 2.57924904093921 5.702859939003454 9.977037108293692 -0.198065189139975 -0.5648330550974079 0.9510878261348588
Ni 6.4513609375878636 7.702368884495321 1.8577608109766968 1.6969301433312196 -0.25590164053246894 -1.9454190363393848
Ni 1.7971704102935064 3.4913112327436706 0.8436189429992468 2.084526001777597 -0.869466356507625 0.7025218000318547
Ni 3.1257146676243086 1.457618328592412 3.0652978968305726 0.2823631771581072 1.386008180698813 0.29021301221982926
Ni 1.3056232745693983 1.945114100229234 11.609863612849603 0.20990589052864492 -0.8110920303337902 1.1160058390989038
Ni 1.66697555350208 6.982631652253978 3.18531473486394 -1.5118094301670546 1.3944010327481986 -0.5423227898100338
Ni 2.8919298302246315 8.132934263277466 10.22915873190249 -0.2924267320416964 -0.8320326371411993 -0.6732078815590858
Ni 1.2936253573403833 2.437956570049277 4.057083768194847 -0.6231958113070171 1.0601817901507484 -0.4486937541989628
Ni 7.325114312512544 5.5206587962752325 0.31856399464029195 1.0555566326739112 -0.7112208704677493 0.6581018791555827
Ni 3.6138626996924166 6.297087565438666 3.805460067337818 2.6758617311512234 1.057370031733566 1.3619853354216545
Ni 3.9565474688170132 4.879036640755418 5.590465361249501 -1.368516708782269 -1.8389715088074072 1.4796403016336774
Ni 5.92615348890272 -0.23283308837599678 6.559353216768965 2.029049308866531 1.5490516023479644 -0.9803791188998083
P 2.054638732085527 5.69782559088592 6.40093569418944 -0.7686981387486116 0.04531492188671551 -0.10253276585860406
P 2.1897668825614716 3.4051852955139483 10.252070527897256 0.7363104664465255 1.0331720943311238 -1.4300653189190273
P 6.569263900617864 7.192190986029679 12.801400107250359 -1.2920505581037296 0.7151307470451168 -0.7374798041642783
P 5.3590911314155925 3.9691700861774017 11.737168312856767 1.7840985109186112 -1.1480762372708873 -0.36150738888944195
P 4.62304738839209 6.595758535601386 9.546975164323298 -1.5091349686586848 1.2314967077800727 0.003378172443613537
P 9.029250337064674 3.8624841652121997 13.513259687099755 -0.7846814015507454 0.6325849658314009 -0.7524803913381686
P 5.673296923962894 5.7879477716031005 2.623724934262971 -2.950684634068228 0.41452456451642156 -0.6161419897840292
P -0.17615533160386124 2.7644726298912805 7.4440572175259465 0.43632340555906796 1.1981459002337689 1.4258376539909252
Ni 8.1242987026379 4.634953437954727 8.830248435509176 -1.2927640392309865 -0.5035528681306877 -0.09090572314263698
Ni 9.080631922870097 9.062010346895201 10.086069329458196 0.19607258418997844 -0.011731686614631408 2.597954477150784
Ni 6.94019797715381 8.169240365030198 10.740406888681441 0.37311540544201544 -2.382686293868961 1.8948762903948266
Ni 0.20665080345816125 1.6949216976143802 0.6973996091614412 0.12490959089190745 1.465411045408173 0.35182795681814893
Ni 8.394499882989964 8.773316205301173 6.33163623873358 -0.34417686803079434 0.09798525569723769 -0.2778277511815989
Ni 5.584534384708113 2.4338408985955264 13.120401391982613 1.4311467249086642 -1.3418942210987341 0.23504639435001456
Ni 0.5517645536818021 0.3615231527921454 4.6532286728273755 0.27272359718581424 0.32217748094156773 -2.042432672151973
Ni 1.488072459996842 1.8152499670367697 6.391846307277964 0.9196874574467064 -0.8152122231497508 -0.35402265047662257
Ni 0.21806536100567372 2.7026548771852754 9.708539154476282 -0.6756154625593138 -0.26701471972649504 -1.4572938156176773
Ni 5.7027496978038 2.389018664169519 5.621968621403971 -0.7253100015709638 0.2282334851932392 -0.11137170430647271
Ni 2.3506087928567228 1.0070166117731436 9.072958216697511 1.3775060567650728 0.18197831088044145 1.023636901147179
Ni 4.799497615205025 1.8157276789019372 7.882752884782579 -0.661915339364402 -0.9269911901969712 1.3684372616945852
Ni 5.66601181801909 1.9124459580650854 2.4054335787980063 -0.9086157730135771 -1.0056021551326553 -0.29985490618496746
Ni 8.307694125029041 2.0025681387822667 5.565953230506424 -1.1211159066319596 0.014325672594052747 -1.4194345786780587
Ni 2.8159460833630816 1.1338674855083974 0.21834739474145534 0.5616564571416391 0.7234477515512444 1.3017158491076355
Ni 8.64412270607327 5.961981878790285 4.697478571691845 0.587525097378285 1.7365711547616094 -0.05413406284024225
Ni 4.552869678045653 7.268634071223121 6.111528659504316 -1.2803818635165496 -0.5604827485485121 -1.0346065127848052
Ni 4.611628237461259 8.253023676767272 11.862751412796 1.3658273348755638 0.9354372640817954 0.3544142294880864
Ni 1.856838459606258 4.723844591942438 3.2013548294136034 -1.0520164807311365 -1.52565276380805 1.329459337769491
Ni 4.355703292464394 8.62030142018136 8.118093960450706 -1.279268832958029 -0.9176776261055292 1.7399228448426616
Ni 3.642920442567895 5.657752914811675 7.883492419496924 -0.3119637736333595 -0.6775237353256203 -0.5153071804531383
Ni 7.849109108001492 8.272077030774145 3.584330919658426 2.2489035688571395 -0.32567083880680686 0.9242501371167243
Ni 1.0030754888855116 7.226577053555104 8.940221381577397 0.5477925546753534 0.4654815151802629 0.07274242197004892
Ni 8.033221098190385 1.4608153233823793 2.8786834314095344 0.02645690863994798 0.0836500700214882 0.598778301694601
P 8.382263109828363 6.5624565065392275 9.985427382264026 2.413717966363785 0.8253984196541334 -0.5365828020024629
P 9.047054290808802 4.120347517969647 3.6510893154622597 0.4775590151700872 -2.1776040499812046 1.0319055689138743
P 5.614382189514445 3.729468971062958 7.588263730793403 0.5068698483190626 0.28672993876723524 0.22110895833331595
P 1.8960292060832706 8.606218106925555 7.27636197931887 0.6438890779903105 0.8492600567630793 0.5700984172614053
P 9.246664356315726 7.427133356025723 1.9422000578517122 -1.2175320180698646 -0.028437172294770382 -0.13967980722254653
P 0.8160981461822783 0.7223288191098758 2.4267983232909605 1.6747664627499865 -0.38992450657955424 1.209483950954407
P 3.0409943056901754 8.473221286309588 4.360608107172336 0.9098103075423105 -0.040330838408562796 0.0018697062188871023
P 2.843074605244614 6.355120370289883 12.943427519471319 -1.6091544811771317 0.016549933938881177 0.580930989100535
Ni 6.3689740143797415 2.7346156383183104 9.76518567624185 1.0378725851305868 0.8253236005521399 0.2171026653874003
Ni 0.9314830164768476 5.583239050612177 0.8590095331476151 -0.694210709062998 2.3780138280939562 0.025872754001703826
Ni 4.4083434652992 3.8840455065112036 3.3766475236301714 -0.5486327911884616 -0.6692100732536023 -0.26670567312650845
Ni 1.2212336362342275 7.631281684251738 5.411622900404073 1.0608574760615344 -1.6473392197769694 1.1385335878877747
Ni 5.905492450734226 5.546124513395316 4.766804668770955 1.3621172330138285 0.932946893559774 -0.3361766234341372
Ni 4.928195029034484 1.451711237644283 11.098467549127784 -2.7733157969353397 -0.5972528661890101 -1.4167590887284245
Ni 2.8155326788643786 3.0327262157161217 7.889999406306505 0.46934408345946266 1.1142901419593778 0.42623902473987235
Ni 7.410358320145033 7.924587582697961 8.405860238614313 0.33760384279896694 0.030933970574695106 -0.22416934242619457
Ni 8.58771595891695 7.702396444795235 13.387541541690947 -0.39888351554505497 0.0205647115252291 -0.6600644021985923
Ni 4.691167263011652 5.94446271481193 11.854670732861358 -0.08639086599141896 -0.29061821807804794 -0.739940606999945
Ni 7.354153681854746 3.1524022247072248 1.1858489671752708 0.09281708123273691 0.3169946511890476 0.1728436955690249
Ni 0.5585425501071983 4.040661504153049 5.844052274137035 1.2530009004004357 0.8838254534427746 -0.46808372868980025
Ni 3.323386325370648 3.1055772751541695 12.293809202269932 0.8881047975444188 0.282434653825991 -0.8556006542691265
Ni 0.3635672083690642 0.7081325086244263 8.13646014431307 -1.8343810612232472 -0.17955761725409078 -1.3218306175796397
Ni 1.5245622970823305 4.633391687626294 12.022286046198685 0.0026384660641115853 -0.920160540428383 0.3346262482278818
Ni 7.136905024403176 0.6567362239923832 0.4647006475783569 0.27816533702667573 -0.1335793507517635 0.520467127387523
Ni 8.298048020059312 5.129155549237169 11.641905217529052 -0.08805668372961609 0.14349223899010127 -0.36501360227048746
Ni 1.7589350875468286 8.353526903785209 0.07394520334461402 -0.3638002986886767 -1.2508972237938716 -0.03261495782154383
Ni 8.164518366978351 2.8284125256906263 11.70413178135044 0.888243122894496 1.3290806142738336 0.975399663407346
Ni 0.9455387694327383 6.750344257816271 11.566796969528086 0.017443135177111893 2.023994262941127 -0.39484354114772646
Ni 6.862138021032109 3.4532596453297493 3.7799530097678637 0.4451908832520268 -0.4816568393885446 0.6321069977537179
Ni 6.025260327391707 5.852098963035116 7.489047569781426 -1.215889597370435 0.24769545057259276 1.942463039034855
Ni 3.4711370932069805 8.651527239983366 2.1733326757230453 0.07606454436474643 -1.6588914433909432 -0.5608460454252018
Ni 7.005644502681761 1.0944378830988009 11.564793335724376 0.8139220435834176 -1.595072292052453 -0.22069861026877477
P 3.2380596368384174 2.7840404428298737 5.3002792887534875 0.08666803091220557 -0.44992634105448315 -0.6200454386034935
P 3.9800104708100488 2.8087987789188444 0.9653812666938024 -1.0695881710663129 0.45004486891021844 2.936712745269168
P 2.9972469229607954 0.4707363532594158 11.668997911020696 -0.6360587833126143 0.5722404033050725 -0.5091452746168006
P 9.058262146106964 0.5596863025536091 12.51169817735616 -1.162959582140623 -2.3344855657940182 -2.105952547082489
P 7.101784015546725 7.029980247505391 6.12746218756098 0.22716930559478296 0.36385737717885724 -0.9536530157588737
P 6.424820368771153 0.7420243281047345 4.327034149817696 0.5932332035066556 0.9750525644805724 0.11509080502927274
P 5.990010703802326 0.20677849951442717 9.43815791349812 -0.8228928796234602 2.616883967065435 -1.6734384879671824
P 5.077498360432612 0.057217938650440364 0.8446745024859342 -0.1672644017090345 0.34427431284060706 0.051185264624563465
