# total energy = -340858.5703426593 ev
CRYSTAL
PRIMVEC
9.28791363857815 0.00000000000000 0.00000000000000
0.00000000000000 9.28791363857815 0.00000000000000
0.00000000000000 0.00000000000000 13.59380044675151
PRIMCOORD
 96 1
Ni 4.124455915041278 3.2582372318144346 7.351771825000327 -1.2055414213668916 -0.9924198521144264 -1.1075366252856282
Ni 7.236752160939075 6.123447113024373 8.336927814232014 0.9858838507681215 1.4744381886074478 0.8446894066732613
Ni 3.622871430637147 7.78418178672197 12.071525414778689 1.0271757675383728 0.966923764725851 -1.085453934453976
Ni 3.5210666100024963 0.3611066492490387 3.2663186454112054 -0.5947743227415305 -1.1001233635406924 1.3689563674228489
Ni 8.20458990652918 4.2669603729372225 6.395243971763731 -1.360071149118077 -0.23688961820634039 2.3176594953756147
Ni 4.421334784374913 6.333177489335936 2.8600671634665384 -0.2358886877456518 -0.2301695258736875 0.4289955044390869
Ni 6.749628957962565 1.2442739171573993 1.0470952272435794 1.3875346446456684 -0.5731215203584452 -0.16428577869668481
Ni 2.884463726039391 1.5369360737305082 5.063772335642342 -3.4488937213884987 -0.46955439969805585 -0.28159133198908926
Ni 9.278179836020948 0.6943913534008146 4.352217846756555 -2.6110635037289165 2.9136977724312336 0.7435607202510355
Ni 4.482737180982492 7.968370400717569 4.9438885912447725 -0.05057874138881612 -0.10774464907684671 -0.6095825913989565
Ni 7.378532161576603 2.5709687793300247 11.541802267424577 -1.1071928687929642 -0.3680976405124499 -0.4383175531709613
Ni 8.62166366536496 1.5509236715660872 9.791845109604854 1.142924517866619 -0.49232923150072627 0.374838044560077
Ni 7.579308989207224 6.679115118143362 2.703263033839082 0.7760977736467924 -3.0023995459440163 -0.000641233128424702
Ni 4.335031491487661 7.4342410671661145 0.6228010443989148 0.5590866395319339 0.37069625447756155 0.46131992760340546
Ni 1.222921003861253 0.6559124562739745 12.796524158556242 1.6871530093397975 1.548586489786088 -0.6405402161227356
Ni 8.080001833908689 6.458164942239914 12.175395867391183 -1.5456500328655833 0.38163938375262657 -0.5648955329042271
Ni 6.948408884175756 7.53912018719225 0.5078343214450082 0.9033141582950055 1.265792652848465 -2.1317443113346126
Ni 5.91953097060728 8.074429085767024 2.420716343934452 -1.0310681606142436 2.059958082630246 1.0293704611968466
Ni 7.9526831146987815 4.582452221064019 10.387838449068287 -1.8195031156701502 -0.5201125722615817 0.8132900664263735
Ni 5.8324567808937635 9.08833488266156 11.770545931604145 0.31857202297849657 0.19686037019859645 1.2959810035063875
Ni 2.823841514171645 1.8231338424592853 1.1038685277281488 -0.6812559486745428 1.1505529809461539 -0.11260480538262542
Ni 7.346748921341972 2.3346099548148715 4.541022553796167 -0.05022470048350705 0.08335387893730806 1.0979122148219866
Ni 0.7770649296651294 4.741758514607084 3.2385867930755667 -0.71251387824756 -0.5300735401290354 -0.3886124726363501
Ni 0.38308742550247943 8.991629126576532 8.626802667942933 -2.189012548928462 0.8507122158285736 0.34003173551416926
P 1.3811220356895537 2.515993618912499 2.6461693003363664 1.85675660070497 0.9114542709036367 0.0965310397492144
P 5.633714006334849 2.8837949962623917 10.01230952762862 1.357579235934159 -0.8265916686312861 0.8946076316599431
P 3.7320694304730733 0.44966318996823773 13.17993666103365 -0.2128660015982334 0.06597733533207348 -0.9463680520616862
P 9.17982083132056 1.5878895675724654 7.56959940436173 0.07952884876426303 -0.6213114498001105 0.15142614912519728
P 7.706869194169937 0.7065074366521513 12.68691749052326 0.5304730895602993 -0.9123934948884544 -0.35597720309983205
P 2.4180339944955973 6.724830228732156 1.3970210861377241 -0.07808106057414295 1.7332420903883763 6.345562820472219
P 0.9529399322247208 5.137414344751731 5.960773022021029 0.8117312065796859 -0.5496352643110469 -1.1560687685580606
P 4.52038109467944 2.493117487790964 5.156509366259146 0.7368084891288665 4.27216969538299 -3.7915893768880764
Ni 4.708257010362107 0.6019561799750167 1.5131534422445956 0.2779653052007277 -0.9734517956523557 -1.7572245693459028
Ni 2.2446100723269815 4.848253731594302 7.712238537004431 -0.1372143764011895 0.23855543594453751 0.08032203408951973
Ni 2.2933994823072585 6.230481028998619 13.207002569966363 -0.7834233607739282 -2.204897595589835 -4.4726998011236905
Ni 5.450788548584694 2.5964176625102953 12.85921850394133 0.26218490243801945 -2.134704422404201 0.394944585501965
Ni 1.6448059019260042 2.5943278819571707 7.025914665330033 0.516614329300336 0.37289120524635133 -0.27541657063694497
Ni 2.709330827773998 8.419335756168243 9.97038667215023 0.41772661639348707 3.2878467613440856 2.6141557695009947
Ni 2.027207879407059 7.700135456832092 8.2045657579539 1.3910670832789591 -2.785891833828138 -4.958863013023021
Ni 5.726658157424253 4.345062438142658 8.428400759812018 0.3208955289053506 0.9548133546155622 -0.8391684768550322
Ni 1.7568831549684576 9.067520668352442 1.7242101326138755 0.7505415224442429 -0.6221987375010705 -1.008274816868812
Ni 0.19736723455927968 6.741938565527066 9.813513811962359 -1.6230222402981598 -0.8427273978508841 -1.8261764139252676
Ni 3.698261425080305 3.8634469679128265 9.824579432188992 0.9761164869687126 0.054935218585298935 -0.5402383964771793
Ni 0.9877881839372662 7.043851484015339 3.2597799542583186 0.47518177318716226 -2.907675991717186 -0.6793795575874364
Ni 2.8106062373351905 4.696786437103847 2.173607688254027 0.8864909160900796 -0.4406006927781832 -0.5286342365793476
Ni 3.183859619950345 2.4208760960478464 12.039648366617008 -1.814001983346263 0.9709917641476373 1.4732336267763853
Ni 5.555203272932358 2.2685171618547244 3.0093137178225406 -0.35423605203900926 -0.3360115586111826 0.7787264695188911
Ni 4.114954379459739 4.269672443699499 13.444010619640018 -1.7113584029414075 2.1552074274535595 -0.7658002483755264
Ni 5.153779648461088 1.1363855131347644 6.37450034559774 -2.021993944681647 -2.0241071343699075 0.6349578369389517
Ni 1.555121808499475 3.768375884616021 0.41635951828229056 -0.4719606951467033 -0.13076990632742638 -0.7396097060230874
Ni 9.154771328423777 8.148175119508391 5.727747629685948 1.3189352983097156 0.5655159400970453 -0.8387046498447361
Ni 8.93078400478312 8.231933524077617 1.9643584258653606 -1.6034088369426063 2.3890374328979695 -0.6940194189877983
Ni 2.40434360989424 6.95400949605813 5.583136672992454 -1.1409900198480671 -0.4424251475814316 0.1936151237884214
Ni 0.32183177792929735 3.179540740140555 5.0260355428097 1.334171655643496 -1.124690511357095 -1.0674963215342907
Ni 6.036001406768079 5.577670735856838 1.1138818273473639 -1.2272374182830863 0.6352985081078221 0.21399317322414113
Ni 6.093307833491535 4.630108505588824 4.342770181073719 0.32805527987858335 -0.24943325919930592 0.039685748625396165
P 7.283201016699853 8.171255584728454 9.466573088489435 0.7034309421096854 0.015506066055399103 0.4911454956052703
P 6.248248807656961 3.2038472099517836 6.263778199145068 0.6521289494015994 0.8270961190715302 1.4680389699493235
P 1.4406575616696753 8.836985365645328 3.878433945248478 4.745810349335279 0.35422319652320283 1.050343206793772
P 4.146031738263091 5.614172236184745 4.933109038756078 1.0744940930083626 1.9695609236929108 0.04607622553277226
P 5.721057545541879 6.744994289091412 12.13786340865707 0.48675739383990363 1.0310555622087534 1.5942811636097254
P 7.339569364152795 0.5565577872389424 3.1576899946770864 -1.0398268806434803 -1.4131472030074501 -0.017022759810241653
P 3.6361717228685873 0.24919286348540756 8.247440624573157 -1.1979816067417626 1.0259251829607237 0.03527450693157796
P 8.797567460456618 4.212774685173099 13.288360977669242 -0.7762744084339728 0.3755209295597146 -0.7721591007140185
Ni 1.7305704958262291 0.194800055248686 6.492589665093693 -0.008715011275494669 -0.40320039775285405 0.6977850566778176
Ni 8.385602054084028 5.927955108214764 4.963626336371194 0.5651780971416523 0.37072427950201964 -1.4898822910766598
Ni 5.697131880186999 5.686645825767098 10.308736075571424 -0.7826764553055746 0.3857181818076905 0.11107191367786677
Ni 5.8757663218680705 6.11252452666671 6.403808356866113 -0.5329593463172627 -0.17734852541791393 -0.700423008521297
Ni 5.641571581214597 1.0967168342796787 8.668168248607156 1.0909404114898438 -0.20630300366873505 0.28826745845768426
Ni 6.873687619509597 7.692463640223733 4.611302338193418 -1.1534873809841295 0.7601566769365038 -2.9016166728969837
Ni 7.282885227638491 3.6853047856509344 1.2253804433744409 -0.21115056156902343 -0.2537701960117629 -0.10185528017560525
Ni 9.020904630147413 8.487295419755846 11.095273748286028 -2.625375549476214 3.273808023862833 -1.0908617357331083
Ni 9.200588606061832 6.0903264132357435 0.6697328716653038 0.2172312205454646 -0.8882356666953284 1.583261158350138
Ni 7.427460890260422 2.756197639645401 8.187342251030726 -0.061991611211448076 0.18811116325105667 -0.017386570907563605
Ni 1.5184624136408884 3.3006737089132137 9.591486238084855 -1.0622898376326866 0.7922047065109841 -0.7137428655586546
Ni 8.643703884265246 2.162096248176061 2.510706938508773 -0.37187844771112083 0.7032967305246661 1.194823263618439
Ni 5.082420608507067 8.17246301349248 9.760715738485512 0.2142554257465923 -0.8741421647167398 -0.26173161695068475
Ni 4.097585981084883 1.2340479243174443 10.408583004025635 -0.3979682028196372 -0.753714777965902 -0.8676619563090348
Ni 0.598641323622083 5.1767858103725946 11.610478029148386 2.1581526261248123 -0.2101012943689027 0.2640983174106484
Ni 7.145925654143504 0.6498715972884097 6.769521811245594 3.5557590531841856 1.462803689692313 0.6611717763301581
Ni 6.587731336533626 4.640520256700168 12.489847469198203 -0.14619729662609016 0.3327909947913559 0.3152272748759797
Ni 4.902931678777605 8.236289555541685 7.313083949818174 0.7429637100969849 -1.887534248207459 -0.5216603763646758
Ni 0.21941023983363572 8.044280518320615 13.187726434144343 0.07454887905116837 -0.26586260839992276 2.1258400300350355
Ni 2.415888486461056 6.034032369091358 9.866679686816557 0.6662959849306009 -0.5805777195261743 0.33072768450442397
Ni 2.585662258596882 4.283334964560148 4.542980445976605 0.15173442439423548 -0.8809782138019666 1.360075005772819
Ni 0.3752326369968026 2.801048974272235 11.811952379088074 1.0518760984985305 -0.33417913338813415 -1.0931531028704464
Ni 0.05906927271893547 6.527434201640809 7.286957048947335 0.33767660501843133 -0.5391533909431165 1.1278321423098705
Ni 8.862880068676931 2.12235326601242 0.317030855405253 1.0757043112663798 -0.7144972272261759 -0.8578269724964839
P 1.7450596409945582 1.4597720877955862 10.470094998013334 -0.2520696683808885 -1.7304419019354198 1.363126133894317
P 7.25595956620068 7.98315675912012 6.4677946510287105 -0.8627511492709786 -3.029919862851472 4.048567795424493
P 9.247353250883972 4.697650213065804 8.892139782794743 0.9997001878259234 0.7309592294369411 -2.513500937391394
P 8.014457027849138 4.547399635252946 3.1345398701052525 -1.5146931794727527 -0.44381637150200337 0.06831986742232105
P 1.5100475639469744 7.445172941437347 11.430890647535088 0.015827453950559837 -0.584828010162096 1.474124514021771
P 2.9995502630783437 4.853306356576078 11.550638788394544 -0.2614670504353884 -1.4339248018744337 1.5047378680322536
P 4.063229988791518 6.0295834584915955 8.430440385631867 1.4696150561871915 0.19489244783894824 -0.5332223701706623
P 5.027984147076569 3.7193728526236467 1.5817066035092882 -0.38386621620061634 -0.30727279591559337 0.9886408446879683
