# total energy = -381164.8580719584 ev
CRYSTAL
PRIMVEC
9.29854178400907 0.00000000000000 0.00000000000000
0.00000000000000 9.29854178400907 0.00000000000000
0.00000000000000 0.00000000000000 13.60935581191300
PRIMCOORD
 96 1
Ni 1.6457581700414101 6.4233116317123224 10.788258118979458 0.0756649949334826 1.0679776320460834 -1.8315590183934196
Ni 6.2400094818514455 3.29703967377213 8.826224935288279 0.5349228978015369 0.6624149047086398 -0.16622310492871373
Ni 7.006516158637404 7.716059969799271 5.896430230751695 -0.42834578667023004 0.16383120765776946 1.2715326406560359
Ni 5.292385812472268 5.462818780807884 8.180175285345404 -0.012797923095616668 0.5750791583054483 -1.1818175953873906
Ni 3.856876965745638 1.1766839422789308 0.48542292354117317 0.009091163667990794 0.2855312904734437 -0.3348684461456749
Ni 0.1252857594775268 2.4527878909654346 6.123814906461525 1.980915686584098 2.5729286445304074 1.568835469843111
Ni 9.068012122027353 4.112094036066313 2.0052156107166916 -0.6264593125496373 -0.010219106624846916 0.8061192597095471
Ni 2.4797164673362104 7.267879564932209 6.653532362599323 -0.42988227791941447 -0.5448933787506873 0.7664301686500413
Ni 1.1383181597838272 0.405357831400095 7.371017128257268 -0.3971809310316515 -1.0109567345763493 -0.9920334153092851
Ni 7.560765027130651 6.245867563037077 4.281230787707838 0.6359837071003047 -0.8567190841442859 -0.05047461171078404
Ni 8.313918998229996 0.7493899214740373 11.520673552827512 1.318704156135516 0.9471200997363622 -0.36732091024742547
Ni 1.3181984463489695 7.088836147107872 13.101767805121115 -0.19429106680952346 0.920118631446854 -1.7033003085236214
Ni 1.4590341568848 2.585682647005187 8.474000830096017 0.7020618296763006 1.840713431199178 -2.0893668748096665
Ni 6.716866588903407 8.847543701533194 10.376521488066121 -1.1745318603592545 -0.4195808959934064 0.9919616815310852
Ni 9.175512561054473 4.673651558229253 5.158490533360175 1.133401665977848 0.6589146048648652 0.1431122299428632
Ni 6.6080922496819525 7.656028585458896 8.346032441377133 0.5361359442730315 -1.952535078558876 -0.1601838407131693
Ni 0.05058871538163122 7.1888605587171375 5.337779432681816 0.3987914700518809 -1.7533080079003158 3.0607147367451417
Ni 5.1607091653774635 6.102744411276381 5.070573752722038 -0.18689605989703295 -1.2432949859665814 1.6058218172594734
Ni 6.402231837985614 0.49710747087111673 5.009685042849417 -0.8909435525447946 0.31171077708228895 -1.1277115575716061
Ni 8.36174139749619 8.576342438263154 4.114108100169182 -0.9214818303429678 1.6802022890535775 -2.0940282848410776
Ni 8.056572561891052 2.105096824785864 2.344973161233436 -0.8022006413814314 -0.1849736460633395 1.4011530067600513
Ni 7.961039345857437 9.072159271565118 1.558774962976348 0.7696700157435776 -1.7175426773752485 -0.022729837497347954
Ni 9.26610825151734 5.125393304515515 11.861805427787488 -0.9349554393493703 -0.004987425912262379 -0.8383521516013239
Ni 3.9509038180458043 3.4951544003452453 0.9474414179645141 0.2666923033900697 0.8440741416867656 -0.2597868345194881
P 6.236466737515373 0.8907035770462829 1.7609550119214608 -1.1182792085141127 1.3535359191027205 0.13348164883163463
Ni 0.9618597365144191 2.5025629839601726 3.8491201223725366 0.5939965640352415 0.021885230108865537 -0.8671737038187064
P 3.156594501982008 2.185389731195272 2.558273336035527 -0.02780339536551341 0.38424005460026733 -0.4537061198118896
Ni 1.8679468207250014 3.5980892554641972 10.537506208318053 -1.9553455514244777 -1.1443201126625646 0.8704112369193977
P 6.8614124175234705 4.457627840602921 5.369843593558661 -1.1389236242373417 0.4182171828766603 0.7133389452520167
P 4.787493602603356 0.7344843593461529 6.407311631242297 -0.5946755923801371 1.938888948530351 -0.6408436062957672
P 0.5746005864154557 7.084623907779156 8.820454260393353 0.2523920847173137 -0.9599301070168371 -0.20402063539246154
Ni 3.4511815972867517 1.1425675932788013 4.437738260196467 -0.7335005078015561 0.31980923781970727 0.35659169675537944
Ni 8.340447737313497 3.7468752190376704 7.70530434677162 -0.3245099857294863 2.3566464181617737 -0.7427909319645466
Ni 6.466996179982316 2.262270072850511 6.755779125642503 0.12084904766928865 0.7464701805883467 -1.3368607724398847
Ni 4.025747779098419 3.33004019778452 7.6632916762749215 0.12176101796059677 -0.43458611115298706 -0.1121674607348907
Ni 2.9146371519323018 8.061212534131734 8.937250451422496 -2.2557031082774763 -2.581696363420708 0.3792246036635469
Ni 2.9326763225674206 5.055765825280581 12.016393681297206 0.8372974850845645 -0.19552879587136646 0.2854348741048955
Ni 4.544169366943669 4.535056796210465 3.3765217473571143 -1.6991852579139832 0.691115872187758 -1.9828697249866756
Ni 6.359895578242471 0.8368464243047319 12.751871124882447 -0.34977287406133306 -0.04585691043311457 0.40482816316426407
Ni 8.716118115060631 1.5306794196392288 0.3349195193407378 -1.1017115339634187 0.8789922937201895 -2.5448719955035073
Ni 6.757566305331198 4.467363413620946 3.0667733800314623 0.5987965565270461 -0.8568103583065114 -1.2551516281948512
Ni 4.749927494682799 8.002324870403791 6.883693582820312 0.40321248193771203 -1.6890993344328908 3.6526821861654963
Ni 7.573085594703606 5.058127654837962 0.327055742739645 0.6882634903406276 1.5039217998888614 -0.5507138420872063
Ni 5.921404253685613 7.577139758825726 3.470344961597018 2.3610987975061724 2.5207496485340073 -0.6851987353723747
Ni 1.1503225769435894 4.532825146234987 0.031625269715001555 0.5238010768567625 -1.4990806697464765 -0.6008585812623974
Ni 7.883545300458941 5.888682685920158 9.827901026781861 0.3418104246811468 -0.3354970808686093 -0.8873419512364653
Ni 2.4367665038498107 2.7863172783422807 12.700386959948155 -0.6096921203936275 1.268221831115248 1.4569724277225167
Ni 4.399474761658573 9.172769491292946 10.055707856278719 1.080755500537042 1.003806239574497 0.8995418357367669
Ni 1.2844912331776779 4.932606642258854 8.05096833089013 -0.9342345020229459 0.8049812894503621 -0.12190114308288683
Ni 5.266015148595362 6.343223293217332 1.6702486688139753 0.23546496994467192 -1.6875790411336227 -1.3791371646105925
Ni 5.965042309247785 0.47656327313852304 8.240301514809737 0.04716920148663489 1.5224597107920488 0.6062848944842913
Ni 2.0757692246914488 4.431963865884916 2.19791114726602 0.9651052234598734 -0.28804197271043946 1.596046483040264
Ni 4.579568914679699 3.3871425415320795 5.2508975797198065 0.9836374779361059 -0.5542174843650907 2.019718004163276
Ni 5.324186824622838 5.505257324508236 12.616280721643147 -0.4315678931519535 -0.29608592606083844 -0.0016761021508422747
Ni 3.968394374728618 2.4606451585874325 9.84688585909409 0.3951991247149323 0.5483962496976232 0.02250795129452898
Ni 4.191010758324175 9.202403943258991 2.487245496440981 -0.074826043971955 -0.032810104551485426 0.27603080718217626
P 5.243150034888271 4.576835143459737 10.25678602804844 0.022071120867426502 0.24945434224522842 0.55145277713576
Ni 8.72846657825828 3.284142596622176 9.994779162677371 0.1640618356113368 -0.06643242059162108 0.18445659721760493
P 3.9678922534841354 6.946614953878932 3.2274038258497884 -1.7902208217662654 -0.7323941621112547 -0.07365542070262154
Ni 7.134603568688314 3.9257419645722824 11.805286102596023 -0.6299542130767731 0.013720434909886049 -0.36379361382045733
P 2.0570605590636863 8.663758027510966 11.337341647633629 -0.8733219828082895 -0.8586268426899599 -0.14609753782343227
P 9.115397489840017 2.68253625594096 12.050117631843314 0.7092012689345593 1.145270906611608 0.4078782628444975
P 3.1471006910446593 5.16380557971844 6.979475999767855 0.6506731907916793 0.2896350282291722 -0.6139136146741427
Ni 3.229774024094578 5.950722555238463 0.49888628187240447 0.49858215438897363 -1.6451666376056828 0.08312685052816651
Ni 0.8635332385948306 0.11300331592498629 2.697197266425698 0.2624335281137158 0.5981275554844795 0.02451958240791906
Ni 7.035973938313722 6.916655052958132 11.736517808601649 -0.19062004571583946 -0.9084702485746484 1.638212317775037
Ni 7.6643507801591175 6.728963991478814 2.01067385461505 -0.01345586839458973 0.15209335039555097 -0.3272854915920944
Ni 9.026512731025015 7.855807750972056 11.106145499736513 1.462647366620107 -0.7864194672877746 1.953207164925236
Ni 3.167743453317837 4.999946680268922 9.525691916956703 1.4592635377495384 0.7152595593134973 -0.8881721604472447
Ni 2.4524810390938065 4.209217302707455 4.91828502854122 -0.6568633787627912 2.2339993980517976 -0.7106380013810858
Ni 3.150875898919844 1.170137769017527 11.571585857455586 0.49160418040924364 -1.4271923682466066 -0.2774914508881028
Ni 8.491716411484692 1.6655733621153475 8.209680487583702 -0.867792568349628 -1.6217737126030394 1.304955696201172
Ni 5.601143885121301 8.476252936862938 0.6229585816757647 0.6930565408538968 -1.0332695391409366 0.01983606088932068
Ni 6.358305527634942 1.8993108014220406 10.496841826348208 -0.1779537631020806 -0.8126470335257359 1.1390102704138771
Ni 1.9139653029276835 7.711698953805523 4.412534563285906 1.5571215238402925 0.9671690479674376 -2.079103030989813
Ni 8.608189943121547 8.776493545438893 9.215235000763837 0.149937994615445 0.6998329403457819 -2.994310598288295
Ni 8.375633418593544 6.081106705055803 7.345908276470663 0.1066321327389583 0.7571765112622573 -0.021766445142814127
Ni 1.3564805419699926 0.4141933055946775 13.40139099053719 0.8021528188626315 -1.7961621269513648 -1.1956511588363732
Ni 1.1488906015426574 0.8771574616951275 9.639724581432878 0.47751993440203566 -1.9446577326933285 3.114592974820836
Ni 4.236666597405843 8.299329586515304 4.907887399363802 -0.8705477624972621 0.6374721187203731 -1.8090958042938972
Ni 6.416793354075611 3.1656512814658258 0.47032860101952956 -0.4266619712099039 -1.2381517512027451 0.9278381115782989
Ni 2.3866938575250094 2.373629406626895 6.145100197956809 0.6371795271806188 -1.1247547889361276 1.023552826073805
Ni 3.320862537260364 0.6911457168223579 7.996612776320723 0.9831278852895391 1.9620957256641176 -0.3427838443380097
Ni 0.5732309112430057 6.198417105433463 1.3358191826136863 -1.9007522895596294 0.4539375190964053 1.7513179740534806
Ni 5.418706499625923 2.1327692844817987 3.4538911922986455 0.5388188904218334 0.14971173753725184 -1.5110774370970361
Ni 1.3358470782383798 2.1501854528320967 1.2142909637823716 1.1974915544792215 1.7114347647052974 1.6022055606631245
Ni 8.414882562537274 0.6645937313849445 6.091370435234691 -2.037394595507433 -3.5524554427322497 0.15227435605810546
Ni 3.385738461755841 8.180940555316162 0.04169094095856663 0.9737510720603294 0.9812887751982714 -2.0561186542794974
P 5.084368139132965 2.5666299353395385 12.471940390791659 -0.948259355547128 -0.1397890791069012 -0.3148110132741675
Ni 4.796652666044383 6.789004674360753 10.164147448003853 0.4536662677128897 -0.13661222404081635 0.702338480376455
P 8.417895290004171 7.701358975585805 13.390136035827524 0.3482757206905163 -0.6697260936580723 0.4188938972287108
Ni 2.301965546789337 7.508776881243564 1.8282811021191816 -0.1236888311109289 1.1750149706432602 2.3467319872615393
P 0.9436996848389616 5.901031149117807 3.517337930955659 -0.3525537792405799 -0.47048822436623483 0.5679317486273896
P 1.0025687514837751 0.6489340575361796 5.049942148698738 0.9427070582703312 -1.0487097849554068 -0.7690560363086626
P 5.210884095659474 8.09800686310244 11.988712852913862 -0.6165646791437446 0.17599715359634205 0.21892943418349392
Ni 7.898311384463359 2.82908127099739 4.622091145254132 -1.668320450014327 -1.5675943983471583 -1.3401774955179437
