# total energy = -340864.6298450484 ev
CRYSTAL
PRIMVEC
9.34631371321190 0.00000000000000 0.00000000000000
0.00000000000000 9.34631371321190 0.00000000000000
0.00000000000000 0.00000000000000 13.67927485915592
PRIMCOORD
 96 1
Ni 6.439740895471149 4.31927731252246 9.204442134009518 -1.3936029623269355 0.14065451243099003 -0.19744221084399546
Ni 5.556159103553929 2.6108553094513076 7.545748126898453 -1.7393096367386947 -1.6648615449314486 0.8655719065492254
Ni 8.13890070179824 7.668790475734179 13.38824836991598 0.37276393563986765 -0.7672135837832851 -0.49095549108165115
Ni 4.166175349995265 4.239553257803152 10.852671073820558 0.5488888730633257 -0.46473820925633513 0.43177666672864995
Ni 9.109048049965194 2.0189439249931063 1.2154647134946233 1.2856703656089985 2.893084981276888 -0.6263459269002245
Ni 1.4072650873424857 3.8720562083819137 11.900298426819585 0.8623531425016115 0.014996216298516109 0.642108846161436
Ni 9.54333385613018 4.528345000683795 5.49259856351593 -0.013682896803731276 0.224828059056116 -0.45619931854738854
Ni 6.074561731814317 8.361174731028553 8.56857410221833 -0.8163424800994522 0.8519319471682876 0.709326481658514
Ni 3.058300725117442 7.0258949507725985 0.06950386083471627 0.8966390602676751 -0.047063272036389915 -1.896563962509895
Ni 2.3548130493064745 3.680578282352083 9.472706568404812 0.12907117846876479 1.6275592089365645 0.4493437290781358
Ni 6.244832872362539 4.748974078726465 12.78299512284209 -1.1178932859296038 -3.2656064618886465 0.9731188377929694
Ni 8.623450982322012 1.1144357370012639 3.5312363417725527 0.25793564024336224 0.9352608864049313 1.2636015587344174
Ni 8.744616591393653 3.957864713232788 2.8281215838728744 0.09188351367487402 0.19260442313571993 1.1675916815959957
Ni 5.190447200023826 8.143555165954186 12.423325611032505 0.4268362920042391 -0.8815531124688302 -0.522184624299262
Ni 8.421131332555442 9.049184911573967 5.574701255037825 1.6555605792454973 -0.6330981580223936 -1.4034726560321635
Ni 3.685298170702992 8.999911146453195 4.6622253347308344 -1.7933408554524854 -1.9595598466161412 0.02957180011984584
Ni 0.11644198219530641 6.405038033200014 1.2964383703377256 -0.17572744487472317 -0.7027321162704478 1.4232876338755618
Ni 9.255635631936778 2.0259162749134587 6.354309981688346 0.47163313660395545 0.5858906470986555 -1.6332490602324905
Ni 3.7569096252468763 0.8939272264035978 7.955579303617594 0.14366733111538482 0.02002195164788165 -0.3181986987994778
Ni 4.248712645097985 2.3631125757532208 12.76480158885421 -0.45252289813706575 1.1067827778387391 -1.4873559251103805
Ni 7.949581774202192 6.20544750699476 10.002778069152544 -1.7510948022990809 0.2778748023694505 0.5421088740270148
Ni 6.281825581457383 4.196980799509314 1.8932257265833905 -0.7489734066261746 0.45705086791440636 -0.215460501798287
Ni 6.737841566663683 4.169848451226764 6.702502220438691 1.3965221928562594 1.799807951234068 -1.3828261834264055
Ni 7.392261096252332 2.857878377004801 4.733644255215256 -0.10089343048296816 0.4014098815113345 -0.2051969150887498
P 1.5013824649536727 0.20012046218445428 5.950115566680955 -0.4088452547434572 1.1992933835746509 -0.3168465556469575
P 4.330203153081296 5.841819831389909 12.171326566136392 -0.3648878753259006 1.0650329475954625 1.1246570870159986
P 1.1059492842831946 6.722803348135738 13.170036248561518 -1.5141596755667859 -1.3040666087279993 -1.5754537464905771
P 0.9050371893396869 6.202269760382267 7.201016828061656 -0.08675879085379898 -0.37350672734316315 -0.35771475461622915
P 7.977602022273526 2.6850556928530174 8.081031132090674 -0.702316368889268 0.17202942719784564 -0.3447648793237804
P 1.4756520637060462 3.2853974521478913 0.4049337084104754 -0.10541677227461844 0.6008169293911846 -0.6555675427695032
P 3.4611922640137127 7.516221253080254 9.187055186882398 -0.9402917639606192 0.5943482909477055 0.35481737846377603
P 8.249290011328105 3.107013711424245 12.315410270703602 0.06837231792681128 -0.43676100731711875 -0.13606766439125598
Ni 0.3119958355713371 2.001709322777115 10.906334802423354 0.9280599977811178 -2.5438378978120384 2.383494134482237
Ni 5.9501622982487845 6.548391790677708 0.642191747550049 0.3579633802919254 -1.363010434252059 0.16144265282093487
Ni 1.0725081743434899 2.1021354620454575 8.835552483866921 -0.0830844273260053 -2.1427092949865485 -0.9708724649609538
Ni 6.1801657287983085 0.7331696984343644 4.336480137272326 0.8292332200191913 0.14642201104238653 0.28668674423412566
Ni 8.195875829297524 4.101797942151585 0.5552112149779783 0.7602042423449876 0.6691655931689121 -0.879479260658937
Ni 8.51966951648342 3.60877055522331 10.043118627766786 -0.6812811454855234 0.9553175479454901 -0.5834426997787951
Ni 6.480135662704073 8.697034509028356 0.9213184675719299 0.08710511844962418 2.7395016765993727 0.7622935207738485
Ni 3.8920012415320895 7.793283372435372 7.115971917029136 1.1532197291450397 0.37068314185143897 -0.08453401528833829
Ni 2.7955197728914105 3.518812287149062 6.9388396476919985 2.088568547278087 0.6110784592181927 0.13070280053491684
Ni 5.200849647022956 6.7968822294610876 10.194465352606258 0.16066360856306525 -0.7785297801270527 0.006726262980240029
Ni 4.143398383834544 0.4105368233933856 0.09960927146266013 -0.701716787632056 -1.2949350787403762 1.5396681042505356
Ni 9.16118178703721 0.4405627903560172 7.986179134233188 -0.5535633957208596 -2.107977547932318 0.7128362945839852
Ni 7.050120595536074 0.6629087862007895 6.998125183904837 -1.9107844769846511 1.8835588084994785 0.7068021725747633
Ni 6.473537165326367 1.9796894080152527 0.03214664551079226 0.28674819359968035 0.8162769169688393 -0.6336702284757797
Ni 3.610929553657092 1.862888527379006 5.6695672723656605 0.22019595960074337 -0.3071758653264129 -0.552274758816423
Ni 2.1525214384806026 7.869530598508069 2.281825817405652 0.6081240045755592 -1.1764756143491868 1.6528742906625855
Ni 3.528364219613673 4.408244871358695 13.753416317996532 -0.7796271269562896 -1.045786954881657 -1.2597829563192757
Ni 4.267526774306656 5.860288146996632 5.925670283548674 -1.984018493879138 -2.365854567023603 0.2297913165986623
Ni 5.977846079031738 6.38131708936911 7.589494482176202 0.8691891915868386 -1.5628969928714889 -0.07181913882483115
Ni 1.1821871640423258 8.408794198648117 11.84581409188568 -0.3681202662202692 1.13247375484694 -2.074334920177208
Ni 2.2902767541321705 0.21447266129664289 9.722079299188838 -0.7547612169525453 -0.8592673044874364 1.511983236740757
Ni 4.440405536339837 2.7704623062205473 3.5722330115991374 1.4071218227489766 -0.6711489421475281 -1.2270664399228608
Ni 2.9538743636427855 4.390271910370978 4.448267655311687 -0.9027215190163291 0.2957015461382262 0.1183172823863704
Ni 8.897755939175115 5.407328406326466 12.076720376325696 -0.13367062491398915 0.34382077024295626 0.7031149535311633
P 5.115816886198073 0.2037066426997882 6.045856398958582 -0.1916142913083087 0.3988614040578679 2.5982630095301382
P 6.190829872577292 0.6818808681087288 11.924606319142443 -0.16938530470677923 0.035003255548062294 -0.16379649776509211
P 4.823436158908026 2.546730252073914 1.321174323821913 -0.7629108426428732 0.13612474288143653 0.35554320088620706
P 4.218393203889376 2.613145156275016 9.372355199645 1.0215144554875375 -0.11504375384142122 -0.8028063932862303
P 2.9340975641368003 6.699147828499798 4.2583580406982575 2.5017715647696073 -0.8001681843324349 -0.8593161554475007
P 7.555485116371674 6.006838343713953 2.276614312961164 -0.36997197471702736 0.020108083603784722 0.27070708097641766
P 7.606319715857994 7.868717469227814 7.172193731654988 0.20608266012781282 -1.090473499155754 -0.2469434028979166
P 6.73714059314622 6.350380791465135 11.770728612589256 1.6015301318626547 2.7378428008397107 -0.42505323196188727
Ni 1.4010217498802937 7.431543652170885 5.335149630549116 -2.070726119780027 0.7362814129808029 1.6282024989475183
Ni 1.8137643032752921 8.446562651768952 7.744151671280806 -0.5263266714920936 -0.5902360685515448 -0.46700823623743437
Ni 1.1668872487345292 5.900421217449705 3.4363020963556834 -0.9239531747015959 -0.923981713946686 0.18017416779216713
Ni 0.9697828419378733 8.689837847582416 0.4212290061130676 -0.5691306540314973 1.2935127444715528 1.0505206129119005
Ni 1.7569667557337645 0.9242644256079823 3.786724365522913 -0.03317365853849125 0.28779283281411083 0.4759844715941158
Ni 9.208044203257915 8.24662631196175 3.4878591658806677 0.308441619412714 -1.3791325366249023 -1.1570519584069365
Ni 2.4209662567277244 6.332949916664254 11.028258397525208 0.37552941420014685 -0.19095248935459372 -0.13228942829574636
Ni 0.5972537372926162 7.222064726212639 9.45344568540768 0.5630728778731916 0.878781463260964 -0.44684101726094005
Ni 6.288573619852148 5.291312616029776 4.077012453205497 -0.09323591393771039 -0.11971184874105191 0.3299283285315802
Ni 6.344184185570773 2.7945757952212293 11.155393497071556 -0.4139702346748484 0.17020625794617783 0.4407698713661958
Ni 4.082684730908797 5.49559499164524 1.847741891613694 -0.10284052690700998 -0.7221043501494725 2.980445153160112
Ni 6.824911823845988 2.0305894316965363 2.3935170684152816 -0.41072833069878295 -0.6261057858649604 0.08809165073260958
Ni 8.30402202357151 0.7846678861838818 12.817247492799337 0.978476759670773 -0.3703144456581106 -0.032457606308073136
Ni 8.481443093997845 5.232683191029283 8.101003269550192 -0.896366780442895 0.9374774344402758 -1.7244607446513205
Ni 8.010080461915917 6.399327435611092 5.384257965919768 0.12929563577474507 0.943264216325382 0.5601695881834675
Ni 0.8286320105677213 3.8781313121999146 7.639108453110782 -0.772735799153095 1.6981668439517978 -0.06724848873501323
Ni 6.7615438178674525 7.889709289497399 3.248772987807554 0.10574510214831465 -0.572103363506576 -0.11946759394072974
Ni 5.547252066725383 7.411262151732327 5.401958949182711 2.6680154956339277 2.503345079904314 -1.1205518065983735
Ni 4.53441075818823 0.6525512015067758 10.333201096550916 -0.17066417141920284 -0.2500976322561822 1.09407201514029
Ni 6.723597784788861 0.9239092656924683 9.623889732756876 1.7986468410464311 1.0331201580472658 -0.3235381087345202
Ni 4.618331307698742 0.18357187938421918 2.6857202157475712 -0.15686326098036857 0.03113065996653348 -1.971038793790018
Ni 4.063020087165605 5.170109621703871 8.449140365050496 0.023293423310301816 0.44651860092451484 -0.10544608285065711
Ni 2.255676701310262 3.036140615652087 2.482241623098797 0.3773009042782728 -0.096314295752718 -1.9140078690179552
Ni 7.516137136258159 8.376839152565429 11.189537449791436 -0.5115122321870803 0.0508880450991188 -0.454024936603889
P 4.27393834541304 7.521511266558698 1.6457129121990308 2.0068648023496922 2.731773711827495 1.2697223269201745
P 9.141517143294019 0.008857501366645681 10.146437451083854 0.6598227185014314 -0.06712636133485214 -0.030452660062902395
P 2.4061336570982355 0.5233290701411083 1.7068452799725415 0.6157082446807203 1.4897131124886471 -0.4091820692575856
P 2.79778158077442 0.6601376042284244 11.962771990589838 0.2904189575830482 -0.10916415513219263 -0.26971437804584514
P 1.038412822454154 3.067235800886687 4.156639306263716 -1.1713418926670471 0.22455577923133585 0.854160065167858
P 8.621394793337458 9.52510854467618 1.589435954323138 -2.0021943934572164 -4.123175552738054 0.029328573760788196
P 4.884439547554324 3.8862158734346393 5.415241930022931 0.8230561446742019 -1.3123838703444433 0.631437739600835
P 0.7424786267462554 5.1415099021914346 10.103799568595052 -0.01972627478433377 0.26920684228180736 0.0807048713502352
