# total energy = -381170.7808242182 ev
CRYSTAL
PRIMVEC
9.22303353029363 0.00000000000000 0.00000000000000

0.00000000000000 9.22303353029363 0.00000000000000

0.00000000000000 0.00000000000000 13.49884185009936

PRIMCOORD
 96 1
Ni 1.3230902375519378 7.289415120831873 5.203020193844471 0.9832767521625777 -0.34776329983047205 1.0672268699229879
Ni 4.2681338826926405 2.3662983075338984 11.923594592496727 -1.6886041399640275 0.06307353142171719 -0.523722143989711
Ni 2.7306726828778345 8.803283801545513 7.589790868324757 1.12709500703353 -1.3249671063260924 -0.08449596296155125
Ni 1.2138526315182327 0.701471629795887 6.199005411187697 0.29082750587537654 0.7667479570007762 -1.0643847724885025
Ni 4.472451738692697 0.8419421156904953 5.1446780522970705 0.24001248010603823 -1.417593668814578 0.5894374839096493
Ni 3.3180046644577375 5.367694685945956 5.264210408065226 0.3737309275388273 -0.39872590692126814 -1.0432150803894227
Ni 3.165723162159316 6.644199382458022 0.9661579277524623 1.9079740041190496 0.39194899320875076 0.6524724487839473
Ni 1.0853757780861566 0.6522741257343377 2.2834367320418334 0.8140128035250109 -0.43917321630303724 -0.9090472041240409
Ni 2.8052685759545493 2.9933077782354656 1.8461552010126698 0.3210937609590857 0.23828804121576386 0.3663860571379819
Ni 5.81536227473893 7.047126036864849 4.906910099238332 -0.6590871258869875 1.0272793829957727 1.606801150453607
Ni 1.8376617096755845 1.458530481101833 9.66348291159127 -1.410203546998094 -1.4456860561754197 -1.0894666551577947
Ni 5.118875694424739 0.45632801703222076 7.775346307746431 -0.862477841004934 1.6882902082680344 -3.27079571939907
Ni 0.7089902465164777 7.737506969155205 7.7584589338315615 -0.7256720128960727 -1.583121290338164 -0.808472333322756
Ni 6.194521172412487 0.6095871608571174 -0.03200577004881485 -0.5446774060851395 -0.4824749644144659 0.8130419549713094
Ni 4.947889880657528 7.043907198254097 7.75519213544781 -0.9859455572439922 1.9367827008206258 -0.29648496127147006
Ni 6.933793404059871 4.8608336696348875 9.23242508341178 -2.0380934213466704 -0.08006852331781694 1.3637136309666706
Ni 1.400139457478109 3.7688910918614638 7.89054568248498 0.04848509208458101 -0.015110373278877204 1.023137078692625
Ni 6.592974655684027 1.5743072177229998 11.168226323188922 -1.6435162464864534 -0.08046421609433883 -1.5404121815054117
Ni 4.599858720265611 3.2836027503657315 4.412069462186275 -1.0444224704339626 -0.35255249368899927 0.21592252903637008
Ni 0.4088847338983657 5.302616963202473 6.27823034466194 -0.2126924521348466 -0.7752266838957488 -0.43729116878897595
Ni 2.4876642023158575 5.8622613989099355 7.446973120463281 -0.11183990219214288 1.044945175706652 -0.23594345224298718
Ni 6.111550765127852 5.003652339799691 4.124786732721545 0.43130821173266365 0.19963124807551424 -1.02700196096467
Ni 2.0087858689418256 4.814866071824015 0.26246631384881514 -1.0377013496600451 -1.0300240356204455 -0.27331520802322606
Ni 1.1551480247633752 4.704770723696327 11.15525320459326 0.08070332868833842 1.0042947491751415 -0.15448139101175332
P 2.214892993395997 2.683044939078607 13.28612713182198 -0.03677654539840118 -0.37777398725994943 -1.1051688963843997
Ni 1.8290750657024857 4.474259453213349 3.4430680732770917 0.56890002607793 0.7009459709043024 0.4055881812587402
P 5.046041400702334 6.583557938716752 13.09973516328284 -0.43250968823993247 0.3272523243613138 -0.9861800418523017
Ni 6.560712485310344 3.1922486058399087 7.762643424025541 -0.7016491676189142 -0.9333438718878765 0.14996370564705785
P 9.522228467868828 0.5185816469888488 8.083390085098856 -1.1343560594713176 1.5318043852317424 1.727922477947676
P -0.049199348668202976 8.25505748102462 12.388372752609671 -0.29240076389976744 -1.9869482659314233 -0.9055476756112146
P 2.102178303820017 5.871604331611062 9.483246395455618 -0.9250561779577875 -1.7202845017864437 1.508863717275169
Ni 3.7297300926028427 1.1339996094783968 0.5398158364832256 -0.09476597742899164 -0.7346464484805412 -0.7633258186931048
Ni 1.0146996741486118 0.5698571004458213 13.171831614343755 1.2279670973602594 1.1279444995180188 1.643861288530698
Ni 3.0122703346357778 1.8588285710271002 7.807284749652384 0.10347944604258952 0.4548137510537716 -1.3098032541014604
Ni 7.779766907592087 3.73434160923716 11.367779560202402 2.5308695105768284 0.261288358765679 0.3088301131003843
Ni 3.8548128697920614 3.9276471635144667 7.270664694196741 -1.3525959237869543 2.718830521403266 1.2429278324351498
Ni 3.644730617999109 5.200213624820826 11.59971671162871 -0.3952343488282419 0.543998891960876 -0.24339039543933566
Ni 5.661125489387557 8.485642535773747 9.415766072545656 1.2272019370594607 -1.0294172552743819 3.558668513521497
Ni 5.728010926651694 6.107483407456384 1.6308222763798834 -0.006484322172763026 0.0014331329021007575 0.12483117224548824
Ni 5.827776477518511 6.428620202836964 11.036450390756654 0.32505968758536924 0.5970716034161394 0.36464387763589456
Ni 8.670822597741386 9.286303276857161 4.863348790807245 -0.25419622780558804 -0.8770685943349152 -0.9168209345321888
Ni 1.1848461918883777 7.722823900191538 10.344080972493582 -1.2948720867129246 0.6365334089561877 -0.38746550351610043
Ni 8.118575034715368 -0.1789618929379268 1.9611387567727339 -0.29174050460794915 2.582043462347482 -0.16410554436507865
Ni 1.6962264945010768 3.2530652872132833 5.592866742469722 0.6696379048196403 0.23332606922479815 0.08814153013393852
Ni 7.520424435111358 7.513959088790045 0.33915860238749024 0.06039212793481212 -0.6329667746508518 -0.15647939527838856
Ni 0.9205500282390655 7.390665580054942 0.8622143428149535 0.6228926782443014 1.7446960978615886 -1.3068991930807878
Ni 7.656648636489087 4.556390564470537 1.6835217661735329 1.5116186543124872 0.5760764892217111 1.5304671544775579
Ni 7.1243873865562 1.2372975820871013 8.856279350707085 1.002332740352764 -1.3861655322122837 -0.5958107344258448
Ni 3.6684891516991107 7.28342937224053 3.533334822180543 1.6117070723956566 -2.0518555081277694 -0.5989258830160589
Ni 8.930441761220175 3.530567912199953 0.029960101269831757 0.7837930854085211 -1.3515559125582142 -0.6642632707712883
Ni 6.883656995211576 5.180254980827501 13.221601868771288 -0.9640299881178236 0.2636188066710686 -2.2073465713509597
Ni 9.2563284187341 5.7329636955169505 13.22814930008869 -1.567375597468133 0.2347250064548538 -0.9761020887910092
Ni 4.678568086180136 8.776952041563561 12.048579605533298 1.0139798376733893 -1.788782803768158 -0.023983250288474825
Ni 7.111263010214933 8.502576024854958 11.743857042460908 0.05293490032581852 -0.29962016446634204 -1.2366962497031413
Ni 0.5398757861994716 7.680268824690059 2.9867668030413506 0.5600813993450354 0.5847408497649285 2.8565650319739837
Ni 5.644570144670359 3.4567744230176096 1.8631099030704001 -0.9756094654253068 -0.7557616331926016 1.3303106300261927
P 7.465658063562207 2.1690821871506905 1.4864928733656786 0.593519624398823 -0.24068302381050166 -0.16905671772276692
Ni 5.778258011899214 8.460233079118659 1.7558211239663577 -1.4842867992667534 0.12665125617336254 0.25948807233214666
P 4.347295177237329 5.056878464792979 2.839076526704055 -2.0708227932588916 -0.5066790724644951 0.8185063205199904
Ni 8.185340572547013 7.054845715710697 5.658295862780741 -0.2884224959783097 -0.8091580465358709 -0.7501234610702178
P 3.7378279158127032 0.4538092066465567 9.493775410235092 0.3018793928141639 0.08329268668206946 0.9105569559003479
P 3.5690279609301583 7.319076395823802 6.092351176772537 -0.3235710188549846 0.8149548557233062 -1.1193081639992595
P 7.152674429591101 6.69371784807732 7.709646952560641 0.5658725521055158 -1.2968140409306441 0.43208777021116557
Ni 8.549355249593473 6.313876445941884 10.9526895695209 -0.9866628950259911 -0.12238631024942148 0.753537114737457
Ni 3.409321916850486 7.484141022232551 9.70091551441535 1.6187015014356188 0.4217005134395705 0.8364155967002435
Ni 6.371584965103728 1.7957061313365668 3.577071368243734 0.4560964744209371 -0.6702613973362521 -0.22881763983148337
Ni 8.466283388942884 4.9508965895031025 3.949180179286747 0.7830865462597998 -0.17746396794985567 1.0910496833741985
Ni 0.367112693921394 2.9016308275452407 2.289187293284827 -0.8753297572669376 0.5577208695326588 -0.5529003082155639
Ni 2.760223281470539 9.741275507998893 11.712351160815254 -0.8777705054979462 0.5382805014198601 -1.366295275650918
Ni 8.119322100410129 8.057472439310667 9.353994807228977 -1.0296288570645558 -1.2973727416475915 -1.202101285337091
Ni 6.065684620682934 2.824489377286383 13.158738596315603 1.3941269531512055 1.3190409706496444 0.5007071711517764
Ni 5.719092253480924 4.0279292042443275 11.004120892240111 -2.0385410504070505 -0.033040475394736646 0.45254680939646574
Ni 4.624198305061538 5.309137647723397 9.293371809554243 -1.0114334171024517 -0.4716740171442199 -0.45490785342947465
Ni 2.455411254975443 7.359288820875047 12.218166285153659 0.17057135459508044 -0.3128811432413063 0.7215808735458347
Ni 8.528898561803642 2.424624769924742 4.32496160217733 0.8220459582421327 -0.06370910812318706 0.5045211455812278
Ni 7.55701220808803 7.094679996397929 3.014223773082075 -1.1201383732100387 -0.8748168221862611 0.621134300792298
Ni 4.04256615804165 1.2534932285068232 2.880665950622308 0.23375904299715872 -0.5697405197013543 -0.2846046648941163
Ni 2.5002997578938864 9.008560853005507 4.078431767513389 -1.5628525127867987 2.173668462372224 0.8290465579296818
Ni 8.87961362487673 2.6687307914456864 6.803443352570936 -0.06368391131220646 -0.7381973990565932 0.4562440557423949
Ni 8.63285136977442 2.937139505629483 9.215861437964639 0.9270660092989647 0.40652509125071273 0.5342803791215315
Ni 2.951435207195866 3.5335100598126474 9.752251839891896 0.07981346988421738 0.6671727311085993 0.4424318324496509
Ni 7.087218562483604 3.685791562111069 5.709132299854126 0.6242743890831765 0.39959211157630536 -1.8816505357331723
Ni 6.986798176254713 1.3287900721119539 5.976220275673854 -1.0835585172034758 1.191226547406116 -0.3275318032749456
Ni 8.118058544852326 1.475021264586151 12.703273855197326 1.4968335255835126 0.07225931168604328 0.9334114919010182
Ni 8.855864314209997 0.5696043893342607 10.499412531893942 0.7211628121718097 1.0311162402433596 0.47408365502697714
Ni 7.152711321724175 8.609037497874805 7.03064170950382 0.33428454861774687 0.8262612818750608 0.5948565980426916
Ni 5.055375110370192 2.343830998491505 9.423959815301508 -0.6836792134040548 -0.09173593235341619 0.23775967951611957
Ni 4.257416718034487 4.465552909807758 0.2819140017990575 0.8277347810967938 0.11418500538555174 -0.23728711075507516
P 5.875164422452754 8.841559389610346 3.8044053037656673 0.46812769455385833 0.8627022983109142 0.2087064709039051
Ni -0.4670562493302962 5.4891528110606025 8.533279502606243 3.7725264467193544 1.0291940835199824 -0.599403851093742
P 2.9782557879410545 8.629853883962113 1.8121655565077717 -0.3143736686264328 0.5250390630289216 0.2601100221868617
Ni 5.792636720765015 5.247573900655263 6.82425789405159 0.5820242221647137 -0.6084577337658941 -1.0793295667237928
P 0.43046294253366263 5.688960603792296 2.3078021413309115 -0.2889318315145604 -0.8418727631600726 -1.431220258459077
P 1.6707340305465717 1.9575611421678305 3.927001551185662 0.07379606004554388 0.02870559546480863 -0.08888509316818241
P 4.752121776497495 2.4116940772821165 6.507238260722128 2.6452938856666957 -1.9932346131607674 -0.8327785141682882
Ni 0.8451019268883294 2.4463911284387185 11.296734534934112 -0.19569206092210814 0.747606608185635 2.5002602703314034
