# total energy = -381173.1012510313 ev
CRYSTAL
PRIMVEC
9.25401811144993 0.00000000000000 0.00000000000000
0.00000000000000 9.25401811144993 0.00000000000000
0.00000000000000 0.00000000000000 13.54419091658865
PRIMCOORD
 96 1
Ni 3.7905661494668483 6.428266713855635 1.9146341521532084 0.7969026262072857 0.643414195236421 -0.5221594274882814
Ni 3.0548624500023203 7.172900540865519 10.33959502438841 0.13112908943905802 -0.8644215949948661 -0.5229428426215252
Ni 6.286985618275391 7.410497457681053 12.046258073533028 -0.6874042276641258 -0.5825577260706806 -0.022204304011181116
Ni 2.8830708564769614 3.286777399654281 12.043305116331243 -0.019894682041397993 -0.02530068354831772 0.04467497430987145
Ni 7.295914204555057 5.050565503034624 7.1700512286673685 1.1455544992902982 0.4975678541918463 -1.6853753486140846
Ni 0.34419210144707335 3.7129064288858955 11.3569938135098 -1.2631377317241212 2.8466295180278265 -0.24829477471948852
Ni 1.3983376713662348 7.557793665079411 1.2176890570391572 1.288470039841323 0.11056977723046764 -0.2802906108997947
Ni 9.279744352260222 6.2657106304756285 5.021603202331311 -0.7120896462259477 -0.08519016081509843 0.9499585976264221
Ni 6.634261158580613 3.4407920242525645 11.532553643238751 -0.17084234886827995 0.03873495467635264 -0.9551640530867613
Ni 6.620602227744401 1.8367097666522587 4.604482959799596 0.9198062424127578 -2.080747765682087 0.32054997264047375
Ni 7.751091596859076 8.444162034560444 10.472002441934208 1.050481532143849 0.08775355066690048 -0.12579225060717691
Ni 8.469175645705619 1.6381185364726538 10.125380235312617 0.6720688828586361 0.24070230708421128 -1.6525608731872248
Ni 5.729088624154336 8.566305820540899 2.2799753867527737 0.9650352894538864 -0.9052887655228731 1.5161008584535567
Ni 1.4989843731105676 3.862941825666042 6.808014603960494 0.8585533091395471 -0.8306995201520726 0.5447753651155844
Ni 0.43140937200610147 4.36123368867867 2.132112833441694 -0.08280880506711545 -0.5933635584369329 1.405547279173005
Ni 0.9629731319892685 1.762853447543991 11.836607366224454 0.5712903806869774 -3.8128130621535425 1.5136930203430123
Ni 1.5857500475823283 8.371397689597616 12.05182436546933 -2.3084968550397402 0.9467424046819695 -0.15313207607271048
Ni 5.843292462534881 3.8552794986115817 4.345708222375207 -0.026503959827799517 1.4737928417139652 0.1951521292582381
Ni 0.39497907863014375 6.813964937651337 10.204965717077185 1.5622292773805029 0.8783132653752939 0.2291562541178247
Ni 8.48903476872358 8.146969240654665 12.913709379046997 0.5916195791626327 -0.014950964882877475 0.1930695356975965
Ni 4.184768815971546 8.329745353761718 8.1967410520432 1.1835852288107747 -0.8818870987694812 0.2895149577115401
Ni 3.30986617501766 7.726984879495708 5.519881184316668 0.5918499500058839 -0.8404650841792686 2.5025747773971934
Ni 7.616158757751489 3.3766616782532792 2.7358727416713293 -1.005327818425346 0.44158156863421366 -0.40804667010156176
Ni -0.0003710861290867737 2.02373347410472 3.2155668043441654 1.4630003790841515 -0.9818947842133865 1.0409831057351102
P 7.208297160410579 5.553623185410837 5.003630048218784 -0.8519928823132101 0.19575222473608223 -0.6442068663410454
Ni 7.181377221519971 2.2590724104839155 7.232124406424859 1.3521158988267423 0.4778778319620867 -0.026114437698864703
P 5.732873517590657 2.524634970244592 2.128971094269002 -0.09657809093706593 -1.758072519168495 0.6353013363212994
Ni 8.579104127686211 7.3799591976813925 7.572909178377425 0.23161859961538822 -0.004459321322934255 -0.18224827671237648
P 8.850672545246821 9.48018638607617 4.50504205662434 -0.13765069260765972 0.21839464472594647 -1.3486258833956126
P -0.04673094101402468 3.9604976853376823 13.510018877238533 1.175830267455704 1.4012622786444062 -0.5133156039444063
P 1.3851599494754727 6.573203146617657 6.750586943330225 0.5185362289133973 -0.17096781870255073 0.13438744847535564
Ni 7.531151346734254 5.737380224445153 2.654444784886782 0.21331800153398747 0.6526704237273663 1.2251481398542254
Ni 1.8482032572339488 0.6414940927673966 2.723303008775106 0.2156731320297253 -0.16837563249534226 -0.7828785440140517
Ni 3.6684686335773002 8.480548834050946 3.477226944637613 0.33202197783581533 0.305066532292894 -1.2462743803098792
Ni 2.5902922292438606 0.824542274008993 5.0890538900541955 0.6163355938520739 0.1466485252308958 0.09065195526061808
Ni 6.514375353036494 9.057416565444518 0.14170030260387542 -0.614334247151329 0.7046244481971542 0.5745903915944879
Ni 7.44943836618971 0.9728101533164316 2.2262854240660994 -1.058847130499725 -0.0738150862089374 0.08361124636375278
Ni 5.3040608230863455 3.6750389864863178 7.606458695893415 -1.6332598588657679 -0.8509924660731537 -1.1309691452769555
Ni 4.09445885253619 3.5199971658698637 9.826066420439588 0.37112537159518016 -0.18451573259031445 -0.2732028508150779
Ni 0.8819403217810806 8.780971280302143 6.078050246572265 -0.3664364507599431 -0.8436092862352051 1.3401530700379112
Ni 3.1914332503280707 5.766974574590278 8.051967490001177 -0.438195168660484 0.40084295326427094 -1.5343636613184866
Ni 0.9776592588436503 6.036608902350909 12.42626692695061 2.97722227534744 -0.16567288885219855 -0.12410355005084432
Ni 2.994822380039353 0.44661835088775015 9.79621573399083 -0.8119975728671951 0.7760175552281603 0.8271441987006464
Ni 9.289646151714656 0.9435396938076669 7.8048805775402945 -0.8969159680781458 -0.01618946527566889 1.563073113438037
Ni 5.06214227977995 1.0941025696241709 7.086388426491937 -0.3967623554369941 0.6540976430921961 1.1144451794800032
Ni 9.067670017589858 3.995283539682749 4.759387820946961 -0.6314467384618996 -0.38324478056653355 -0.379006831225786
Ni 1.4285335326931712 7.716028121968557 4.167438816122648 0.6250624322021106 0.3851507393399948 -2.920833869255383
Ni 2.1926655760119282 5.102064114215869 0.8757512344211497 0.06003885836045143 -0.4435530905382878 -1.3373986472212258
Ni 6.998166169558375 -0.05358816848667553 8.276299697155041 -1.1247388480965275 -0.4068979012090992 3.44750892522583
Ni 2.302603312010703 0.8220057476253849 7.563347001390259 1.139023640150316 0.8592714182524943 -0.9550126151105618
Ni 6.890190285414124 3.877563174393152 9.103781972740364 2.1940573104412215 0.5351129023251558 2.042447327439992
Ni 0.6750334308633864 1.9928435614141553 5.784859815530079 -0.7820545054508596 -0.5454258542153897 -0.8810805437077858
Ni 5.973265147897069 7.755746368004479 6.519008839940079 -1.2917098869348593 -0.5413930789069127 -0.4623591675011973
Ni 3.3420146341809382 0.9790751236254528 12.84361759453505 -0.09717021599511007 0.27553715537520934 -0.3399371189178339
Ni 2.0979229378675295 3.1268587114560633 3.9117521445654977 -0.9042924630478749 -1.064893850914437 -0.09586795224391877
Ni 7.00719809130373 4.465230345004785 0.12095094303683392 2.007608622494252 -0.36498634857697787 -1.4749531805706535
P 0.8481030042996396 9.244440272896979 10.128183277419858 -0.7163831313949792 0.009285024846351752 -0.09637831622143402
Ni 3.6336087470867793 7.91768243216631 12.422556065659744 1.965547431658144 -1.5521968328451654 0.48450073659524295
P 5.883649235825341 7.52427561122524 9.769127371969313 0.31188844031073387 -1.1946774820691943 -1.2619719935507943
Ni 1.8682474606155437 8.007427900492582 8.473516705634662 -1.5680289147814155 -1.0201846809325203 -0.5978714736096156
P 2.0386602054318264 5.783715093481 3.058291989140464 -0.645921792149623 -0.04541416646874114 -0.19046423686426553
P 0.6929741959122774 0.26342765776615523 0.38548815758297683 0.22187026197937273 0.41511154736814315 0.20810123321973836
P 4.203730299225881 8.220973624053839 0.8075047011346375 0.4489580636039429 0.31814187741961336 0.6536271312136808
Ni 2.5464559451170765 5.119970639397488 5.146155809244469 -0.7953383670439593 2.326897983254747 0.3061032010875244
Ni 4.898364665999957 -0.24242658890457108 10.758354153540107 0.7784822147185688 1.2286571814487484 0.9163396240203961
Ni 1.718582224562666 2.6012119706982846 9.75655763907309 0.04284691996219717 -0.48187795426041524 -1.4715469831025818
Ni 7.518149451188944 0.04964503133944675 6.298021960358906 2.0012536268105015 1.2190155445939264 -3.9985639527025394
Ni 7.501806855080035 1.0265389828794693 11.936929251930609 -0.6855941710385806 -0.3339276794989604 1.0508959939734481
Ni 0.2838124090168372 5.18419352557859 8.241071500740889 -0.4400504767016679 0.4829884137157746 0.4421785787882643
Ni 7.382976007608632 7.788968293276835 4.124246611661311 -0.5824592528196033 0.19145385447104446 1.0860391175334845
Ni 8.144433639672874 5.886110804661677 11.940802983941476 -2.2444655876904442 -0.6802663310677639 -1.1283301649922115
Ni 2.082616791794973 4.887602242854623 9.794508367636302 -0.10578803957110813 0.5073591292506553 1.96019748020014
Ni 8.38706474237926 2.1107027369764784 0.37259823565766587 0.09947958085457707 -1.051285258992067 0.21121329648615883
Ni 4.266454034461545 1.5686301139461554 3.692430988257033 0.3536385276643264 1.478941732904756 0.06415365185977338
Ni 5.9697856370607445 2.0717155583769125 13.299677820173605 -1.3054791728048096 0.6808013776356274 0.8044184749683566
Ni 4.346954738624285 1.0299166995157953 1.4329347437403948 -0.9361219488536459 -0.2710014722883849 -0.3656450652068993
Ni 3.810203176048448 3.326079214872025 5.7312105705234035 0.18118692532739764 -0.9932099521158894 0.12594060325958312
Ni 5.07444086994345 5.623953723591872 6.0292778691473545 -0.42792258308988235 -0.8757336775735757 -0.16104078939682587
Ni 8.774400927393126 6.033675378587305 0.6892420503795917 -0.13691201466942224 0.5854802990341142 0.48959692017122775
Ni 4.721002153529207 5.039701285689291 13.204800998765572 0.26112869325936316 0.6836550450343387 0.11462697801897678
Ni 5.175217127942326 6.548439393963387 3.823186563557394 1.1860902546208152 -0.22422205004100093 0.39078942568301084
Ni 5.973320672006159 1.8118812358707173 9.341658360904987 -1.0351006788124044 -0.6882632332303115 1.2912566014475244
Ni 8.651674138267222 8.131848174945741 2.227125688916999 -0.33655663248137524 0.2641332844136419 -0.4090095482354633
Ni 5.145104552779026 5.563941415683449 10.861872377126227 0.3566773144906502 -0.013210585153003053 -0.6353537868257897
Ni 5.663237030773251 4.518339155349647 1.7468217864459878 -0.8412217598396352 2.2483147862332054 2.218962044102701
Ni 5.510693795065861 5.821138343007856 8.376337484503017 -0.4382255076777872 1.6416475687088308 1.0347764627037663
Ni 6.312517454438744 6.776513926069936 0.8266762506016965 0.05606393287310344 -0.5981620082668407 -0.26009793800200365
Ni 1.690394485181162 2.278876009392786 0.7716805459495821 -0.5812086682419538 0.0855899673566784 0.06611051847582808
P 9.04808851511735 3.0530949325296124 8.593234088047872 -0.24526010165822273 0.5848385516850573 -0.91280821382837
Ni 3.871585078647764 4.456725902295788 3.2874464651688187 -0.3219255128317617 -0.0508466503382221 -0.2044510380616608
P 3.156730682146639 5.419125285157791 11.897867115783773 -1.1828205827306082 1.1695809441118825 -1.1923215802425078
Ni 3.853123312375242 3.3366380496173615 0.9877600196889923 -0.5862045787946485 -1.1104651117863327 -0.04699616624388035
P 5.103535503106762 9.49286439098512 5.2278678643871945 -0.4694474418065463 -1.4884422161960236 -1.5091930755901297
P 4.602245338203257 1.914573075633209 11.310348009463047 0.7727383702562562 0.534729036623176 -0.08885244015803408
P 3.426411279998179 2.574060681353133 7.848547513134353 -0.17962369460533584 0.9272107624069451 0.09685834118164609
Ni 7.668629040841813 6.162805948294957 9.501032912834118 -1.6400671115955885 -0.6179307062533358 -0.08128696910595033
