# total energy = -381174.3516303107 ev
CRYSTAL
PRIMVEC
9.19768938324273 0.00000000000000 0.00000000000000

0.00000000000000 9.19768938324273 0.00000000000000

0.00000000000000 0.00000000000000 13.46174812906625

PRIMCOORD
 96 1
Ni 8.528962180198315 5.150062217116084 12.985471709500102 0.5194507703078667 -0.05571143462969115 1.8884891559215604
Ni 7.65966096339212 8.046028301370788 3.415649331018378 1.8028901897038174 -0.950266101564512 0.039584190050525374
Ni 5.980043311803136 9.088917509932436 4.735022002249881 -0.595905093911864 0.031114462016617384 0.456520192221917
Ni 6.0422840758686895 0.5350369496533787 12.198618580337413 0.4444984851706925 -0.7438836508080929 0.2961607451628319
Ni 3.521206613240679 8.600225877550153 3.960325459146812 0.37146424299183767 -0.11885361450581465 -0.8912837094930328
Ni 8.429314413405617 5.518466467726638 6.088183305204632 -0.4129615909046759 -1.714598764255576 0.5473333556507477
Ni 3.6776225189150953 3.0289370796877884 2.099763503832575 0.14771501882219723 1.3809163679982024 -0.4147744757436985
Ni 0.2549967404985022 1.0105685280641838 7.265655864148485 -0.46285847573511896 -0.282286815394217 -0.3249941244547564
Ni 7.731108614531651 5.1122873068135535 3.8434099503034753 -0.9180774326471092 0.07127663605779984 0.5016435669231167
Ni 0.9199436945577726 4.0491999723633345 11.722045823488271 -0.7300094639291621 -0.2895275561170304 -0.4149809353275498
Ni 5.080573673815471 0.7974185149587719 2.339045992017497 -0.14150811868053692 -0.1747709944987248 1.130552369454511
Ni 7.093883496277549 3.3143597766705293 12.209105785773728 -0.42351031295479963 -0.250407193076801 0.24564422447051887
Ni 4.603940212216393 0.9590154790635307 9.25915202413827 0.8136114543215343 -0.2066804416128118 0.37925751378401135
Ni 7.829431914052968 8.471209888552446 7.562607864774816 -0.3930208861166909 -1.3058704947059574 -1.388123941490235
Ni 8.954824396394432 2.60095019724383 13.315257621691558 0.15034654290777333 0.8932999685921131 1.426849897305523
Ni 1.7147160342805967 0.3116931374030205 13.481671415727028 0.8404972229687847 0.007850863502986478 0.9897402483997341
Ni 1.3286062316046976 2.7645862890851536 2.3133614444110164 0.014797727134464839 -0.013883185739995444 -1.2392282720963754
Ni 4.2916234714730965 1.5892963418322639 0.3051793337808506 0.9692565266240857 -1.3648372030481526 -0.2872426167375956
Ni 4.693912009776497 5.378633996012646 2.3688906545326303 0.6729250602113442 -0.612504650141758 -0.21677690661686536
Ni 6.865679624956371 1.475861238652058 6.348331671527445 0.32650696155485703 -1.0673515684263102 -0.24528349869699048
Ni 1.5372006291579199 5.807016379100142 10.191794968429353 -0.423826815753954 -0.3510476270086987 0.0998225660162926
Ni 7.005374131329595 7.004665909246981 5.484598735874684 -0.8935673633208868 1.6694874737392342 -2.373388413506803
Ni 7.9828769660561605 3.248936612077908 10.043851054447085 0.20098313411771834 -0.27680882299878135 -1.0427844206099073
Ni 1.541597124683756 4.95569664504083 0.9564097736608751 -0.2898281180765847 -1.476825715003018 -0.34640832846447434
P 2.5035190735928188 9.084401444444602 9.418593049851278 0.34396346646840764 -0.3083207775641335 1.463847043355163
Ni 5.437388835801436 7.47211087915085 3.036499419899802 0.06284881700542079 -0.2657080850999295 -0.08096455276952508
P 4.767346361823101 7.419316142083277 5.671784591616324 1.4335008269631377 -0.2789325542100035 0.020869387249841477
Ni 5.834784203352234 3.6362513120631883 6.931225118817808 0.9552021054135486 0.39871073741261653 -0.2640620648560743
P 7.68996734991436 6.420161946545375 1.2513318442400256 -0.06125344749384289 0.5219416550505205 0.5512895120850183
P 0.4178657450451505 7.2149342862682 6.716093003650016 -0.12950183824828018 1.1091078264274898 -0.19176675772577295
P 7.880525078584391 1.4957190500333981 11.27813130233701 0.5174494236071218 -1.0849073179218864 0.17647049368833478
Ni 7.891111619066059 8.228786389442684 10.21083050637971 0.13016955373926614 0.6333418986020836 0.611245066703044
Ni 7.781419975465384 5.5320974433946075 10.798099294510324 1.4559267600668218 -0.3941259462554116 -0.4717112981400585
Ni 0.28208577527401035 7.8719988205248725 0.917223937806748 -0.12293446944340762 -0.4275024648333283 0.034472322745256766
Ni 8.348163199965338 3.103870655104081 7.08711215735261 -0.1809133599510368 1.2774148104684258 -0.35885606730952396
Ni 8.693527238667482 8.995285031997264 5.267527747784619 -0.1313445478839738 -0.470982390393834 0.4720185449678322
Ni 4.631800013362329 9.124319416373742 7.045340851012474 1.7183849707708856 -0.5295644617031008 -0.6189414069060372
Ni 5.956846739175189 3.273117337470007 2.6264682666724495 0.3955205126100931 0.670728823890974 0.23769720170930034
Ni 1.3916012061997864 5.099401343985737 6.49970908295698 1.522639430903023 -0.12968207257988634 -0.6365287809704973
Ni 0.24118089127390255 1.8255665867437314 4.2916593424616964 -0.5427346805364718 0.4779107420825512 -0.5405333020097788
Ni 7.068534664333606 1.0686703319066682 8.668665884260923 0.34897660341228287 2.4754756071875557 1.4037778459774082
Ni 4.523837535365957 5.502940768045443 9.28186203899777 -0.21598012174718284 -2.34611826493694 0.22046284010888484
Ni 5.436855369817131 4.7947002900528854 11.65831779304923 0.21657687479091733 0.8696769298565346 -0.7395166320886489
Ni 4.388355570730878 5.961077676292102 13.524210729130779 -0.93893756392557 -0.5261420662851132 -0.667743773120721
Ni 1.2004364300303711 7.170601423434453 4.625496836827066 -1.1659662301774307 -0.8847027138414054 -0.39707371602982583
Ni 8.367634708392524 8.987034704619282 12.614412085964215 0.5043198282036992 0.677859007177852 0.049935451377862386
Ni 2.1885533983067593 6.685745227525547 13.028616230865357 -1.0522067423650716 0.50218992634489 -1.981583402075084
Ni 6.738135266260197 1.9494134743072984 0.8542041294503208 0.16411737143962057 -0.149624062919452 -0.27889810142764226
Ni 0.9034182060404714 3.0791012775913673 8.609057498897242 1.4008380466227939 2.0185401818050916 -0.8510495445633344
Ni 3.4020229541951013 7.245130300517824 8.37178010699816 -0.6982704809546684 1.4790684882906076 0.9398467060034007
Ni 9.532577255087745 5.751030043816114 8.37950708585016 -2.3559324228138845 -0.3252396648066592 0.04107774387691635
Ni 3.065111592037399 4.604133363693468 11.394091171253287 1.461377755879064 -0.7699659497174417 0.8974841818767898
Ni 3.8752072822749577 3.0130526701205933 7.930261583931586 -1.044013150810686 1.0302757466199353 0.18127074329045556
Ni 2.4325956907482094 2.723748548217553 13.214335055150153 -0.433492363868176 1.6483157247576259 0.08619263393768382
Ni 1.222087790841707 8.55575504937564 11.189095829556257 -0.6796153277473264 0.786976111122193 0.22235748602843639
Ni 6.963818970689996 6.860841640340075 12.516033600306589 -0.674619931415264 1.3022480674620218 1.3724975478068877
P 5.793376205742788 3.188728537366351 9.12666114809106 0.08661172375297341 -0.3285805562544341 0.663002916001626
Ni 5.959173754589491 6.941312224765893 10.382319585417598 -1.3049844925565783 -0.03313072111569779 -0.4049153235614317
P 4.469543574928695 3.7401943997984928 13.457898147974667 -0.21669668819823326 -0.10842650563521973 -0.7354236929661979
Ni 4.842942170875084 2.4276657292380666 11.393539309890212 0.029144225664124 1.5550638699803152 -0.4042326956721103
P 2.3447669548147148 4.69622062981203 8.403833134734535 1.4584839792710365 0.042744075835745736 0.2639607633915196
P 5.981395372142672 8.461478733183544 8.873190304261461 -0.026380032655425538 -0.766723274410428 -0.6616129776326347
P 7.583908793620599 3.030077593171478 4.9184781949460685 0.05152850689659513 0.6687899549970482 -0.3504706714593061
Ni 1.0259102739576877 1.678173614355602 11.79080866909644 -0.2563546689094875 -0.8252968610792626 -1.93589978399504
Ni 3.6082627432658674 6.21844742065183 4.311407701339359 -0.27479513500286223 0.6278096559299446 0.450351858627676
Ni 5.5108231878480405 4.667891746507479 4.819857810057628 0.3864871987632312 0.9988293551851959 -0.3932173183982131
Ni 6.225492850720429 6.550281658269236 7.437212086318883 -1.6744926402633098 0.6115530848617661 1.534468048106835
Ni 7.081889709320038 8.644006879020825 1.3499706245072343 0.20997582453463193 -0.084531444185177 -1.1766471069300444
Ni 0.25674338171263666 1.308288535754128 9.570818488242073 -0.6510413727643756 -2.181377143870392 1.5985008581180278
Ni 0.27518474892874895 6.215320206261068 2.5583510988590796 -0.12509573876078456 -0.5675797646046096 0.49027106342011695
Ni 4.947814225238233 8.070383782861194 0.7601163658906098 -0.8906712727200146 1.3014409981796942 0.5799441997072335
Ni 3.0327173300248567 7.237266276093996 10.818466657883569 3.308057689074322 0.7659324030780164 0.2115038311433841
Ni 7.267940570191619 1.2973248900076912 3.261701165405848 0.487810003474134 0.5560900187974551 0.17598892606622593
Ni 2.8581543831946346 1.7560320549961959 3.780960398688893 0.39992455521505965 0.21700882012201334 0.31062397177601336
Ni 2.792059787276938 2.115523744593078 10.07124545251016 -1.3220717870561682 0.4481988168404152 0.5257445737363784
Ni 2.727381635524468 0.978137475294103 7.62468031112463 -1.6836743067625777 0.2647223241478925 0.1133607097120435
Ni 4.029093823368611 5.532943630817991 6.849472376491778 0.12707060309896825 -0.262408074192419 -0.30901214720420334
Ni 2.9962576893043233 4.218133933290185 5.216360081969181 1.2008563571863964 -2.322117274036652 -1.4351463329863605
Ni 7.140101885435137 4.953590374171758 8.665219510048516 -0.30928005615360926 -0.5206046814066518 -0.4756160325111035
Ni 2.6938008715813133 7.669070199632561 6.205071220979814 0.2823842602040298 -1.150874883061947 1.1200648396596258
Ni 1.0871116991227805 9.003443382481398 3.208634176732491 0.14448314214846086 0.12044718424517965 -1.310498480396272
Ni 8.385984098714792 3.6608275380988253 2.1686606357057583 -0.248859646084023 -0.4519729391708667 -0.8782273905297068
Ni 5.372011659655739 2.313366043255709 4.710764016266951 0.8311006122452332 -0.2322192093138646 -1.4269581407486136
Ni 2.031337293655883 0.36848794958395403 5.376891033874266 -1.938624124904739 0.7698173399547193 0.8376715805945316
Ni 0.5510142558833581 8.175807698587418 8.802368096000084 1.8810656097639795 -0.40054573373882635 -0.7214024389864415
Ni 1.4897221565546421 2.561997982700072 6.092451033079083 0.7062151897230418 1.1402120040314623 0.3558100813943485
Ni 3.6833618770910825 0.47191412717584397 11.723445711812607 -1.164901279248026 -1.5689923071359495 -0.46912811079391464
Ni 0.8497432500987924 4.217517688101417 4.13890871600704 0.021067105082944362 0.7607901967554447 -0.004733143809611204
P 3.121208299594042 -0.10943226876003027 1.7283939181644274 0.24130008856921026 1.6685094260966815 0.2777223359519862
Ni 2.598494414178143 7.0821196515546525 1.698293559884403 0.36099471091908153 -0.43949563263946245 1.8365150768471146
P 9.538095868718502 6.689727827029075 11.746802324235848 -1.230137879759333 -0.08898253797799514 0.4841310119606501
Ni 6.32202260081175 4.763860437546339 0.6452363057080842 1.3019953280212675 -0.6099309758773108 0.5298159155922746
P 2.6477020523857244 5.095253186073284 2.7919668906141535 -1.7211915869817451 -1.6958698203875053 0.4092496892707274
P 4.8415533197780105 7.638230347126015 12.1736339768931 -0.5992038192677939 0.4634279750853438 -1.471637485933859
P 3.755113051980305 1.888138467627129 5.793384483663234 -2.0324187395593967 0.062072858071344716 1.7624727051187195
Ni 8.927323305134495 1.0311069684599836 1.5237894782662424 0.3603527064597084 -0.1898937090727762 0.313692326288692
