# total energy = -340867.0959356238 ev
CRYSTAL
PRIMVEC
9.26629368100909 0.00000000000000 0.00000000000000
0.00000000000000 9.26629368100909 0.00000000000000
0.00000000000000 0.00000000000000 13.56215745347598
PRIMCOORD
 96 1
Ni 3.2337881726945277 6.030420416683986 2.2630086401168934 0.25347683314106023 -0.14281681018963147 0.0421519507777016
Ni 4.488333117805956 7.7303497591332935 1.415509729594031 -0.025565250063614035 1.8374504441771904 0.8456659116539177
Ni 6.478621767247512 4.556875890865527 10.209089758237857 0.012304528398965906 0.9494016966816875 -0.21564922077032536
Ni 3.1478433004317825 5.084192855378306 7.0186335538627125 -1.5470397141242582 0.8374301540076867 -0.7518049625376988
Ni 5.381121964465896 2.267823406222308 4.934469011547124 0.5398234204269478 1.6653806506597124 -1.8787855554805515
Ni 6.042003283565758 8.531921212525907 3.2034762733796067 -2.1212130727859857 -0.9517547702948964 -0.1526001148286404
Ni 8.425896282236922 1.0510200745584442 6.046159216202937 -1.2774045260557807 -0.6910670212276937 -0.21061731477337273
Ni 4.169313165001451 5.428315197288986 9.181865525401324 -1.2103848655021219 1.3176867706145952 1.9404676058713806
Ni 5.615837178958113 5.817833111082704 2.791797092038332 0.4151822527050785 -0.40214444568451385 -1.1098097375905207
Ni 9.204895044650337 2.6745766259361026 8.287915612165156 -1.2645682935230609 -1.141033214381177 0.7379194628048582
Ni 5.490983140266122 1.344770844973676 7.010495894906255 -0.8024127573922374 0.98503718649711 1.0084658498336954
Ni 5.385199133608279 8.221287255343805 7.180809442906473 1.8588705617241792 0.4138146829335905 -2.0587602056674026
Ni 7.99944292253061 9.183165586380134 3.775921940522468 2.539308899593433 0.3655666465604801 0.8895376733362035
Ni 0.5133294944663511 1.4667338000919776 3.8207309560266145 -2.131754081526626 3.0461067570239795 -0.6768804453146665
Ni 5.109563966996138 1.0341276214980686 9.9040906341364 1.1373331398217703 -0.1160804226360517 0.8371609595067001
Ni 6.140124065494621 4.509052550084069 12.756483725924058 -0.3499587648198941 -0.27857954174595895 -0.41554734935398113
Ni 1.6051258935953838 5.15101209784587 0.7674427677828101 -0.6009827655450876 -0.21034786316207 -1.0418130578355735
Ni 1.590448084682803 9.357844485250755 4.949915922820654 2.0119579006018835 -2.334968676078024 1.9419948411491847
Ni 1.2172017822845969 6.072906372406324 12.058060018686996 -0.24751547335130272 0.8322894903470118 -0.46627804293962927
Ni 2.760864351058548 7.791822350248232 10.590145692802428 -0.2933194190592948 -0.8723174528031751 0.5560622508833133
Ni 7.557709444833866 5.363265816880956 7.681551604275065 -0.06727085733251639 0.6665852340362456 0.2682979573142928
Ni 3.264024088402704 2.8296017162817333 13.085949571397219 0.050629906341725706 0.7887789686588867 1.1343195498064271
Ni 9.549749423747945 8.339571491940454 10.893707614781196 -0.38758326004088733 -0.9924913287823101 0.6231071082479527
Ni 8.321381757789322 1.0913655164810308 10.437992226814128 -0.1559078390456347 0.7305686788667418 0.9656808934576853
P 6.688595978080267 8.581477350192877 10.958331672317327 -0.5326137900523858 0.34817879010133584 -1.8485496394141454
P 1.9050294828982126 8.569162446124178 12.37506177276602 -0.9025050321301489 1.2974388189988364 0.35716222454686875
P 8.912979000349178 6.416305943423581 -0.029884723184321116 0.4155128965716199 0.14082394812931878 2.2894804618382376
P 8.579225640871062 6.330463000389396 10.098531757166024 1.478834775013247 -1.3046016552958628 -2.26348043823005
P 7.665949019270644 6.311253973952666 4.121268359805214 -1.0481726815050143 -0.4682917309355484 -0.7311911429420891
P 5.563575283587561 0.42055999703686653 0.8326190964118634 0.606424505385949 0.20441401417613825 -0.14399283277560362
P 5.1370199946526895 5.941649324902089 0.25766875013448753 -2.3065281613491435 -0.2848396637230578 1.0733525232047514
P 1.4281674865224312 5.065836327944075 3.019790537221721 0.6426140679326287 1.6040798948677017 0.4789967760578782
Ni 5.9312062121214835 4.73450147107087 5.226339651010107 -0.26442099085738974 -0.11368903958573968 0.4162590307090251
Ni 2.854917230138533 3.461683395166759 2.1612786368676704 0.43905288867508896 -1.0824930520534388 0.5500358421835753
Ni 0.5826460030336248 6.32778504156633 6.699488506095885 1.337809509506399 -0.5335175328135779 3.2784010425501537
Ni 7.657229437082046 6.660176255899152 11.8543424092291 -0.8694792120234315 0.08344669576143049 0.7191856338407807
Ni 3.307844390389822 7.7501703609413815 6.342329415852434 -1.711381542869859 -1.8415755220891574 0.6072616565752638
Ni 2.097583061940783 0.7555365072576995 2.544030303143733 1.36911037650221 -0.904096544986985 -1.1969338822035387
Ni 4.487804939076147 1.006884718592142 2.681644954622035 -0.6095717927656793 0.42239239730027256 -0.3862781680762186
Ni 3.3241438006658512 7.10829420982113 13.003612993825485 0.6005549339790496 -2.0683000268370377 -0.6164654345617189
Ni 8.817563976123898 4.820288816344022 5.288956629372964 -0.1044307542122653 -1.1145320827668548 -0.15298886562662686
Ni 8.457318283513791 4.299930838253813 13.089095478042307 2.0135982644187838 -1.2052729981968533 -1.8237863164265364
Ni 7.636899189131161 5.052529930470295 1.3418158239747984 -1.4186210816378277 1.0873622072202822 -0.027910610367339026
Ni 5.132738967053187 6.779933833163165 4.765917912571637 -0.9699725788545036 2.1435559592575597 1.3572611904731076
Ni 9.015825591965806 6.752273947049495 2.3771072919371474 -0.06209265556568661 -0.34003353528638214 0.0871079466631016
Ni 5.18247116429676 4.03926073565292 7.703589630119 2.376108640651443 -0.023057396040095775 -1.4019765311026113
Ni 1.498081671020804 5.477426552867697 9.735662776864535 0.2150972049215973 0.5587104871394378 -0.6006634345324559
Ni 1.616162049160336 7.648361594197362 0.9529493306145104 1.3772034379229894 -1.367576970576819 -1.3252833520149305
Ni 2.2262640798505116 3.2810555358656606 8.787626435066596 1.0572080522344052 -0.29177392894904586 0.31146317984785715
Ni 1.344770844973676 3.6823416424112594 12.075025675466065 0.5197207361398016 0.18914217561873234 -0.02589923636426507
Ni 0.22572968968001542 3.665523319698927 2.0807332338305318 -1.7851344083822933 -1.370458405889672 0.6776188661425878
Ni 5.355648923619503 6.384568888167528 11.334450525702211 -1.5679270990962286 0.4271574227890837 -0.22082125188956808
Ni 2.4390181787348917 6.378879383955201 4.5272515505287085 0.8111187698066675 -0.15975009560986037 0.3752980149156311
Ni 3.0560977284346467 0.4421662136034479 0.29856275663259485 0.49152293354934706 0.13887428060211565 0.10839256707349074
Ni 8.422662345803532 7.8272566566129465 8.524290419824196 0.8836053670121686 0.39823765443093995 -0.7289242012847833
Ni 1.8587999445996861 3.7552581060053876 4.66984405487812 0.4610080527899415 0.4576895299396699 -0.1563590676504404
P 2.467206243578371 7.23288879229497 8.421286301217977 -0.29015207707490676 -0.6502067926782221 -0.47908573622725875
P 5.180451112312579 6.061379103285586 7.192730529501192 0.6527172178049017 1.5773622763671997 -1.127825457441651
P 0.3517049498861627 0.15959151978509992 7.519944665652537 0.055898096719200506 0.2526797911610616 -0.7225728051454589
P 6.444262350929425 0.38260803872672916 5.412236324798386 0.045489499791366815 -1.548076897139521 -0.9956542998913241
P 8.11493800478213 2.621119378703351 4.389853730318433 0.25527197736827006 -0.048907781444296416 0.7577071869547467
P 0.9667802003006961 4.151123430850317 7.130656555937753 0.5634351463086168 1.4493305949065427 -0.7035258158163368
P 1.350349153663937 2.6988821138008126 0.6120247865925501 0.2231540137878028 -0.5830611480696605 -1.0870367055600634
P 3.120739391928437 1.9559940971780074 4.369361322231202 -1.2565027429061069 0.6769087274494408 -0.4488734743099366
Ni 7.6041243090025 7.758009645246965 5.644433887345182 -1.08570667389473 -0.09070929086111475 2.035567569601023
Ni 7.30185781485579 4.232064504620137 3.35568441049959 0.13576941642454682 -0.5530311773664733 0.7669078796174083
Ni 1.0724530114364743 2.239042298594482 6.193294984258055 0.7187266919264912 -0.8662244525315599 0.46114406414717357
Ni 4.511554449330531 3.3199091045338753 11.060671397679206 -0.055515773679117295 0.8010706415420462 -0.5969893281149784
Ni 8.804016655018977 3.9367013991349626 10.437558564278074 0.4998311963047262 0.11504889604774379 -0.36488273311957803
Ni 5.060341415895361 3.276468720580479 0.8467149820923039 0.707585330597691 -0.4632176588467506 0.5870340166744793
Ni 7.839228707821946 2.0410772041447482 0.5611834140163774 0.37367847703433704 0.27412716240156015 -1.3282455199670482
Ni 4.251393992872437 8.376442073798511 9.044942139418527 0.1072466263945056 -0.6092902569695183 0.7440631138087508
Ni 3.488008935015649 2.7554528356513845 6.457634539087093 -0.4620177250013785 -0.05777988712294565 -0.43632751932412595
Ni 3.1638739881961544 0.5175901362201419 7.5993104695264355 -0.6023595912879561 1.0022661487808868 -0.018799134984374074
Ni 6.687808343132306 7.1966297858082715 0.572470686135326 1.5533283753464473 0.054817462060512044 -0.36531904932604825
Ni 0.40623801379489366 7.25009629933453 4.815297990662005 -0.5728245579433168 1.136386716748101 -2.6734366666494993
Ni 5.782120815912826 1.5220535723193183 12.40054500653527 0.3321549038692537 1.0674109609093358 0.2725045391964726
Ni 4.162113254947742 0.2671870868232521 5.205169876867631 0.1878496820595539 -0.9194712276708422 -0.42690751156180673
Ni 0.6363682662606317 1.3079002631156207 12.52527580352364 0.5175013598909797 -0.5018132597317615 0.04230801673959165
Ni 6.783779344967912 1.815711679799496 2.5840931231144046 0.0005746415565473974 0.45659064044853626 0.9175891801567809
Ni 6.276320047437244 7.113538931945196 9.028803036020141 0.08405296188686168 -0.6376965760263534 1.4160134688116517
Ni 1.3541112688271366 0.4425257457914581 9.306393390561926 0.8795260547364724 -0.011809848150734499 0.14416406824614528
Ni 5.174576282230145 8.507763985357283 12.494204994770625 -0.2651493843829821 0.24037269165893438 0.3568693758967983
Ni 7.109443230215801 0.8120340253895789 8.440082977593717 1.3522418828816454 -0.04681644613290647 -0.05833010319946083
Ni 7.257713192595983 3.276459454286974 6.502851271505477 0.5841078441666199 -1.3315864114148228 -0.6926595625257942
Ni 7.783464153506345 9.03027174354075 12.683763707752245 0.4303502186947685 0.824193857823071 0.14268439837682523
Ni 3.3990061858961167 1.25524918341784 11.53796427670299 -1.342280143683243 -1.8468231436413418 -1.0607340631097923
Ni 7.727921990234875 8.944021083592327 1.4890164560844543 -2.4826847233414857 1.7058796392150235 -0.26216536205399366
P 3.37453390474831 5.3015893673089 11.505456265827286 -0.7215839588696282 -0.24919774614973209 -0.8618836590643608
P 4.3630991610802425 2.4313086225383844 8.543141767331615 -2.6947925066174556 -1.6551152641779623 1.693282262165987
P 5.215412837708519 3.4202815957845547 2.9359083418932816 -0.20479325189242795 0.6778597785088003 0.875152351148809
P 3.500731555998587 8.161047081265087 3.571879084162531 0.14120498561782135 -0.8555412617861008 -0.3339474769933023
P 7.038509753431832 3.292295549887732 8.642999979292744 1.4345056140785681 -1.335777309567719 -0.06459562449319843
P 7.255822868720878 3.0647617128622118 11.721338665399093 0.2625548841829285 -1.7722549813164639 -0.33357646680712877
P 0.3462545160462763 8.812013466314152 1.8878117829357968 1.1997114449486757 2.572192280585015 2.6854244351389944
P 1.1893287714203018 2.2037284540453372 10.518063195623787 -0.5413650538824548 0.4197703862963932 -0.3030998954848264
