# total energy = -340854.21515359666 ev
CRYSTAL
PRIMVEC
9.41182614545568 0.00000000000000 0.00000000000000

0.00000000000000 9.41182614545568 0.00000000000000

0.00000000000000 0.00000000000000 13.77515892583733

PRIMCOORD
 96 1
Ni 2.020389678463006 6.970276154957176 2.568089258934411 -0.7767618895933525 -0.89375376830008 -1.6871923472181654
Ni 8.28660476018 1.8633910050582059 7.252607412403402 -2.3220442547068716 -0.41491151554219513 -0.7676452720040651
Ni 2.116202069522347 3.0010549128861905 4.031355295318181 -0.1613961158537156 -1.034706014477147 0.1635679266940538
Ni 3.6149036316760994 2.9264567781576702 12.60440804573904 0.5848776324531089 0.9159747844818095 0.05292333036159272
Ni 0.016106458233777012 6.404267748913302 11.262845393200971 0.006684868219343326 0.49964196311205566 -1.3702496323129756
Ni 5.572036426022226 3.800307196654287 11.382840530585248 -0.09632458016536315 1.027585601382282 0.8982961362551241
Ni 7.587964898850446 5.769355363012313 5.9582525978884595 -0.4265239029701428 -0.8634229785270227 -0.055412158221717474
Ni 0.2763123945697572 7.5978473163958595 0.6351326226348588 1.214865784091611 -2.541389950492178 -2.9838328386854225
Ni 5.79780731371687 8.551444138570844 9.899393656391121 -3.624834053604977 -1.2019670737520718 -1.7489960107885232
Ni 4.681884724488794 2.536411875379556 9.47674430517413 1.6681906093046817 -0.8480254130250299 0.038627739674527026
Ni 0.12561870355893087 2.4131922463276023 2.337314103231295 1.2745994525068176 1.5878814307309688 -1.7842473777916499
Ni 9.558180131661453 3.563684473312157 8.829739604928047 -1.89049153106357 -2.215460972927978 0.4848414077641134
Ni 7.1332513380203935 7.12854542490353 11.315673032668258 -2.569324472118917 -1.0192752817443735 0.07331320687185439
Ni 3.1245286612464556 1.1549534326193411 0.43797180432549887 -0.5860778234087971 -0.1811190482039397 -0.5970093827196363
Ni 6.701502633200635 2.4377759364500973 0.39626611991860783 -1.4378722165579558 1.3743081186530655 0.9135834014314975
Ni 8.896076979771227 3.8253332426097675 6.608922263269955 1.3653470528050358 1.0578860521380362 -2.350368298462546
Ni 2.946391026120704 0.23649472250535178 9.821853384781937 -0.03637185376081478 -0.3565485022222698 0.6117171212434562
Ni 6.166637960164163 2.13444218876331 3.7870807572480305 -0.32615266353923184 0.43749505726966587 2.0494828941305347
Ni 2.605974683073032 6.533190944662894 5.447869026068536 2.5085237958917763 -1.9628786265767293 0.6499599667747387
Ni 7.457752282906832 2.608920584684189 10.805523815321553 0.5000469118599582 0.5404672246585337 -0.6207684328124471
Ni 1.4611389636549479 3.0724530266952437 13.560170529130406 -0.871893477891879 -0.18799854893259235 -0.6382951288423008
Ni 0.9176342341359149 4.850939947298999 4.551119634345262 -0.007446428975716208 0.5171025817906643 -0.14658039099712175
Ni 5.099478042653027 1.2168173664536288 11.897563895481545 1.6240419398119257 2.0674690462953103 -0.04711135166550596
Ni 0.707508625189596 0.11659370338341005 13.461181646717183 -3.140680158826191 2.0839876127756236 0.17201631457172312
P 1.9049818651850456 9.104323047018669 1.3395814631158702 0.0994960359148093 -2.052588272528736 0.9586599820551617
P 9.201838978626315 6.819244579384559 4.415516865517593 0.9327211507022131 -0.7792468607987354 -0.052390854896890424
P 3.7192431373031964 7.643428790845799 3.718672780633433 -0.5125553287396141 0.7709437402496787 2.738269346854168
P 0.8171912245695804 2.3088245052218035 5.585496278719079 1.278302869500334 -0.08701564405961143 1.4066657090481645
P 1.769272742720936 5.287667508196398 0.7986245149583071 -1.2350147482356602 1.6555292117869296 -0.4237373413639412
P 4.361534394971428 2.742239103284932 1.1135724562175136 -1.636249537621711 2.973793966392182 -2.073898346860422
P 6.704232062808415 3.607600054518727 6.185019256798632 1.1217082888003198 1.4229338500805688 -1.243981984731277
P 1.9552598409256154 6.9183322859732375 10.959833529971377 1.727005879670677 -0.05388980803992009 -0.7910613369351602
Ni 9.08982883461873 5.1752338320082965 1.6323974949864675 0.8116849267227827 -0.15484828743286883 -0.5731266625647679
Ni 3.860100528717155 7.018135291355678 8.251319823629757 -0.24812379635926296 0.7281461854681782 0.14167883993044633
Ni 1.6342036244407199 8.164608668538431 4.473951129872311 -1.7143997608708925 2.2005622014392747 0.4710870342924984
Ni 2.3520624349395454 8.219743146615604 12.880655498707783 1.8770284635801286 -1.6017450760869383 -0.7071356446547822
Ni 8.085897565745773 1.32013098302125 12.818543092660926 0.625005096601614 -0.4803846575443404 -0.25649222292861634
Ni 2.218518032509193 3.5724186480570554 1.8420139241335418 1.1312447675358452 -0.8608346489745562 1.0342933524197606
Ni 6.483543561279985 8.813751735704816 12.706151769690877 0.2895676653263465 -0.19805464761701375 1.287252622494454
Ni 2.6971846911040807 3.4264223995194825 8.887746572371755 0.07806306285201393 -0.6561128737500119 -0.48574617896656985
Ni 3.6934264979440834 4.824144478011577 3.8667283367509455 0.5426210377767429 0.548949551097932 -0.36064658355104345
Ni 8.588583204889131 5.170320858714291 12.833213306211437 -0.937431925914321 -0.6678761849335272 1.7973258082421628
Ni 5.027637573010988 1.1876877642602437 2.1043346978242408 -0.8340278131943571 1.2362401360023292 2.2379257296893975
Ni 3.889776016832096 5.07809437345 0.7355332789831415 0.181607557804584 -0.08422162625424204 -0.5173686909678573
Ni 8.040043148335055 7.433234475567974 9.190924083743063 0.7003312201384391 0.37141282092861194 -0.4124918503571089
Ni 7.403342515449657 5.335648998335939 10.12189016973905 -0.2536853496074405 -1.5296382308183591 -0.21236617914367942
Ni 8.753544283287665 7.732982317459712 2.4236149026988314 -0.8568342695659115 -1.4706118728828221 2.500882220186119
Ni 9.028190784614052 0.22140191795694716 8.470675610563493 -1.0749442931719035 -1.060131139418471 1.4987896208686187
Ni 3.1317192964890226 2.4184628690184895 6.9378590018603505 0.6126360335132998 1.2517127777166313 -1.7851446927949386
Ni 8.034480759030922 8.162575714071947 6.428357318158526 2.9591826442369102 -2.172014728818885 -2.1858151250370867
Ni 5.0402964792953515 4.84346695726942 8.42585178812537 -1.0565971581232836 0.05434103664472577 0.40843850622334177
Ni 8.525401615382123 0.43252894521453455 2.8408919835016118 -1.5906826476251894 1.0641117213327738 0.8907260372173498
Ni 1.4391905848778965 5.260646155079368 8.771787226076498 0.8248181216706312 3.585337538172251 0.32027923547759035
Ni 5.024315198350484 5.3506796848312 6.036150518894526 0.09693521716616854 0.19737484794116975 -0.6138467659919493
Ni 5.0879767909954134 0.12416175285794993 4.70465757924392 -0.18109359428264296 -0.9802842451931569 1.030331539558535
Ni 3.6744146089519547 4.941632304887191 10.424227205027686 -0.7770994754384294 0.45317672967098077 0.6135770572703304
P 7.32077256390117 9.135297367153866 1.0813181277145312 0.28693048481381556 -0.24298827490491054 -0.6830850314634815
P 5.786964889895616 5.665815862615082 3.475473073119174 0.07752595940162132 2.662319216580099 2.313721079553157
P 4.116215144189334 2.920179090059775 4.917594500686254 0.3274850091974102 -0.18099460681093346 -0.537684519707074
P 6.75621357909729 1.396423246471841 9.038005437010582 -0.1569239390149749 0.3788883033700507 -0.6755159608669721
P 1.296996714138749 1.6931310684900847 9.833617226391475 -0.026221395590374195 -0.2598405705755589 1.0469177260519904
P 7.549517588685672 3.0586176421316646 2.4694589671006923 0.3024278091184663 0.602523113449014 -1.2490182616036036
P 8.6929980051261 5.5580033931077395 7.931171848376417 -1.9479451451953487 0.03084706728784365 3.803472758589224
P 7.22953432039142 0.3833465060475707 5.06677853476919 0.7155799187673934 0.42498715461064235 -0.8550710070179014
Ni 3.757219856156285 0.2236268736786002 7.691525105265391 0.9288488122310004 -0.45292990376749737 -1.3594777385084522
Ni 7.071312109576236 6.539186277973778 1.022389742482543 -0.7654662620748752 0.17509598193831133 -0.13250822917477179
Ni 1.2881213620003444 1.6282647620872381 7.755414464105176 -0.5765737405731038 -0.8920383282708702 -1.1816232199883971
Ni 5.205031673864276 6.4343573573825275 12.753083841205356 -0.490565197621768 0.3298288268392384 -0.3530816267195919
Ni 5.086461486971784 9.171881135724362 0.5967615482625772 -0.4787448079480723 -1.278430910437766 -2.5191175122472225
Ni 5.606671946562342 4.23764652625688 2.1291988603685006 1.5100456533984123 -1.9837127897132611 -1.6135911767922468
Ni 0.9272888854864719 7.807608687666932 8.870679166679514 1.987238286368016 -1.444070632059184 0.32354376516147504
Ni 1.4722919777419146 0.7106361750470636 3.1011600378907347 0.4335113900315695 0.19205009329414666 0.3218285822425812
Ni 1.8939229693604163 1.1280544332433493 12.01414253994298 2.334621062930618 1.990827546381171 -1.700244809526749
Ni 6.4522492390528425 6.89343800558503 7.621258292969631 -1.7923553516107646 -0.3989159114448872 0.8117869995182859
Ni 6.663384736954041 -0.01753799700392689 7.264729844592442 -3.1975784146751316 2.2249550284613426 1.9512202164021943
Ni 3.0475305108283344 0.935511056884256 4.953781090189687 -1.1387863273285292 0.10613076762250753 0.7445176848476661
Ni 8.544451151679185 2.411752236913842 4.3918790639315874 -1.331031053131985 -0.4780110151058413 1.4455096784985557
Ni 4.42421715768805 7.49898549363679 1.8634484171982317 -0.0665188096578403 -2.421912586359435 -1.4221257523569766
Ni 6.061460802002264 8.814081149622996 2.8057934011107966 1.9029238432896516 -1.1886898970271915 -0.10124052940974178
Ni 0.4288818625489654 9.210403740499007 10.767807804055138 0.20711650070896587 -0.5058486061433999 -0.4293562302126154
Ni 7.157919734578991 7.268659282045023 4.149946188228388 -1.1709500565452673 -0.05680621035576668 0.40678760088348004
Ni 8.111008318137356 4.79207838603327 3.78077106894094 -1.394133638019425 0.12238733869068598 -0.38014762969844856
Ni 1.374625456914529 3.577199855783789 10.81209515239794 0.06595085296951222 0.4284344897292944 1.782410067472595
Ni 5.343639638808373 2.1321080558573455 6.584704693187953 0.33925834768325447 -1.1538115970927676 0.4351784933213473
Ni 0.5252664926433168 6.153913171096164 6.528281736099382 1.8351817027476716 2.0130205375384427 -1.2973981955688882
Ni 7.347652739624694 0.21924190383630682 10.768165453452019 2.7386197882150514 1.4636374984475182 -0.04042005568825942
Ni 2.289229083003184 5.208363460351015 12.377338326024141 -0.40105455505444476 0.7621312841643713 0.8213224498125468
Ni 7.137232540517259 4.0213157002746645 8.2710328936763 0.18055700505288258 -1.6160859181896423 -0.08984797130208398
P 6.421096094219206 4.806309067298665 13.436882193746946 0.24419309384628915 -0.46465696239643844 0.08578948496199418
P 0.6596560770694578 8.535500504930912 6.85608905554173 1.5307371203094926 0.6747204615488702 -0.38600974490618034
P 9.174205856804093 3.1907314469744907 12.268528202936023 -0.7954589517822236 -0.5718933043782989 -0.4047975670366448
P 5.1389700655297466 6.447345677585071 10.081419316934024 1.3457056244250245 -0.46072523144220007 -0.05484600130560232
P 4.9621783215554185 8.017417118069174 6.450438403685474 -0.5013615169063237 0.128753647228346 0.6943994280350364
P 2.9698923562263206 5.256570834320164 7.202617438545585 0.3019842938231444 -0.49093029427067064 0.3277603743459839
P 8.562606564484044 8.233183234477366 12.14519939669976 1.8989134365786782 1.113800861027785 2.324751626335706
P 3.979037776832763 9.019823671092269 11.703182389459004 -0.7178900549578088 -1.2954536702480077 -0.12626199115474385
