# total energy = -340859.85866181884 ev
CRYSTAL
PRIMVEC
9.37316085155338 0.00000000000000 0.00000000000000
0.00000000000000 9.37316085155338 0.00000000000000
0.00000000000000 0.00000000000000 13.71856835986347
PRIMCOORD
 96 1
Ni 0.3707272576482646 0.45379408366794627 10.336598051544934 -1.087339581512463 -1.8831230065136406 1.157671080048174
Ni 3.729768162504992 8.791509346553942 12.114456083637815 0.9182442972422766 1.4031787789408285 -0.04438881052802032
Ni 1.6966077246445042 0.17705807100146526 8.469816842537886 0.39778334050234077 -0.11113747680847955 -1.850160949765323
Ni 4.4280592721211445 3.2969343411133667 7.025539294357786 0.5174149708247605 2.0112259075318653 -0.9496662631969839
Ni 7.007965555093913 7.159032788394811 1.8626251494894188 0.383887556356855 -0.6807586973231502 -1.486086057259021
Ni 5.9923648314717255 1.5703512480940864 8.797594402572988 -1.234584602676777 -0.4124329720947155 1.7902467899081942
Ni 4.912304880734674 6.47815701162429 5.980115984882558 0.21745207830701904 -0.4807464117591333 -0.4160435722641094
Ni 9.226386517009265 0.30836480661389976 6.806412602862366 0.8161175085728397 0.7335670993734333 -0.7736395419142871
Ni 0.04803838663463594 4.154719155627954 12.768474942645907 1.057249704105618 -0.5296824753382039 -0.7360901229056033
Ni 5.356002195542923 4.270871364790001 12.843982314445995 -0.7372219225172013 0.12932674612299663 -1.048707985183194
Ni 1.5928936999206458 8.225764104413622 5.629030185780055 1.7720189540462579 0.2974210999324942 1.7539592683310696
Ni 2.196956423585696 7.510966858553573 10.436689349603112 -0.23404289278616466 0.6930426568968258 0.18770750005473477
Ni 1.5298779395755486 0.33273221285652194 12.553573672058349 -0.6503695435083316 1.4904620748395299 -1.1724423248200777
Ni 6.2598654687599495 7.398770123267122 12.614347372329886 -3.7304014925248463 0.048357308257465106 0.20393064678181652
Ni 4.07991195894281 6.405571254058853 12.021087216535983 -0.6610013121905648 0.3892269662918974 -0.48818769852852695
Ni 8.506255942629751 6.121208300414713 3.3077940852656544 0.6974880942626892 -1.4012252547588835 0.9156528823660166
Ni 3.615218763847037 7.74314005262587 7.699162119268268 -1.5258499674205206 -0.46652126929868687 -1.5900491278062487
Ni 0.206546035012424 1.9120029608084685 3.1103831328104716 0.8783050378451777 -0.5015625771735361 1.4716562549869365
Ni 7.364511220387257 2.100844032305222 4.692477076808223 -0.5486790710453647 -0.3891228366138654 -1.225658503831741
Ni 1.3944170190776544 0.8208030084099339 1.0991793242238779 -1.5936946949786361 -0.634900758448771 -0.5824237715959777
Ni 7.3635082921770945 5.7616632236517225 9.020919332809829 -0.5341027158930866 0.6049931722560613 0.23215493173483243
Ni 6.452493297237131 4.533704167978588 4.7190640475383825 -0.7293576892777761 -0.04590884671697255 -0.2986788835989953
Ni 4.666231289132734 5.462453183232833 0.9765080816957714 0.13229199939890765 0.23188702278542642 0.4546085770215009
Ni 8.597306827055197 3.0433809671589978 1.4191996563456055 1.242989796021337 1.8224105191249325 -1.7294872513316344
P 1.909406595255056 3.7133932505128926 1.5492794452037377 -1.26168737243084 0.8059163996701216 0.02916093783467236
P 1.0543587437065216 0.6511684807958429 4.650649346547923 -0.226393603771023 1.5313557277300982 0.8642681001361374
P 8.495626778234193 7.686976072856746 9.800888166008782 -0.3501791083608163 -0.06836486172764354 0.15770349749347679
P 1.9684387622420296 7.68737911877298 12.798806491132703 2.592755192338031 -1.9174523759231301 -1.8092544413589484
P 8.393937356252344 3.81231759004616 3.472787023630468 0.2834808357023182 0.1490180539043369 1.067999486422954
P 1.7788197183953367 6.389261954192653 6.981091765641968 -0.2365656592080184 1.0153301810536965 1.182586355232615
P 7.175810746303143 9.485357577930682 6.467481918740603 -0.5735943462298058 -0.521856808646198 -0.3826068898722185
P 3.8548998597542927 8.01005955394185 4.917585719553419 -0.19066966800685226 -0.02676415546772165 -0.32359235901122335
Ni 2.7306829482875434 5.011388564002266 13.22405555077046 -1.3363208407760145 1.016052661042018 0.10650280624994561
Ni 7.552743036429238 2.366591888515871 6.975165116041165 0.33049808499212113 -0.06633523289212448 1.8186677642530487
Ni 4.312497572092184 7.069444117060816 2.89448080864492 1.102125738682702 -3.5828147717503973 0.5961637468898894
Ni 4.507131256989691 2.0701375573847196 4.88669084409998 -0.18675490633347838 1.0097809691006934 -1.6088343788335517
Ni 9.364237593522034 3.1165009948924656 5.812598854302821 -0.1829602151777365 0.5013990550124784 -1.70982808233981
Ni 7.639360415776114 0.11832115858103517 8.721154401269056 3.571919722104448 0.19970298185371413 1.0500691271967786
Ni 0.0876643614129987 5.416777770446628 1.2792827351831182 1.6654145892214414 -0.23645818709587663 -0.1485665681892151
Ni 2.0540438402178993 4.612448092217642 5.964189109978737 0.23052845187500295 0.15172568264348707 -0.38134782065413675
Ni 8.003779536177278 5.9162547654294535 11.239966421869468 -1.7221135845753823 -0.47454388249284724 0.29097277320398923
Ni 5.741239106175602 8.969646268368395 1.4386386546171654 -1.1237183772518131 1.2124818572404665 -0.7117533459324517
Ni 3.7972549205720303 7.599037077831058 0.6804221157857355 -0.0868130411305021 0.5416373337072349 -2.021970033422247
Ni 6.7790354746731705 2.335988518364638 13.805132472101095 2.8835996674942725 -2.826602424173622 -4.918009212231453
Ni 2.036637880533109 6.383516206596112 4.243688261030249 0.6118955558028494 0.44042174399815764 -0.8207609208821219
Ni 5.701881203797338 3.6052925865146768 9.586357135274511 -0.8944104280474724 2.0053563361249656 0.4554729819043253
Ni 8.973732966495788 4.4728629809489835 7.956632537138779 0.9337750458880241 -1.0753402430587415 -0.9381970862151197
Ni 3.3042079139272587 3.01506464825337 13.877429536312578 1.4236565871792062 -2.430529381494169 0.38651856622179886
Ni 0.7487055925243988 2.859057759188399 10.487571553237405 1.380264079126184 0.8862597739158801 1.0782576738158525
Ni 2.7488481340005877 1.8089169378610672 2.5163281329771126 0.73649944252888 1.2409218577487142 1.576450820296524
Ni 5.651425478981384 3.2911698471951407 1.370684175824079 -2.319313743149586 2.672514669055862 2.87478952540181
Ni 3.443933622608556 2.438812092808445 8.85282575283827 0.09836603607542414 -0.8694383314831672 1.6060200493132082
Ni 2.95689481206392 4.595613895344253 8.247973809030269 -0.9431731992734723 2.104419655377731 0.5998730774206766
Ni 8.19704473959176 5.471966941488118 5.9670282403979735 0.0431888766826482 -0.5547425036306253 0.4179654718771705
Ni 8.007228859367371 2.9743757570354514 9.650724505413118 -1.0576741932375462 -0.5998769340754185 -2.3439436258831243
Ni 5.107107282527349 5.795387856363557 8.139226396933909 -0.1140363956228294 -0.4378974349144072 1.0338459804696971
P 5.604550301607321 5.449124548514594 10.985719434012744 2.2620550186374335 -1.1756618601986397 -0.8601034272354865
P 6.719600261769964 4.277441950540695 7.489447018574946 -0.2113912168249198 0.7972988332044398 0.13514926634204466
P 9.451520467288736 1.764797469774741 8.718561784979979 -0.18101003342990116 0.17805660722853206 -2.1850275961387853
P 7.996459097559173 6.935792216605553 -0.4827271565570205 4.196910934748992 -1.1901127455166471 2.8828255083324095
P 5.258521322779424 1.952673105704702 2.9260055605069857 0.4528049481538589 -1.3121288169108434 0.49057599625504544
P 9.274461458971187 1.8740229130740742 12.960946239337016 0.07533563661852187 0.46345831410264693 0.5792610575972799
P 2.4517751742538216 1.0315257238938402 10.541704369051928 0.12234517259884091 0.8498650373369299 1.2352325206734212
P 1.9300744149130866 4.6931603802336515 11.237866833840716 -1.6860086113227093 0.7682253128772512 -0.5309176332968856
Ni 7.472640003868001 4.909839739433059 0.09696159965281752 -1.2637257430171074 0.36500768873321654 0.5405569561588626
Ni 3.755347518444568 3.868116016542421 2.876962371030018 0.7779469110403893 1.1964533430226942 1.0647722377349083
Ni 7.801469232549645 1.259002964383973 11.529825797031735 -1.1872462226021296 0.6596252577786446 -0.6025999894335364
Ni 5.448168486108644 1.376851715658539 6.724361827478027 -0.45444968284613346 -2.895144949129711 -0.4569968747480194
Ni 0.6499809013170799 7.820702958598752 0.5881096039108695 -2.1695986631782245 -0.0511585251516861 1.1800437913164192
Ni 5.96256755315296 8.864610627965725 10.871019127465223 -0.17296967962392792 0.8359134602528442 -0.737900950862097
Ni 9.359344803562173 7.384738501485684 7.8968739501865 0.19926075210997296 0.37731581667660824 -2.0037401406777815
Ni 5.813571788398287 8.399917432869952 8.543443958272942 -0.9005808185242425 -1.5868817858218605 -1.1563996695349181
Ni 6.303225710818021 7.091564776649457 4.21722501602321 1.4730901592199854 -1.3514641241753562 0.20635699683512201
Ni 3.4368287666898323 8.947122562863523 2.7402566947722202 -1.9282211844038601 2.029053936852222 -0.3600182059384251
Ni 7.374727965705739 3.7860633665259136 11.506957159207852 -1.227846255511679 -0.6164929453655448 1.9834487374185967
Ni 0.8294403761264306 8.447748672649965 3.2503403585645825 0.5159898083424597 -0.26863888559347926 -1.0736589987015768
Ni 3.8533720345369415 0.16079469962339327 9.296510882537422 1.6030378267564327 -0.2706260912268372 0.4725116825541668
Ni 0.6541753907941632 5.8696889023631975 9.50253670712308 0.6148045019195283 -1.0706914314328206 1.685763842301755
Ni 1.6099153600108878 2.8334596569271375 7.496786203514737 -0.8053744111237225 -1.3275284392953655 0.5539511180775815
Ni 5.531233437496158 9.178986442628013 3.957779673163156 0.357222645471159 1.915526362545011 0.25232934980017835
Ni 1.3010884565674454 4.323220468096169 3.541928144586233 -0.8830901179386469 -0.8520679585255195 0.09716970177447783
Ni 5.014219258576744 2.155030275136548 11.848960365453832 3.031426786414302 -2.241175861195579 0.6410978883984184
Ni 0.08094193045665427 7.455608970616916 11.740762220582855 1.6188136015334507 1.9578050687085637 0.21590967352056364
Ni 2.2017836014196575 2.445129603216387 5.191462918162894 0.17544333797540107 -1.0316114347122234 -1.0398070831491384
Ni 3.209988901136999 3.007050595732909 11.26459065271918 -1.7187716646863431 0.7057801590681522 -0.7504397067590559
Ni 8.244697889315765 -0.10695338911107626 13.439107729247585 -0.9749618045389788 -0.08105145605637654 0.6332107723408579
Ni 8.834054123618705 7.485050068823662 5.151295174687826 -0.9821624360524761 1.5356391855968003 0.132676636431836
Ni 7.41407649492316 1.2863632208836515 2.0780063259121193 -0.9395296889836142 -1.9396083431948787 1.8221937751284358
P 2.1362089681645187 7.067128946332683 1.883600408823088 0.02803016666433882 -0.7814140436533833 2.36174517284092
P 5.879502601765446 0.1857507403669335 12.984130752681297 0.681252349130117 1.4346020304471165 -0.3754432822442437
P 8.0638333776961 8.622829944029718 3.2295291295456594 -1.8505432728054065 -0.391967505151512 -0.34284580792419667
P 3.6299627458525165 0.7114988305595226 0.7644084488840807 -0.4960743003654553 -0.12226006908420232 -0.3928848747594589
P 6.148128018354787 5.17510019127989 2.5771974394892445 -0.2284584567198517 0.8541798626621998 0.16146039343274776
P 3.0332954460923123 0.9451520467288735 6.6715046988541875 0.5796639494626533 0.6194450860153332 0.7527385300955617
P 4.18505070411475 7.379273948714422 9.727425080588475 1.281973890594018 -0.48489180138607463 0.38762902567715823
P 4.180382870015113 4.556152888196721 5.142817150705655 -0.6315817213778671 -0.6139277557415298 -0.4503269189270116
