# total energy = -340884.9121007655 ev
CRYSTAL
PRIMVEC
9.12703250122268 0.00000000000000 0.00000000000000
0.00000000000000 9.12703250122268 0.00000000000000
0.00000000000000 0.00000000000000 13.35833464012710
PRIMCOORD
 96 1
Ni 6.601418382419448 1.8870961303207638 11.34984196636689 0.1721099027267939 1.2186723023218946 0.3831288238139595
Ni 5.162514314236398 0.3034354999270554 5.807268888242649 -1.5272401628998278 -0.29763912948057125 0.519989416420156
Ni 3.2199258257965178 1.6521024223449625 4.729304276087587 -1.1816625578667648 -0.24269259804136267 0.7086212280613732
Ni 4.062223154970978 4.574742542770454 4.94162187160501 -0.42464005568386864 0.7449758554310072 -0.8943628626389887
Ni 3.7661148368034656 2.7260255844712176 2.3865465201612346 0.6873553767040613 -0.3306695775729789 0.583508520019724
Ni 5.098999294474732 4.716886948255177 2.541155714047811 -0.6620901743793695 -0.4560645927417372 0.7294998712825953
Ni 5.363911415265411 3.2929055783492234 0.5418728372973209 -0.15958914455196385 -0.5419566647198666 0.02861097886847331
Ni 5.62902433077297 8.129347526440304 12.357581364403515 1.2465201777720984 -0.3731017785952606 1.501003597800802
Ni 1.8192640241462132 7.15439790566992 0.07539476537479724 1.3525337030904514 -0.5088786512189752 0.6487325221255408
Ni 0.7927448438619094 0.2364038345102427 13.202242595017587 0.25130656496261883 -0.561174118188582 1.2645742070603319
Ni 8.329311683353414 9.192564679343906 6.9285540478609615 -0.5397249471758705 -1.12681938477464 0.8940939252483183
Ni -0.2719581899465939 2.9783880354569985 1.1539462457250989 0.13518757577914783 -0.4324711216925133 0.9992772413558921
Ni 7.12422393594265 0.8417095482759607 4.6622059833329015 0.7840046871986949 0.548393678594462 -0.032763053363633894
Ni 1.0129272033581547 7.934594905133447 2.49840925693418 0.24537014487352585 -0.5791507572716607 -0.2924455010947738
Ni 8.213444004682003 4.194099648797145 3.6835206681253196 -1.3783275242251036 0.35924019012182 -0.8789323870165314
Ni 7.302091546966552 4.111819450039937 12.68140117890676 1.0016601397657716 -0.7372435197837561 0.1258758114599187
Ni 8.45765601556904 7.20521722310532 9.109395507612883 0.08263576982436091 2.0955094973722943 1.6997449870721952
Ni 6.693765698118332 0.7741904993190886 13.566457743040472 1.8068409468214495 0.6956461559579439 -0.19699355334235105
Ni 2.466489285873327 6.532582302660506 9.06405788594826 0.17787611578660978 0.834855194191659 0.02376187830628811
Ni 0.2217841537149796 5.326317168046228 1.5312258281906954 0.4521135785137891 0.10236487282217209 0.11175351312592367
Ni 6.694459352594821 1.9316908115329348 6.947269028177286 0.09728077343104537 0.9517920512907351 -0.6142830821984194
Ni 3.386375519056109 4.53651853030288 -0.06250648266098091 -0.33345459651728376 -0.2545968056781164 1.0272634421561728
Ni 6.341964227114826 6.1454227074212335 4.957478265315593 -0.6099451169446979 0.49157307006099216 -1.4307795713772327
Ni 5.851477495976458 3.120505059843964 9.055881890158277 0.48063791120572713 0.6941860264726496 0.9883012019603625
P 0.3445673849763328 5.820618998805285 12.63540823630251 -0.3479443054930266 -0.42123128711263574 -1.1452310545126083
P 3.883324189264927 6.428634528545603 12.666546933374054 0.5645484339774536 1.4601814215781175 -1.185111435647314
P 2.52886342656182 9.180060644701936 1.209829240838869 -0.19227275082791404 -0.3243847730055317 -0.025727229562775046
P 6.887979824502652 8.057125317592185 5.984761378227292 -2.0994108893092296 -0.8283433612150701 -0.6283449596081243
P 4.716640518375372 1.762055783901046 12.566893428090571 0.11964474294854234 -1.6117145285948242 0.3058800293331248
P 4.651126678477508 6.376756475330298 8.404315811733555 -0.6480339533966194 -0.6014093115595449 -0.10129220858328362
P 4.813177142030945 1.0104537775275164 3.5137761161024064 1.6275530382889773 0.40607771930064906 0.38396160412790004
P 0.6655295255770951 6.106514167509756 3.688062279539805 -1.8063344394986762 -0.20961741275394866 0.32989618974206414
Ni 0.6828069982612212 0.42774659644320145 4.52018022927179 1.1171785192507664 -1.6481331764331744 2.0123582213640954
Ni 2.340326314445607 6.583191698346442 4.977356029583293 0.5725707900612979 -0.18175102536098375 0.2732463024585036
Ni 6.587755214639133 5.737261810203002 9.34414187300562 -0.5068917026959334 0.1400654726967394 0.10645549795177796
Ni 8.796451465138377 2.33512390587194 10.077861284434613 0.5180127523097595 0.9202800967253828 -0.004871212049372256
Ni 3.0150421983198883 5.175693749289688 7.0265911556735725 -1.2500197062849245 0.6651937530053577 -0.8312232538660266
Ni 0.7476198820565279 0.15085159457117506 9.007792468169164 -0.341184875282006 -0.010348433113859596 -0.15233631964429248
Ni 1.6588107912952172 1.145889814061983 11.318904064012225 -0.3501636817418486 1.7136538838438036 -1.2570581011889448
Ni 4.214891029026643 7.642794546346235 1.158536230412287 -0.7922376166314485 -3.229623101815503 -0.08333768098739194
Ni 6.181155039993 8.14937223593263 8.0685541877956 -0.9509348454967623 -1.0439694420569439 -0.2801085767959757
Ni 5.648592688636027 2.926272679394474 4.628302708091245 0.45886169587090003 -0.49002012375157544 0.28903904651638607
Ni 0.7354042616442541 7.705132178904386 6.436339569454182 1.1270546407138975 -1.2083688635133576 0.3745289979600904
Ni 5.723361339575467 4.643469098138373 7.2382132713079885 -0.10686893134011273 1.438753847831961 0.32787401710571273
Ni 1.062925087860871 7.596748666952989 11.07245684284503 -0.53698877919163 0.23841788192540878 -0.04466546122817469
Ni 4.702320204248909 0.587739826851894 10.466375331309553 0.35263476899016044 1.0034853658999687 -0.5661520310191476
Ni 8.296071030677457 7.704803605731312 4.489214945819367 0.7946894206060506 -0.8854745590104235 -1.1611397553230647
Ni 7.8483079390712565 6.2183111896480865 7.1779410862239095 -3.0203309336114565 1.2404657440479023 -0.7608557598860574
Ni 2.5120057973766214 5.650116903077785 2.6973813054052584 0.8252243559701142 0.1904233563240011 -1.908100759504901
Ni 2.347554924253229 5.475507642686863 11.18512093307897 0.516554165486362 -0.7213921545737964 1.2888567337567804
Ni 1.454200974796149 3.905037399785548 3.926615530223905 1.5282675757230777 0.15000124375321264 -0.4520037924088022
Ni 1.5191033035107924 1.4552688376086387 2.6662170526424753 0.8979104707809311 0.6453373804010628 -1.690499042993895
Ni 1.408620574064757 3.655559091096747 8.185225958037782 0.1008666910100908 -0.2148984586472299 -0.850810946189967
Ni 4.339958756544117 2.9396164010343004 6.786715397967851 -0.9504892733189114 -1.6922178254572144 0.17895546489371764
Ni 4.512048955941474 6.8897778499219715 6.277722695559365 0.04430473545464628 0.8000388578434221 -0.18331759851715526
Ni 8.491051827798948 7.510124000685138 13.828948462086249 0.465022059045341 -0.4785010673683823 -0.6290347865862973
P 0.6908296599037709 5.969827727511093 7.94390812918357 0.8012891853107554 -1.1081328641087302 -0.33866442285299736
P 8.986768348608738 1.860262654519744 7.386104056508466 -0.19880309574726407 3.3371638624116593 2.073726854279564
P 1.9542254549862401 3.3372720837467598 10.253189754993262 -1.0460957443713275 0.25805211121656846 0.5694787813995353
P 4.344449256576124 6.430551205388533 3.4999367965931936 1.0428780087649783 0.7334938229333368 1.5103266749739408
P 7.1885330075392435 4.007625246045229 10.518045288181911 0.8327566597914174 0.1324012712832623 -0.1714568425238273
P 6.534718028285485 8.351207434525742 10.32525771699069 0.8157585825715241 -1.3873878346551591 0.5832686360947762
P 2.6605026175407684 8.635295450778308 5.85001534535628 0.689907967922586 0.02491527518444096 -0.7310620735633926
P 7.01254556522793 4.35811242435644 1.6565673666857308 1.5263155942030293 -2.3025054133429954 -0.8722498327900333
Ni 2.6801531186970933 2.295028851724362 13.442225139004558 -0.1081403418533686 -1.5345708922332861 0.40618776251595207
Ni 1.8890310612288645 1.2370871236551089 7.022543316721955 -0.4114148152428463 0.23589254440039376 -2.1962026389189986
Ni 7.076745112433499 0.8806253898135076 9.10521441398552 0.9151142362537271 0.8887372889220952 0.19948623785721772
Ni 2.831223762050317 1.5996219849790225 9.002635694758425 0.9267343369911587 0.7049247530463925 1.034866194204095
Ni 6.691748623916963 2.2592873921200103 2.5244578079328566 -0.2480592616699147 -0.028516876492770245 -0.3536174446184039
Ni 4.573930236870355 7.370297861477104 10.523882938223522 -1.183552061579994 -2.3111882858289747 -2.006400461118764
Ni 7.500093391873804 6.32170221477528 11.740252610613076 0.5315640086316329 0.7790432294283616 -0.9439033925712776
Ni 8.240916372764 3.9771592112752274 8.138418884126914 -1.431770217425276 -0.7421044474204832 -0.6255920794533355
Ni 3.336633191465783 8.799280845239846 12.116730839617675 -0.8293805442303329 -0.17275319273774764 2.2434039791951492
Ni 0.25164506622457017 5.147682886285153 10.026405812828012 -0.35202284643777443 -0.5107691833734687 0.6153421195905531
Ni 0.05341322009616594 2.726728365980292 5.2403140526974425 -0.3671203642008452 -0.6731286915817181 3.4577195472102447
Ni 3.9115267199537533 2.9161234191595304 10.945672320498247 0.472112133122903 0.3826930218281216 0.5507922607336255
Ni 0.7133369222593202 3.5840396637577023 12.236208259676602 0.2935251073121978 0.33913776294499015 -0.20496474447328575
Ni 3.624755356121087 8.547894986740701 7.867204547336029 0.11353657316827542 0.5214662580759988 0.6096270714836468
Ni 6.1199126513450945 8.297686515445069 3.337833396250761 -1.5798840143477888 -0.5593110968379142 -0.3000629084307155
Ni 3.20954838974694 8.292228549959011 3.46858543966241 0.7530696881827353 1.3435906349645506 0.0824604205887612
Ni 3.7263574828615464 4.126952070066499 8.85890044749407 0.08555988544969136 0.34408096588287834 1.6232032459607142
Ni 5.272659343476774 5.0744932119829835 11.432196094088042 -0.3873883704212619 -0.2996214500179227 0.10272585570601662
Ni 8.22113809315148 0.05802237155178329 2.2248036376059246 -0.7180108968063892 0.5906767556333893 0.0317711217640098
Ni 4.792568302453154 0.5528672607496707 1.3740784065421245 -0.5056195208517292 2.7189251379996016 0.47879211624623996
Ni 5.92713146907668 5.830384923671644 0.44282719238402624 -0.9215311955236646 0.4696503018459718 -1.3087439595990107
Ni 8.284224142381632 0.12548483290662601 11.188821032089084 0.7441104221069185 -0.6982871931252167 0.438309068530529
Ni 0.07050176320577455 5.207510584882326 5.785387740322457 2.027542899524334 -0.7920630387267972 -1.4162695506865157
Ni 7.111975458213069 6.181985599958271 2.5202904048543715 1.1052794538203352 1.8238750194856008 1.3932193537352715
P 8.670671829079243 1.821007287370021 3.4529426185143257 -1.2333412171879792 0.9687441057640412 -1.730116143164885
P 1.9816704419704805 3.6508221611849345 1.7658918756966813 -0.9435056429122267 0.3370610829216195 -1.4106486049553124
P 5.014437337571178 1.3163188935288002 8.40742904254843 -0.48174425689602834 -0.7696556175658745 -2.1839626452093808
P 8.560262115893892 1.762849835735974 12.734967733150361 -0.782449169786117 0.6995364921512855 -1.2928082622053607
P 6.556933225598303 7.815687924611105 1.1592025037910196 -1.1746591299657383 1.4028409359854355 0.4156769329533099
P 2.2989717298012464 3.3698555900765697 5.92423454893408 -0.009406380915564444 -0.016074022743727157 0.27095262132832043
P 7.0923705922196705 4.3695668502510925 5.724888292127001 1.6309234974231073 -1.7888555659876226 -0.27782415163717317
P 2.659690311640669 8.755407199601919 10.012232443926173 -0.2816311840880892 -0.8477042822401852 -0.1537979917914835
