# total energy = -381172.8483633959 ev
CRYSTAL
PRIMVEC
9.17681145253415 0.00000000000000 0.00000000000000
0.00000000000000 9.17681145253415 0.00000000000000
0.00000000000000 0.00000000000000 13.43119116709958
PRIMCOORD
 96 1
Ni 2.5492447443753044 2.3321213907440996 0.13604714412163896 -0.17124266963049217 0.3905024905702113 0.4470140525036947
Ni 6.257493216289083 5.7291107794599405 6.965993515476488 -0.7887272894853449 -0.5726659208782654 0.9361309477147105
Ni 4.91299860341893 8.834396869702614 5.247150159903781 -0.845292330364583 -0.2328642990970312 1.399348606561461
Ni 3.4705598843228307 2.6347175641437337 2.815929302400256 -0.10263355310252648 0.20311946373443085 0.5073151633865972
Ni 2.935891331803181 7.9943974540376805 13.282883642432434 -1.5066165731122052 -0.2167540237987299 -0.34475613757303203
Ni 0.353976221778576 1.7399050550198312 0.92568146672934 0.7004232656316131 0.7910407681098699 1.525978522578585
Ni 8.455275267480891 8.231397780786603 11.057617041615712 -0.80865205343373 -0.12516618698740378 0.10219363735163046
Ni 3.033936382952623 0.7417047552501179 8.531022502710929 -1.327599915963249 -1.9818441119356385 1.9546061021552918
Ni 2.498148259463278 3.2970630912648606 6.727898395148183 -0.8707907317460036 -0.8343605139434276 0.527953408462239
Ni 6.950792127678937 4.881769914813392 9.282094946861585 0.3969562166153551 1.9014009788872217 -0.17771053674302298
Ni 7.949678852928431 7.028703254996304 8.744672433292708 -1.4600675217080725 1.6763140097427647 -0.5931558133015011
Ni 2.103664675247529 5.186531815662603 8.17772811800652 -0.1466806640204119 0.5168909800004905 1.2290387331578834
Ni 5.698680473431154 8.718475390282945 3.2497300166370335 0.06240401615851833 -0.16415259555293019 -0.6605022610669592
Ni 6.057007421412459 8.885750305328997 0.9367303474466676 0.737385187567943 -3.316862688960462 -2.1817414691883457
Ni 6.728125980066613 1.5824493279866862 13.032539314478308 -1.173417287138837 3.4830405424735367 0.3661492585368275
Ni 2.128322767014522 2.1465570909226037 4.571560658819825 -1.4197963328928516 -0.12992864137305365 0.12960313971283488
Ni 1.4744107294110236 3.917075988195761 2.1954759185304593 -0.2908635013196345 -0.43272823200864186 -1.2697598650263293
Ni 8.951823346163515 6.319409161637762 3.9661095259439545 0.5841286701022262 -0.49652887140437063 -2.0997142794822614
Ni 4.262573754081697 7.3766328758574 7.436809815478559 -2.607590457578651 -0.2889613992009153 -0.3154985262594953
Ni 7.2008143495589945 0.24510712178686847 9.132014623011594 -0.13848578691444535 0.34450391235290995 0.0017313808688099214
Ni 1.9621765997493925 5.954190428424969 1.1336720578274184 0.1448371830537699 -0.05844503151077031 -1.1589352914725783
Ni 4.395325505291714 0.9422382695451229 1.6270679018535619 -1.0829517368574122 0.31172003305366963 0.7811674748602159
Ni 4.550734803421235 2.272132575753094 5.4325272527762465 -2.367424482613884 0.28141341165032824 -1.1197046281067295
Ni 5.080007390939398 5.002674402729332 10.67313618163741 -1.0753137606961802 1.3398620211600538 0.8758185239778981
P 6.902476216568695 6.587298634976821 10.959864730744414 0.08356496650684964 -0.263083760103205 -0.06380269627825787
Ni 3.8271891222271366 4.990037933669731 2.490787539178088 -1.0723559636194369 -0.7990312425145142 3.043508400169184
P 0.623255982018528 4.535638948952793 13.195151491739912 -0.5267349626741058 0.5885124009922187 1.2983348484505446
Ni 7.652414406851692 4.338768817699613 5.7704422195452985 0.7166929493259141 -1.3141381340313885 -1.4886185938728878
P 1.53731777037222 2.4110236136739855 8.856836008514914 1.411811257804846 1.2051200175587566 0.13563726172205673
P 4.243284096882509 5.695954960496731 0.788684522645705 0.9090965693047375 1.4721583914343355 -4.240108810292704
P 5.0375738158256755 0.1251891410778333 8.052710583298634 0.4694744383897398 0.8584808040303988 1.5214127575847733
Ni 1.3070623998751547 5.4903760353891125 5.852829795379206 -1.1684056928568587 0.17550041646558162 0.293823612389223
Ni 4.012046807584153 7.644770123099588 1.9001642978828301 -0.18821066494339844 -0.431488960284902 0.7957906240900294
Ni 6.36561440616579 7.948311508055604 7.011135167583303 2.1215899965094303 1.1089533031274965 -0.46328039376388597
Ni 5.374537147270486 7.292729290808789 9.549751329195479 0.28067473371209084 -0.030777133281856668 -0.09460245526793384
Ni 2.141656673727377 6.700641430441699 3.548158082377357 -0.24718097283001944 0.1756762799218136 -0.007291905675722926
Ni 2.64974000412236 0.1254717868636254 3.3990449944306924 0.9922360182383945 -0.31907338809494723 -0.36034859269465036
Ni 8.286247581490478 2.798652119903153 7.383394350369465 0.06412948349005729 -0.8968532331610103 0.16238033414385586
Ni 0.9775414623354546 7.458480855191157 7.757977101758305 0.7578833075212948 -0.35277849365687625 -0.6805614937106795
Ni 1.357415563077793 4.554754246738668 11.132912777733381 1.5732510824123034 -0.701304896905618 0.632641015880317
Ni 6.574267563034458 1.9953783027687373 4.65923958400723 2.3952402192745716 0.5701660372745471 -1.547245145266845
Ni 7.3869017276204305 6.723317330983656 13.085539070038816 0.30964515280251187 0.8703767841370365 -0.34879302664656703
Ni 2.888052614876745 4.349138614386141 4.553388737228088 0.03996882708345375 -0.5234395797522857 -1.5670171856874497
Ni 8.983538405764083 3.260365023168023 9.66705942479155 -0.7543716948236104 0.3671368192610774 0.24140010448218427
Ni 0.5097938880076989 0.8952401485270818 10.138399720714682 -0.509721973055877 2.0497875698551478 -0.39653918368259444
Ni 2.925090224988983 6.299954321836488 11.44788755179714 0.5600808851244031 0.06360317867294207 -0.6816894366675357
Ni 8.147787853697258 4.717413225737531 11.446934081110651 -0.5227106720060611 0.11965836979529716 1.30126127806872
Ni 4.939381935696601 7.17917542868569 12.81151581607562 1.0956082492791581 -1.1239451485506384 -0.3932875095145162
Ni 8.339610738775578 0.2080364751542135 13.391501297796523 -1.3398730769036473 -2.859061316033276 0.18525492474918417
Ni 6.164146692487874 6.104359767343863 1.90657062980041 -0.5289988190076179 0.4442164351538995 0.2276714420421821
Ni 1.0379065265867675 1.0831573827471848 7.335874986473729 -2.1199252072124977 -0.8009431148252464 -0.6282837673528857
Ni 0.3295090076851052 9.140443524123608 3.456006379397905 -1.4544692016846887 0.9261098160332825 -3.5557829644435857
Ni 8.2019126863142 6.572010067472612 6.001996108830988 1.130150506030402 1.2078872958912488 2.6984905242943333
Ni 7.485708454101714 9.022870218683074 4.901659735466828 0.5516798055449015 -0.7712756696678007 0.24362667981985783
Ni 5.556329777677678 4.306071839297754 4.151755499385371 -1.57039690079296 0.03335132176693611 0.8558857896097131
Ni 5.085825489257327 1.209063232781848 10.257212813351986 -0.41927956270290373 -0.6480750910472 -1.1339675657836472
P 3.024943107950147 7.010101858639143 9.260147685131054 0.4054082040374502 -0.7679255222486452 0.5131196858835163
Ni 6.102386752930054 3.0588514254339723 11.119844080864986 0.11172985897683983 -0.4258122216150989 2.6156734916971014
P 5.649171576861402 2.482566033999804 2.835405248867353 -1.3740088422450918 1.4151030411822403 0.1418071379781945
Ni 4.400372751466573 6.5324488342729445 4.197193562494819 -0.5440318020813404 0.7883850756545777 0.8840504249693871
P 8.521963154667619 8.611115875738081 6.8814971084226135 -0.5680415347323766 1.072787651840217 0.8167008918801354
P 7.580633389433971 8.042942785428597 2.3912356556251706 1.2126682622196598 -0.7316012338963142 0.09862083239870756
P 0.7388342486983072 4.0978316389343 4.114202152482175 -1.4086025210595612 0.1200293799814707 1.365942006076557
Ni 3.700851962064804 5.353311182902397 6.342154805945045 0.9496007000663711 0.5940477289881511 -0.22914494126391505
Ni 8.976976985736767 2.1916886485370695 3.213251274328521 0.05144263205100818 1.9311838665766095 -1.463979455167969
Ni 2.76830440517541 1.4138713057463974 11.030056324457615 -0.8453730630038472 0.7293579463880923 0.10314417419035785
Ni 8.883410218466109 5.024129787378096 7.819263517856811 -0.022896187871883147 -0.40364725548228547 -1.6665687574305428
Ni 6.589583660972348 2.7746822889781866 9.107905304555976 0.11514994040198234 -2.3513951970651634 -2.928971410760852
Ni 7.678559142037462 3.3845181022583253 1.1226984269621525 0.25732731723540203 0.44202894058427744 -0.9819773166248636
Ni 1.3656471627484268 8.129158926906415 10.018056853645836 1.4386499752642448 -1.7537407245623604 0.695242492761622
Ni 4.924396202962884 3.4897761270322025 0.981802255788158 0.10394224461162098 -0.8195177925036402 -0.5391546764946973
Ni 6.1215662883945186 4.590543810524032 12.783068618952994 -0.09185034644409341 1.2407377667623662 1.2429697414166787
Ni 0.4548110235410308 2.616024399674302 12.103436732523535 -0.5312529051491173 -0.599965894244799 0.15710803000132298
Ni 4.457030383982172 4.782687883995298 8.430637364698597 1.310256282478479 0.440432542631435 -0.146552880193296
Ni 0.7266960804883328 8.218017990017612 5.221160512827749 1.4075712515815695 -0.8389946702813292 2.9576088719918867
Ni 7.533244336257658 4.437759080405438 3.1827493891721645 1.2565976166127584 -0.6495084810596169 0.7133700556002682
Ni 7.096483182719046 1.2954629104842061 2.0669932199032495 1.7443379431912218 -0.23656848742149583 0.16245798145932666
Ni 3.2242909782346216 3.5281902588284924 9.879675128748046 -0.43297531502244146 -0.6859299571114444 0.522634567352487
Ni 4.355810156148182 0.790997079074913 12.801657167774437 0.22290358833989352 0.6642465586007399 -0.7555330621215633
Ni 0.22592758632240442 5.809306932772835 9.79673786192164 1.0909828346920052 1.233349444718095 0.8472142299776441
Ni 1.1711538256030438 0.2402902135738076 12.602231294594532 1.2742009315168186 -0.17519316963780796 -1.596116159935935
Ni 2.9421132098150986 0.7259775361692574 6.129794217340661 0.38992322102797367 -1.6649211945247906 -0.23460442171658952
Ni 0.6956133031813059 6.865108241252285 12.258621198777995 0.3428123835830999 -0.8756951110261564 0.7833418568037154
Ni 6.642047490757201 6.6124706281725265 4.473056767109033 -0.5898095225370874 0.11964088629380039 -1.2316810558767368
Ni 3.8271432381710015 8.545299785617921 10.973108704707244 -0.46529639575265025 -1.277541308743961 -0.2742184365637858
Ni 8.439683865206192 5.701415163176805 1.5580454338906817 1.9004581553579787 0.4229426133767877 -1.1792387789166205
Ni 6.288428246935355 8.94199498133938 11.902251664631413 -0.21796115673295363 -1.589558047102443 -1.7024461880534423
Ni 0.579772579700434 7.913898465954294 1.3001779560926472 -0.36523523136299035 -0.03136154503041696 0.2585460201338515
P 3.9482587927451624 3.104506061288378 12.132529059475424 1.1608232525239104 -0.18661606676276893 -1.1548793762356497
Ni 6.356749606520491 1.1714841908072162 6.737058688114991 0.9776002706030905 0.5750081958581967 1.2048636785735765
P 2.1623412062330716 0.324201140071399 1.1843730221755606 0.21360390820552244 0.5661060082725605 1.0969935596624592
Ni 9.03672720363587 1.796581041157884 5.298053931780041 -0.23538937951173008 -0.5545427289149933 2.017795333219267
P 2.6305604686578956 7.321278350536037 5.681930957579604 1.4194402351050137 0.13697912046193184 -0.15843883299760456
P 5.666625871815186 3.7438544994746024 6.428113996708507 -0.34753729986259496 -0.19658423371907432 0.7043660523294449
P 7.846109361420324 1.4637105675203226 11.116553276358978 -0.7506006578169525 -0.08024490099468115 -0.42780122702066964
Ni 4.354396927219222 2.319429860817136 7.8477373277319975 1.951299920600194 1.6145260299016904 -0.08073289637469322
