# total energy = -340859.8123928062 ev
CRYSTAL
PRIMVEC
9.39415703486096 0.00000000000000 0.00000000000000

0.00000000000000 9.39415703486096 0.00000000000000

0.00000000000000 0.00000000000000 13.74929839646469

PRIMCOORD
 96 1
Ni 5.986069574578855 2.1818775122284424 11.87213459015816 -0.17501319241651794 -0.7906203927429998 -0.3697128075183697
Ni 9.138025315951305 -0.017885535525132425 8.30013508829624 0.8178833422240108 0.49027954806054913 -0.3704735969437942
Ni 2.8396751741543964 4.916037514883135 0.9092520019410657 0.4180004388801639 1.367621193551193 0.38041271043437713
Ni 0.28284209740603217 7.42120554634153 3.5670083862442397 -1.3119316132983727 3.0122607550088127 -1.1137602375978366
Ni 1.4918672859263775 9.143821510824464 4.512134794962644 1.2812316131113546 -0.14057686511551917 0.14554243665091066
Ni 3.522724330114467 2.9263738491696003 1.9483303142995785 0.04158476542032193 -0.7340324690456261 -0.4575828291584765
Ni 9.212652499212847 1.3824253567978557 4.483453494205366 -1.5246150665721547 -0.38972961695992875 1.6011858611493586
Ni 8.6851799774414 5.911902705010643 1.731393864790032 -0.09245892656236981 0.1542754456485343 -0.3570095010190884
Ni 3.6794564456149184 4.596889818893154 6.670650917546726 -2.270223156270523 -1.4464735850737218 -3.96077053600385
Ni 5.237439808554733 1.7632081169090579 7.600859404938427 -0.44293602577957913 0.8735999190600245 -0.39904806614737726
Ni 3.634242367941478 9.40909371638079 5.927721525994292 0.37194221106952075 -0.3757075916492239 -0.8102559075857401
Ni 8.743498904139242 5.920892913266093 4.684289298021061 -1.9661593542105302 -1.6845273987914924 2.5653786000972914
Ni 3.328237097603927 2.051618131172985 9.254721413120432 0.18010680488934142 -0.1697051499400432 -0.6278001428482478
Ni 0.9290699155624845 1.7716064932730835 9.348863078732077 -1.6520201701924064 1.4646898509714323 -1.9166810449747445
Ni 6.0032045169591495 2.6320079393634 2.473305869138635 -1.8450274851934998 -2.148579894834713 -1.9389352283872545
Ni 1.372984229006082 3.5466982187956675 7.115152365803244 2.391845848881042 0.0639901296987156 1.327975811245429
Ni 8.824204106984146 3.324047303578921 10.6459443979551 -0.05676610114645062 -1.463497630435544 0.86608098497516
Ni 1.8722554914432967 1.0834375217443395 11.158270720384582 0.529094721155534 -0.7070238016672662 2.3152573136920256
Ni 0.9356552196242093 8.173423880342227 6.610607223622446 3.5340661415917847 -2.45873206918063 1.0532616659921472
Ni 4.927629904629451 7.132184911872164 9.393451505548867 -1.7629463023210281 1.1367564413826938 0.2794030660885188
Ni 8.505714001984638 5.4559009297464724 10.356727425604292 -0.4026388688224291 1.8610925090761625 -0.23138591477929182
Ni 0.7148774993146068 8.00356812750336 1.259300837989017 0.35094709687509235 -0.030396867124302486 -0.44554029617164553
Ni 3.7236935309596575 3.510962845542028 11.295790845390549 0.6598373737894507 -0.2799746223212726 -0.5452517905313706
Ni 7.431398206693843 2.592176713654822 8.913834698401155 -0.5296575356375395 -0.5709746492187714 -0.9452385664429335
P 8.258412818782205 9.33232466532171 3.2665578809447737 0.2048680709944214 -1.4686791746364833 0.039192611039061534
P 4.894186705685456 4.738553706554794 2.475272066200146 -1.2708232732938372 -0.4868455826783357 -0.18319521400667804
P 1.178177595157313 2.769237784917859 1.1140765648218223 -0.6716652196623143 0.14827654775262206 1.2717537555279068
P 5.349371189290041 2.671904924171025 9.794161151502765 0.05703966652281144 -0.22067675589190383 0.0650962182787008
P 0.6887711369928761 6.692961101022032 11.275057001460972 -0.5923137770161798 1.5369028828005724 -2.821465874278005
P 9.22702555943316 2.2506239532037666 7.229050883015764 -2.063557627056046 -2.8228825521198737 1.2405500762315926
P 7.326268195631415 7.494010263143765 0.25309831749129175 -1.3581567057041835 1.4082448806098264 1.0602260131251222
P 4.336568334079379 5.474125594339549 12.237645269223506 1.2738692592090124 0.19007394340438233 0.08488702775238284
Ni 2.1045917825339924 5.836026098867203 12.407641934417473 1.2275639483845695 -1.630788771617456 2.237088835610399
Ni 6.343977562378646 4.07340981384957 6.571449558971251 1.5002659483038292 -0.08203001791956195 -2.118122349675804
Ni 6.1119324901551595 6.834953784178909 11.405977731169704 0.08795641070632594 0.685907074293309 0.8348104569966525
Ni 6.4542086006957335 4.529890691121084 11.109199401844172 -0.4921271427922493 -1.152656400442402 -0.18583496562237029
Ni 8.676809783548395 3.8013644210913844 5.931598494590974 -0.6237259727788742 -0.20244712025775455 -1.4384702551532709
Ni 2.7001907309183193 6.797743528275211 5.616918659673399 -1.1758721764372329 -0.379252885798321 -0.5873914000138981
Ni 4.922951614440095 3.138099359787508 4.721577525427914 0.07345204644256381 -0.48290845240745867 0.7218508393777697
Ni 7.935188058651299 7.338067256831881 7.689624794495114 0.04143718409886412 -1.1691371717062444 -1.0229925826949609
Ni 4.97440341236601 5.375148756116535 4.774815152600811 0.8309131788247754 1.8404581206552626 -0.6890890715657164
Ni 3.1664791081048698 5.737002289859156 10.346154301893208 0.13273088670853916 -0.5628576765385919 -0.40376963999276266
Ni 4.861495039302001 8.069843905185913 13.625747515100533 0.21317299131569095 0.7004955136304452 -1.6901889679526438
Ni 2.896415882475106 4.506527422645321 3.7416241584384218 0.006487664606872697 0.7073709005940398 -0.19379458678907913
Ni 6.99923880191278 4.510980253066516 2.8462698723731275 0.7129193412160948 3.400690422210395 0.07602777758954003
Ni 7.910537790665614 1.7797324390839138 13.309046057595108 0.6202686103578932 1.4426320998404445 0.2797730478334278
Ni 8.572807071326775 8.723010247707542 5.821521520448797 -3.8615125842417752 1.0794691776254506 -2.406059678487579
Ni 0.34020657775198976 4.547110180914438 13.90466567312485 -0.2237098862912728 -1.0499670544012756 -0.47604797784219943
Ni 5.042238620111681 3.7576158319109956 13.480087353048228 -0.7207054129194168 -0.9559981189522826 0.24989965731276315
Ni 7.35291002490253 7.31766314781324 3.07886638161291 -1.3362938441928214 0.39200735725051195 0.5170599014781869
Ni 4.658759736939544 6.901464415786628 6.726638214475495 1.577547138684496 0.8198206684560397 0.2932356010962369
Ni 2.3282102959224327 7.0092341849679505 3.2030778043874286 2.808447093420834 -0.20886742196180158 -0.909927035625833
Ni 2.351122644861872 3.06409219088841 13.20107243520674 0.0920686331024866 0.5369980351630107 -1.0339678507595418
Ni 1.3167226226927158 0.7370721346587308 0.27373634101939903 1.069106346333888 1.4816917848460676 2.0957696930122163
Ni 2.032970729514606 8.266970895815346 12.515120484731586 -0.849117103427312 0.021531446313872594 1.3450435653609931
Ni 8.233734368325498 7.919095867698753 10.002408005781078 -0.24045188163630202 -0.7720187184814123 1.2367235033966508
P 6.600024705754354 6.280491849327095 8.992865862467458 4.263437457716315 -2.497359808855157 0.26284773283299895
P 3.706605559364397 0.12736973836018461 11.72684549730762 2.175846700970465 0.7150744398858846 1.1398242816747404
P 1.5014869027012794 3.3059165805559125 11.154241566444389 0.3665066418762462 -0.17764831604651987 -0.6185539416596315
P 7.883332311974094 0.6487595434697687 10.030057828099016 -0.875012740247151 0.7964879072673703 0.6019649269526988
P 7.336442067669714 4.43561093140144 13.211522495461038 1.8850284510664694 -2.0234808136398184 -1.4745235492324025
P 6.962958567552749 6.912070419047238 5.62896290837174 -0.8683376422198207 0.40851666775944484 -0.034212127105334625
P 4.056237294841249 8.763414516993532 3.632234836589138 -0.7188727305860523 -0.06763261154730933 0.9383667790237646
P 0.733616963711652 5.23499732773298 3.267837365129092 2.149122397601744 0.26063092768733825 -0.7031216383993826
Ni 6.027591748548646 8.998080559021899 5.82219508150618 -0.11598966269445832 -2.5286059113536323 1.5741255145974566
Ni 8.502792419155542 4.832654977291309 8.0855772393408 -0.18875959546833299 0.12049577809492798 -0.12527828708523586
Ni 8.23517167434753 1.6155131804490905 1.8890851237208715 0.030124844409838446 -0.38830136915383445 0.01647665749878453
Ni 8.566278132207092 6.38759463336094 12.716588515313834 -0.623711574601171 -0.8067034143477912 0.3168835795324801
Ni 5.748388008151325 8.944928418677764 1.969215404156963 0.7359978203021131 -1.1112148454681636 1.6923895751483888
Ni 1.3089442606911348 1.3514716094606471 2.7222510298172473 0.4772114020226813 0.3820317340950388 -0.7413955942789167
Ni 6.991394680812151 1.628317416449277 5.706604676616746 1.2658949827542842 0.4834113601858061 2.9713354775493603
Ni 4.387926190435227 9.047155635225108 8.255683816171748 -1.2752206310305845 0.44778975432745466 -0.4951366190425343
Ni 1.3137164924505587 4.658355788188254 9.283100222022092 -0.14104352033929257 -0.9836873573374348 0.625885185213722
Ni 3.265418369699856 8.98608422052429 1.6312164533015572 -0.9693164333277435 0.2523733156642363 0.33740509652459955
Ni 0.8731079828576331 6.919886357676846 8.671379960798498 -0.30982667268569863 0.14115742020933755 0.685057067588188
Ni 5.116574584506014 4.344074265527764 8.227429010142576 2.1934438452269385 -1.182310732973725 4.702659010758785
Ni 9.086742612851511 3.3819528873684668 3.34832556294714 1.4706748649102734 0.8219919650757457 -1.1981428149099753
Ni 5.481800620614055 -0.1299211914032152 10.448078087169236 0.2713375154715649 0.45934737725806696 0.4525254692402271
Ni 1.751315114138525 0.829874193481214 7.14197644172029 0.33051711115551463 1.5221858883053718 0.07468334774650363
Ni 7.252824676152721 9.257528387234046 12.335306925465574 0.2050904714178726 -1.5861032557846233 -0.7105554689696085
Ni 3.4008727195800414 1.581262084002516 3.9356820779737536 -1.468576073399716 -0.5363655437853343 0.07900562927094135
Ni 6.1008004141021726 5.657649845623222 0.5073727834398273 0.24001222299572214 1.5431362653047942 0.6995979415168403
Ni 5.54399933415568 0.9075366288716349 4.133121894031512 0.5504179081133423 -0.5594288533627011 -1.5634610929050752
Ni 6.872070098512539 9.37751056052413 8.103163101257417 -1.2532081313152352 0.48080040492552034 0.22563384278686302
Ni 3.031982962239372 8.045475461910428 10.443169640133213 -0.5525007587843 -0.12343737722175514 -1.341105920869484
Ni 1.527010827288592 2.8968292253834025 4.8750198071446045 1.0243277565666167 -0.1775822386952748 -0.2062965759108318
Ni 4.679069904388116 6.8131029749812315 1.8007321376567804 -1.843814181611689 -0.1812810277031007 2.0289320665623762
Ni 3.6998229780055305 1.2051012491386301 -0.10445269234224219 1.6478608966083943 -0.07827440753187165 -0.36034576448117295
P 9.527741919375917 0.06656417830265814 12.618391392122382 -2.2185429542874116 -0.3061407391936792 -2.010717600436879
P 0.7818418687057521 5.468742742374686 6.60711541546304 -0.3477987810540978 2.364687286188379 -0.20890701695048536
P 7.25438410621584 2.9092013301612796 4.1745069133090045 -0.45692848340392916 0.0679300881830701 0.6486276211165604
P 2.670260946694846 7.136900778689548 0.5933744120051314 0.07319262213359008 -0.42593717722873736 0.3890778423085428
P 1.8985027661201284 -0.49484755390274077 8.881139274354895 -0.03928439942191944 1.1018794269998506 -0.5129931876079811
P 3.667948603281662 5.79036110165744 8.276486237447472 -2.4703436852776295 1.8801438692806587 1.2121635546690994
P 3.1797436577983866 2.410737965226644 6.476854155576181 1.3202514460179777 -0.8239552594497035 -0.758603730627087
P 5.907149261565232 1.1091305411577734 0.722539373769304 0.46656214983895133 2.5368100444309793 -2.145840384416362
