# total energy = -340865.9697659715 ev
CRYSTAL
PRIMVEC
9.30533034916848 0.00000000000000 0.00000000000000
0.00000000000000 9.30533034916848 0.00000000000000
0.00000000000000 0.00000000000000 13.61929156321713
PRIMCOORD
 96 1
Ni 4.44454217019565 2.570848761091429 1.472736028407787 0.24224085521592473 0.4146945144353825 0.5318195762858647
Ni 9.218465119813231 3.103299765372102 12.276320443213898 1.8673837414015129 -0.28165792356096647 -0.26337969407706896
Ni 2.8602073145537115 9.04806590991481 10.903251016895398 -0.8079786815157891 -0.7890149959290929 1.0228758546114383
Ni 5.829938367667078 0.5040120535766782 0.9265559396860845 -0.0019707505731256384 -0.7509014768868228 0.17258864213542535
Ni 1.3096415028568023 8.590187823290643 0.6226084892557622 2.0635409148854977 0.6048648742083131 -0.9810221518004459
Ni 4.134432729988419 6.411558737669861 11.899910524057002 -0.8476883414005852 0.40439981737759384 -0.7724727752996955
Ni 5.088945604264871 8.894044081483253 3.4935253085425497 -0.5172565908700253 -0.5895254156377653 -0.6737326437143042
Ni 8.525255227906678 6.00930791605076 0.05553328116823889 0.05129762183271166 0.6136451915041045 -2.788369863054985
Ni 6.185802117347362 5.664080158993561 12.754630243751015 0.7897351619245689 0.41779320796536434 -0.6330261671338776
Ni 3.4075189314494883 1.0324077948782266 8.77134120350796 1.1315196184637866 1.0306457283648445 2.8855051120471016
Ni 8.011973204206539 7.48405389582039 7.915246155983946 0.9076804056835013 -1.2217388570623604 1.0552560707143568
Ni 1.0693313458217029 7.470691441396289 3.519551387079296 0.29114375156421474 0.520267352671891 -0.6246122320385694
Ni 2.8212924229091505 4.203943547918804 10.577136408436461 1.8701191380548052 -1.3025180332939568 0.051152611614415124
Ni 1.5472438087516418 3.369664847468122 4.928100177066467 0.917243366781588 -2.073743823560428 -1.4850889834530747
Ni 2.251089693281279 4.955386197336516 7.346926825224764 1.6653911921826738 0.29272472289808943 -2.168149332326208
Ni 7.479950245123295 4.129063554359794 11.030413939721297 0.6494277484203524 -0.4050117399299799 0.01915523277221217
Ni 6.3942694338258645 6.841055566638382 2.8059414193830787 0.05233891861303244 0.08486723025804094 -0.5754450262852993
Ni 8.411823250587883 8.652254376917908 13.290712187945536 -0.26440762112095106 -0.725680240426189 -2.077579909477067
Ni 5.989115349128547 8.216541587256282 12.411669265174117 1.271976927282306 -1.1509157636022114 -0.194652049693368
Ni 4.707734134632465 5.5814209092377896 8.773452582970933 -1.4824032090907955 -0.7329266375759571 0.2915211895082915
Ni 6.06277634440792 2.13845797437507 3.669799904042209 -2.511657713535068 0.29162583340695586 -2.391833764696184
Ni 0.569970096368399 5.130177523173779 4.345698159311857 -1.2876380308583308 2.358980208501273 -0.5365550340883211
Ni 5.46253600831696 2.9215666630721797 9.966011627401297 -0.013714007151982835 -0.18406244710297978 -0.7879819266788881
Ni 8.884440980532228 8.063701535782846 1.8200546932011261 -2.31246303877634 -0.5933712717464168 2.20564372972724
P 5.281156508571435 0.755106157987885 5.226920390458015 -0.1035817759484087 0.8676017924950606 1.105663062411999
P 1.038242237025797 6.514112783775721 7.950833461485013 -2.4178978087730876 2.1229449678754277 -3.0473802244197645
P 8.22054287931921 6.545620632438677 3.8096701860335345 1.225152767839916 0.23325639232912732 0.7123935506196117
P 8.016458373449169 6.93905930618896 11.262690805040291 -0.267950601277203 -1.11689801189587 2.6930582975351682
P 1.9741351452140703 2.13287477614773 2.390676162696048 -0.05843243310528001 0.39544569350809966 0.4653336767484889
P 5.464843730250927 4.257672525526575 2.9759646939341926 -0.5156627640203442 -0.31397360497453664 0.011852014242579588
P 7.413463659566053 1.2570291648945002 2.2742171614049975 2.2673247516768047 -1.7744339912456537 0.5529527587200541
P 0.6976178269070392 0.7177192015915396 11.99821482577882 -0.6446593804974317 0.05776985982061664 0.8726113298945101
Ni 6.337776773095561 7.162275571318019 5.137768811696885 0.5357060558244645 1.727023363172174 0.44535003453771044
Ni 6.867231460994228 2.693800091387838 0.963647917109419 1.1976890152020083 0.20040926389211938 -0.8124963668804844
Ni 1.354837492507121 8.495943437213143 9.038851771773622 -0.44599589565182546 -0.527537146860427 -1.2335654173836434
Ni 2.2019947702022007 6.470777860201182 1.5480505808954923 -0.8112277845807061 1.423607736219142 1.129800321779835
Ni 8.095590902991336 3.3301264986881747 2.9473238175609753 0.32235103040495455 -0.03857554628035292 0.3861197881214834
Ni 7.139189046647967 2.2328698563993923 5.476711748616176 1.7348698557997864 0.050902957497454264 3.053039479588071
Ni 4.813917259586096 3.429572564447482 5.409133647805489 -0.5685153890450015 -0.27303007268263946 -0.6212772541280654
Ni 3.9243090647024723 8.751170038845618 13.447729402226061 -1.375617067272476 0.08282577434797994 -1.5208052059077615
Ni 3.7671792559243626 0.323378841327542 6.751395916838564 0.2613300106368919 -2.3304183377031804 -2.6176383287329563
Ni 4.510954313109861 6.985204439537926 1.2690228052198647 1.2384633689058928 1.1358467850842309 -0.7127491341868177
Ni 6.584851905316121 4.929228913641428 1.2718665141836567 0.25484131758875467 0.7639963623975682 0.5391389927654134
Ni 6.793728656331295 4.91482426221489 4.7347875216430415 0.4549001401199908 -0.8800636724074972 -0.8559878624052161
Ni 7.473380681875791 3.141684253185065 8.248142489223028 0.06454420242997272 0.7473749517908032 -0.08777463371282303
Ni 0.6182052069204664 7.419065468454151 5.663037961991123 -1.3570236205410047 -1.0268399814655091 2.4520166048336676
Ni 3.5975709991081475 1.768236099920144 11.017475808362475 0.7444755187558211 2.5061892342213286 1.9986280162621965
Ni 2.978924719527721 7.413351995601506 5.6518287610167 0.3880360313075898 -0.4728739509895921 -1.2020097540645494
Ni 3.8657971472799475 4.778752416084231 1.2141948680943466 1.740489258869093 -0.14130731552364054 -1.1331370994625518
Ni 5.314637087274718 0.17275252795124552 10.192268874498183 0.8484553014735968 1.9658271676820918 0.7221151487827498
Ni 1.3328489968217796 0.25392013324727886 5.4781419778954135 0.13618799201920417 0.3934782853690837 0.9973823383260242
Ni 5.437374394972413 3.1346494234186166 12.983937778146105 0.9926635926941162 0.26116108915919534 -2.4358271395579987
Ni 0.6880472946123403 1.506886590898351 9.920020032003585 -0.4565050227132654 -0.07227319564311423 0.4648305118598252
Ni 7.04540992708941 5.4342478039651025 9.013315153614807 -0.7116823834852001 -1.3528602331919346 -1.8457556216087758
Ni 4.788290379722604 5.62016830493553 6.260147984942623 -1.2071190502666567 -0.2576355925044401 -0.5972071005527393
Ni 1.5600200273618716 4.5995968902992646 0.4127490953525759 0.18601211463018288 -1.1251749071926815 -1.612951486325719
P 0.7070748341711156 4.074413349044512 10.37243868129445 -1.7579362507009466 -0.6281282156116279 0.7205143799545334
P 6.628103080917249 4.624069909195772 6.857517626611695 -0.41240494707025743 -0.012755242783139322 0.7371998110300142
P 8.878932224947919 3.7159906335100317 0.6640916520848994 -0.9610606210768544 -0.039910977262324815 0.4624329581619262
P 2.3573007342260466 6.987372581516209 13.136460517853621 -0.04454230538674909 0.15487014180973974 -0.9297175879891988
P 5.532018910256208 4.91101838208992 10.776468682081996 -0.5566296933510091 0.5907500320734858 0.24682950302787166
P 2.9956650088793624 5.046457465754813 4.821270331651503 -0.5987268796313753 -0.5467389165998584 1.2732365107210202
P 3.018128076414028 8.170368537916179 2.970857928622252 0.42081373995924304 -0.3587665929195112 -0.006671755593220768
P 1.6555485490316617 0.8517364307745371 7.846523499536653 -3.7718155366952586 -1.9868935014340878 0.18194977163535117
Ni 5.101954456134574 1.9678819631994493 7.4374956058026 1.249052971496281 1.4741823638429 0.08928438548913012
Ni 7.995912203972557 8.869263986684242 10.489415058954567 -0.08149240024853707 1.7444158476170089 -0.5934689736665456
Ni 2.1926243025106484 6.184164379200675 9.532686585514899 1.6881727088535636 0.0692889162038097 2.5936399089358297
Ni 2.326835082565527 1.3845587177373284 13.327647835818505 -0.30456285318359805 0.5804591916704389 -0.04571832797272127
Ni 3.4519146626872215 0.6287518683719121 1.76793367668283 -0.7761792776170052 -1.1102686795048105 0.9065424354243162
Ni 9.182183636665899 1.3761373937444235 0.6876909004588284 0.39957565651607313 0.8581038803069544 0.9092202393667953
Ni 6.740306754626029 0.12807670626910747 8.217948553209572 -1.743222598639856 -1.3761989079178751 -1.1533205163889622
Ni 8.576183301070397 1.247816887819389 7.538659435549852 2.2681822145810937 -0.3185254860112772 -0.8256889543113586
Ni 7.615007810242654 1.3980142254652181 12.352452003708871 -1.1361131513717402 -0.011289199760574107 -0.835870779940367
Ni 2.2884133734310477 2.2068428473296082 6.6178997861567845 1.928513518833298 2.538366847395138 -0.1562978753952018
Ni 9.048512565772997 6.080530914770863 9.664794360904146 1.4624234235347588 -1.0640214756118127 0.22496047086892224
Ni 1.2421778576097753 5.5453534486891725 11.81329185622501 -0.14214395249232295 0.9237392589185768 0.7817269469081117
Ni 0.5057046931726001 0.8079669482713038 3.431407575598201 0.11799897981500324 0.48516999474812567 -1.4283521928826626
Ni 0.9469290300176488 3.4205929206318433 8.420862448517948 -0.6023181965270595 -1.0624934690030605 -1.1057399383965214
Ni 8.796403249817452 5.362503706743782 6.474706570687155 -0.3631045581732327 -0.7909314962255153 1.2596014364360888
Ni 2.200608275975745 4.409033029469766 2.6378117795640708 -0.7971761915836465 -1.3874672817428426 2.2555131037538576
Ni 9.119288908634912 5.338598313000387 2.024330888876972 0.8879857554680514 0.8139863211624496 2.235533575308137
Ni 5.612705429971652 7.357613066631893 7.383045465090466 0.8770593383635347 1.2037455058087334 1.028913833275402
Ni 6.209046832633854 7.281774624043855 9.95593395460095 0.5449579134400356 0.08984951396398073 0.1823603768102085
Ni 4.0684207162805 6.2232095454705405 3.4826027117437968 0.5843556985113678 0.08181095993022039 -0.027069602523282412
Ni 0.8106245506275177 7.979590654487966 11.108656879679241 -0.6947395849832745 -0.9243609516629758 2.537000563175231
Ni 3.297064659851942 1.4934962204831137 4.3791201144337535 -0.14328012297929518 -0.24422111887074716 -0.6171043536972984
Ni 7.5084617774042455 9.332688050214232 3.9709362141650657 -0.13779595993627236 -1.0907864024104827 1.3119681229632632
Ni 3.39625017636064 7.552783065998947 8.02131296430784 -0.5013268070136463 0.29680172118094045 -0.6752966457673144
P 3.4466943723446586 3.486167583811953 8.420018455052581 0.7733436079404229 -0.6843710972647569 0.4497131966024126
P 4.188012822310127 7.7496838568164765 10.027706898346446 -1.3142121818024335 -1.9232170463210492 -0.6809021648795499
P 7.290986901118967 1.4777516014820145 9.638999054560795 0.30417873037130194 1.4058182734462046 1.2501837426666147
P 9.15620315424801 3.0414658450043093 6.224288963794494 -0.10888339066698022 0.41662978378488247 0.49159158200375336
P 5.378853172219509 0.9252615682303795 12.406194008779172 -0.8331788349305004 1.0709230878276526 -0.509423982199484
P 8.09886637928471 8.649118480580219 6.2585000109325195 -0.15239622634795044 1.300873041491366 -1.9319055752339829
P 3.4107851024124822 3.332936708462603 13.013423578517726 -2.31970532216105 0.15509511333635226 0.1882109220537146
P 6.904322507884525 7.369244729605518 0.748573816061897 -0.6271496537484424 -0.15873939495715886 -0.342918570143661
