# total energy = -340897.88876604935 ev
CRYSTAL
PRIMVEC
9.01736110891558 0.00000000000000 0.00000000000000
0.00000000000000 9.01736110891558 0.00000000000000
0.00000000000000 0.00000000000000 13.19781947173097
PRIMCOORD
 96 1
Ni 6.445546620005076 1.7860957727121913 11.531621447048334 -0.25762607942274346 0.21240474569109868 -0.45443502755811416
Ni 4.705700892570337 0.1115636937370187 6.040404699694062 -0.5336188342781326 0.30631505998801445 -0.6399007827665237
Ni 2.7453446158638455 1.6118803555235814 4.675195159840054 0.403706390854995 -1.0814281011240343 0.9904316180398038
Ni 3.3915467497442884 4.409300231960109 4.98023715762895 -0.07722925409680893 0.2131213121421491 -1.1099928001356043
Ni 4.9941752927401515 4.589358899166226 2.4065957221406316 0.6491251295782692 0.04596052589051439 0.2716589033667257
Ni 7.214763594531845 6.022938972905625 2.624452462029434 0.4505323500695983 0.7789717527604778 -0.9068049450570834
Ni 5.031308785906957 4.6147067013255 11.514002425120548 0.3635421599312836 -0.7801413475885468 -0.2888140749897736
Ni 5.61628303765952 7.755949540597664 12.261539859999033 -0.4714490456176075 0.6536649264301517 0.5546286037605802
Ni 1.9061619362663498 6.46646689784553 0.2278290395714567 0.4129325374389533 0.30227020049467945 0.4571305721124063
Ni 2.7273910498378346 1.6472103764627624 0.5119760081310843 0.11325066649674043 -0.03550024978913886 0.016628352585300397
Ni 0.2628073834262506 0.11242394998959598 4.84140857075469 1.33292415638964 -0.022544975180051496 -0.010135802882421253
Ni 8.745433595645457 2.444705795518697 1.3717813926514757 -0.17874874819955022 -0.07582851709454037 0.05428730058865489
Ni 6.804419558580247 0.6689863002681483 4.842530330480273 0.12829779063785 0.09216659213293159 -0.23815254407916409
Ni 0.8519242108856684 7.328697952512078 2.302504715578779 -0.40953276772878505 0.360769739392469 0.5763785938431621
Ni 7.579200244929241 4.000417008512887 3.7385465289088877 0.9136394514804136 -1.148187823148087 0.3945393796437463
Ni 7.583528578275541 3.8264450600750064 12.529614284066064 0.6999303851555946 -0.5411321119360423 0.3405315579687232
Ni 7.733622554419662 8.83428165493942 7.072579647578089 0.1273554813292387 -0.0175223251544795 -0.11659412904767663
Ni 6.884728176876404 0.7062848111437824 0.5611422680006071 0.05412352131728098 0.36266978462865923 -0.7992104484048558
Ni 1.8261418735266126 6.5722766134403106 9.061754508745922 0.21090836365123034 0.13274271378308106 -0.043094002975996755
Ni 0.18174671721117347 4.958340299577236 1.3312249091966366 -0.8033465820604164 -0.22635992231961016 -0.11196280092325234
Ni 6.272386234069628 1.918470634219893 6.966310948301379 0.24804357794063092 0.5985276191363756 0.09178735441664193
Ni 3.424000232480407 4.344095693570314 0.36690830908535554 0.2626713551561347 0.0381644268848633 -0.2618007796257233
Ni 5.97833910471645 5.639818350230032 4.706949797087968 -0.16421070248437525 -0.08281471860438641 0.10322079306456416
Ni 5.248284529612565 2.6254317474490345 9.443185277944231 -0.18441648800828883 0.16237416349626874 -0.34798544314360713
P 0.16246940257008596 5.571133110440919 12.318923641073729 0.2987336480963307 -0.5036186883716165 -0.35285305564855357
P 3.9618587722862566 6.201672088024437 12.471847265142994 -0.10314880217604816 0.8254547268133655 0.2737558951050704
P 2.4826147817433823 8.517014820655566 1.3550731241986405 -0.13664230594780338 0.04504392761351597 0.45396194457643757
P 6.481958724280832 7.58623378661698 5.819354010490136 -1.2548137852394583 0.3100411026893499 -0.844062828832856
P 4.644653357665218 1.0436513434045205 12.574367447394588 0.6088050898029838 -0.8102762193007141 0.3168516978532801
P 3.9872336265289454 6.125709837796856 8.121040851413687 -0.9255709128106768 0.06151801400913922 -0.44172735018345866
P 4.787849052538672 0.9505470896533613 3.8622890705990605 -0.590416302883151 -0.2537452563110985 0.702898209534667
P 0.34780863645868915 5.528066193645226 3.5094586657225486 -0.8127233952896261 0.1999968589450491 0.4964391399040418
Ni 1.4790005217921447 1.072966784464571 2.6145405786664053 -0.27175326285274487 -0.1376730612051629 0.07119307520505803
Ni 1.799793144281006 6.525674891078471 4.8707077805646914 -0.14222571357285183 0.07105372141371634 -0.5074308630288551
Ni 5.883332187765146 5.4943322456274934 9.273091696531857 1.0743339132814145 0.23923112185532347 -0.2968973662185403
Ni 8.581534039598864 2.239876437266147 10.185812759683005 0.2020228882361424 0.843105092905277 0.04133973928905139
Ni 2.2638085137267354 5.186145894009734 6.912107590500098 0.25125591423034144 0.36117417391973927 0.8190390530950089
Ni 0.40319146509683634 9.036568117351019 9.250945959312732 0.8653024549379228 0.19096868730450983 0.025390157938330465
Ni 1.508884056603897 1.1546280069314472 11.511283690737402 -0.1919215381360824 -0.10288295010917119 -0.6876641661937317
Ni 4.136074189474867 6.831101930187963 1.5372157035637777 0.07993045507805589 1.2722054983533444 -0.771458217992252
Ni 5.602342197339976 7.634061870093604 7.896585206644003 -0.1688379168437415 0.5317722679876971 0.6832709222220426
Ni 5.076521834653526 2.824093230683107 4.88398494310447 1.1994486782055924 0.3467579984944093 0.5260150537889458
Ni 0.7103056524752731 7.659328516002635 7.003356973065145 0.4393922742923787 -1.019843752653334 0.1293339452118482
Ni 5.141699320959907 4.719389246778014 6.840047152436986 -1.7108436680885182 -0.943048243659834 0.6664271111918265
Ni 8.250660007357578 6.996290968877309 9.111022664796305 -0.6523850312764635 -0.023960110360023254 -0.11924133686253659
Ni 4.483422940515511 0.38032073204220535 10.366636099113633 0.25368843493123405 -0.32487791059186627 0.0077449340527415
Ni 8.345026691668075 6.995434319569187 4.911304842144653 -0.4692630937098821 -0.1805454350886568 -0.6340083285414887
Ni 7.146105406826148 5.855107847402809 6.9841806528688055 1.5787190475054103 1.058485376284932 0.3220514968866647
Ni 2.3823687779708265 5.306545699926003 2.6076783668402905 -0.3240423020644484 -0.3259994257908192 -0.11811647922947399
Ni 2.3425841806294114 5.368792543862492 11.215982246449911 -0.4816563251679124 -0.47417338652730595 0.4433846832812235
Ni 1.187902069531135 3.2730045202224733 3.812560127394519 -0.5029309182759725 0.4982633375969742 -0.68761248702019
Ni 3.8423065983169713 2.6760552128784787 2.7554143030467912 -1.9408147047981543 -0.2977327176356421 -0.5324127297851734
Ni 1.1211735971089969 3.350039836425491 8.099263924265111 -0.7738925384653574 -0.06274314466549195 0.43752616761791746
Ni 3.6934299659264975 2.7452183728079116 7.08782259484598 -0.1395257981431855 -0.029267638615865718 0.13235422009541079
Ni 3.9541218764297437 6.789685190480547 5.890014954104611 0.711336055889375 0.026676995070554058 0.1236824033530257
Ni 0.8764929130426087 7.424516431965813 11.37489700525935 -0.36849307617865573 0.206128939984716 -0.32870294076491136
P 0.22031577427116944 5.4959463532712185 7.751250593708586 0.14471582698455723 0.606040382573653 1.0614773690337203
P 8.548629688805839 1.5985256436780158 7.999198267715317 -0.48688183523290984 0.6277253237462544 0.26614568685798035
P 1.9355855856600577 3.4174626456552653 10.28506054157757 -0.7572305044286443 -0.6017489542871508 0.08000887372447511
P 4.098787401168712 6.141923053123208 3.5972634163328308 0.06267860997614366 0.29308904821604365 1.770723632273602
P 6.818865371123526 3.7792391745169125 10.413951094741499 0.6130746637126152 0.5292214765413854 -0.2329290908966956
P 6.437818741509702 7.682548220933311 10.166478635666747 -1.5238648186696917 -0.5574401050674465 -0.9544076345367113
P 2.372043899467671 8.467689855230013 5.834148794909461 -0.16948763461259841 0.4010576403782384 -0.9811301381332201
P 6.906496086663842 3.8748863241090232 1.520494810805349 0.5171159515271029 1.1232586640065751 -0.09011228070706416
Ni 5.278862401231954 2.775480636787465 0.5049397612350041 -0.10265309348655223 0.29114503711579537 -0.1675287111140147
Ni 1.5345835358475584 1.1741415764343537 6.964264909059138 -0.587047386410918 0.005508331412738901 -0.1265844074911691
Ni 6.722550936807193 0.6576541825258644 9.171099029906847 0.3079112008305407 -0.32082353801683455 0.18732337724243867
Ni 2.615503632835957 1.6419803070026489 9.1915558153848 0.26496580761726624 -0.11165015477883998 0.3259724292076257
Ni 6.269897442395504 2.1461860550410092 2.73696388042207 1.4383635543720776 -0.3901826453369474 -0.25504392051786395
Ni 4.082844706676504 6.918498194338689 10.183292407244897 0.40894655620801185 0.5247284737670382 0.5166284703677232
Ni 8.070240645705935 7.0798909239888825 0.3664159611672138 0.22021215755065945 0.25694859373974455 -0.2019005037256652
Ni 7.443101213271492 3.781150855078195 8.183532065837019 0.7922003356356099 -0.7573536602700699 0.6176615117523492
Ni 3.0925941759319704 8.485381917783018 12.368745463097994 0.5772828508249864 -0.7715885729225291 0.343842367509511
Ni 0.13507195422411528 4.843729639511644 9.938407029080675 -0.29770289283897117 -0.49813709643175497 0.8638081297805833
Ni 8.568467883309719 2.2986876666090095 5.771103012776134 -0.06206977274755116 0.5806587092757548 0.2899247915554491
Ni 3.6707963894697997 2.634494195392852 11.50566136606778 -0.5045519988191633 0.49592466216146847 -0.2760891712239374
Ni 1.1706067708682077 3.3588678329797172 12.534721717414698 -0.49454937908049673 0.5805088139614518 -0.3987899273899842
Ni 3.0336747382554496 8.53519382071003 7.957492972451481 0.6704344325790067 -1.1775037985033852 0.4446967172244277
Ni 5.707547749738502 7.827637561645773 3.5638730297744607 -0.6535047467032036 0.11692811534832766 0.397755829698515
Ni 3.084226064795789 8.25607944140159 3.6347458813756823 0.463018398351751 0.10342545287620253 -0.22329079647598318
Ni 3.73708301119617 4.377721433254389 9.409702012566138 -1.086959572465225 -0.10485652889577425 -0.7371481318564724
Ni 7.16559192424564 5.968203590797196 11.442140369002473 0.7513413926377189 0.2330854139689018 -0.9196080103590227
Ni 0.5135612602191671 8.996215426257901 0.3754883282082832 0.3667030741577685 0.1445098816213382 0.047414741838537694
Ni 4.683211593891849 0.4490447464842112 1.7943358373202116 -0.6054109765197702 -0.8170863002440121 -1.2364517377925026
Ni 5.97337955609048 5.597130162602139 0.34925502118524465 0.015225301590186683 0.1369716642627641 0.491394892611915
Ni 7.83453584291644 8.669768918335436 11.379714079579335 0.7765716279594175 0.42889291742295166 0.5769138975213419
Ni 0.11309664513050026 4.768182187896417 5.657746667644855 -0.3305705901012694 -0.5156293396792474 0.1774642250601718
Ni 7.883581270146711 8.7778690436593 2.622802284941157 0.7347004416469283 -0.01663837988762941 0.4640005597593622
P 8.483957174723194 1.7008817099568931 3.547745479378921 -0.3962604760999111 -0.016584129610926278 0.08655258838026385
P 1.8173769985003534 3.488384191006632 1.5107019566093434 0.5078934044875704 -1.6891363583184138 0.43161674411201795
P 4.652110715326449 0.963676367470474 8.11081245867471 0.425684437787983 0.3673929011359414 0.22551480071049548
P 8.536771858909203 1.5392004247502795 12.38375125376795 -0.2654841420145815 0.6235061434585842 0.3920428384741377
P 6.325236987700189 7.8335529505523835 1.4021762118397598 -0.6851475704194652 -1.247958967101154 0.06428734922416025
P 1.7798557588046076 3.162722193503183 5.985145408903508 0.38748787211360364 0.07943706038140513 -0.4914195752022634
P 6.916532409610578 3.9141479145044276 5.9689908064245545 0.10571630579290826 -0.8391170547918064 -1.15950299105059
P 2.397544996766294 8.528836581107651 10.206137891688341 -0.43473883468076746 0.03731853394480024 -0.5440474858106243
