# total energy = -340890.88729289937 ev
CRYSTAL
PRIMVEC
9.08037609086388 0.00000000000000 0.00000000000000
0.00000000000000 9.08037609086388 0.00000000000000
0.00000000000000 0.00000000000000 13.29004826746091
PRIMCOORD
 96 1
Ni 6.446640245708881 1.5347197647287731 11.308063847218925 -0.4638100410151109 1.6542626863696799 0.6157627520677394
Ni 4.675494728743662 0.5601965501132365 5.944545390040479 -0.1285209623922496 -1.604011760633928 0.18123474784619756
Ni 2.7883292464857785 1.8019370722839507 4.980910454393591 0.14392032766645538 -0.8653263661973226 0.002791189591891967
Ni 3.719630778953976 4.464021850000542 4.939884407184639 -1.1044649283388397 -0.17932698930052343 -0.13671352550537097
Ni 5.233774411464452 4.422079592844182 2.7110897513951895 1.5789373341638033 1.2803798066340206 0.33032530685968275
Ni 7.200602033153544 6.12801892911232 2.5624412707009347 0.4087262126670896 -0.2279483498526526 -0.04930681665492798
Ni 4.8284445835914065 4.897782335409108 11.344159250211401 1.9303120054946177 0.9083064693032744 -0.9052468565413442
Ni 5.890648817762589 8.013885917589437 12.343344766285407 -1.835683839195071 -0.11746213347492675 1.8701322506809275
Ni 1.6957239131677038 6.787898939896006 0.21763663803251954 1.4837540666917348 -0.6096324708002856 -0.5145384206079138
Ni 2.577037975264444 1.8341905681530548 0.49527912537579344 0.6212152905418786 -0.9329147547702579 0.3222540998157741
Ni 0.72400925887658 0.094892654245748 4.714857251053059 0.1731833382966308 -0.41004184615471967 -0.13545471339760543
Ni 8.998743508232177 2.4498128258776153 1.3200914552946303 -0.3135246903625762 -0.5280441684038325 0.3563752098691991
Ni 6.897235748386963 0.7593509906536463 4.675850679486361 0.42922021885538336 -0.02606095875310996 0.419060247603246
Ni 0.67725803454334 7.24109143013562 2.1725371857283484 -0.7874661633847342 0.9554746423486448 1.5421525612352862
Ni 7.87500156530398 3.632041471196832 3.899685556428205 0.13970423270257876 0.03222517858229289 -0.3467250883739448
Ni 7.712998575495229 4.100361868001177 12.835648252416746 -0.38406547669561597 -1.4132922132257466 -0.38944679561218737
Ni 8.238670627679435 8.96065133053767 6.468625652296233 0.08402339420050692 -0.10511518187379962 1.5819889765059336
Ni 6.724563316673314 1.0285614407604196 0.4613285072156041 0.08693902518540511 -0.9529912138051588 -1.6603549153103467
Ni 1.5253760577329094 6.588239630445033 9.581327725593521 0.36647013221135594 -0.5543205856018584 -1.8525505330434224
Ni 9.39210540041956 4.88499716587541 1.24096505805269 -0.22819903241087794 0.531164459200369 0.7826790264087359
Ni 6.428152599991119 2.2333457402853947 6.989037442611923 -0.24216732166551197 -1.3897766466023098 0.5994768704235224
Ni 3.457216990350025 4.429225848826441 0.10834886357244426 -0.47862499454075635 0.47376303846276474 1.2609263258950993
Ni 6.02885214184135 5.753044798505719 4.916454312761484 1.0046685875747923 -0.3865103386916827 -0.8912027197434522
Ni 5.28914654485685 2.842911387158409 9.171542157173468 0.10782615304705948 -0.25779525801075603 0.32688079995450803
P 0.17725802163873255 5.599205066801226 12.37560007822973 0.30465387023550755 0.11313753795764386 0.47593304953089
P 3.68414466919709 6.438377103467642 12.58317747563055 0.9895913815266957 -0.3326696387221432 0.2989156822001497
P 2.3262198269264966 8.632686306945244 1.4311653397314659 0.1359563356243723 0.715744983590348 0.23942241193052313
P 6.408393701620856 7.957178968911917 5.963922004577383 -0.8623330878969535 -0.3203172878043774 -0.9848793207630071
P 4.612703928086328 1.5313691059518306 12.725753000796297 0.6368005465746452 -1.6380536807099852 -0.07722745432459603
P 3.957700079262582 5.969348437328333 8.330653929426179 0.4333838633147698 0.5369486699823139 0.3144250906896585
P 4.885115210764569 1.1647580017234518 3.857568956050931 -0.5897601573563906 -0.5785452624771777 -0.7085222405896636
P 0.3412568781119061 5.676805960860168 3.621710727320064 -0.536690788335237 -0.08374468661782351 0.243259012067794
Ni 1.719623463034675 1.2650144341251341 2.915703314040471 -0.19393959700737565 -0.035885658153015615 -1.6533684566901847
Ni 1.9242588185825709 6.302661802437341 5.080466789798791 -0.07609359783046894 0.5131397404881743 -0.44347955698787495
Ni 6.0934953392208975 5.340886527813538 9.01485209541455 -0.3830953994728628 0.18004381286188995 1.4078497020539367
Ni 8.598126395549464 2.119278055851925 10.105141024792252 0.6708622641450446 -0.8536479014181299 1.6693882291572089
Ni 2.2674607132527997 5.04563809927077 7.3507651205794895 -0.47655782759908255 1.3087311040832044 -0.6706262368748386
Ni 0.5423100252925831 -0.33933183838097986 9.222828121325692 0.0645945960519339 1.8706834951987072 0.14867866828704718
Ni 1.3850842471536144 1.1525539762594665 11.631809220042665 0.5593915723668624 0.13470935059114866 -1.5687511376594208
Ni 4.077996901693294 6.968907156859609 1.4220350215737003 0.7732723883828553 0.43078370668776134 -0.2769808298002714
Ni 5.566915249427765 7.58690847311956 8.02754825145336 -0.6717968601441722 0.47745668526426804 0.24347601317460646
Ni 5.587827355561364 3.015275086085022 4.90578214674376 -0.5523122969225779 -0.22272875332492612 -0.9497742495297579
Ni 0.9668239637294406 7.415207641647463 7.194248494003878 -0.7663746328217576 -0.8409242832038744 -0.5184467545233846
Ni 5.039926542710615 4.608799366367939 6.9290461219029105 0.7061285435465064 0.659286129271671 0.4703069615933642
Ni 7.945156550969717 7.190450172685734 9.149706576791587 0.5391608471422843 -1.0121785227985924 -0.31462460829497424
Ni 4.603968606288445 0.217080010978247 10.439067315287286 0.029874161851613065 1.160748690532233 -0.408205050056297
Ni 8.210276291648272 7.326864662674909 4.700051697839497 -0.09009068344050936 -0.6362418458576978 -0.5215891568071082
Ni 7.284895164390281 6.2195763612204775 6.956383502157282 1.2419778098170544 -1.0507193591862678 0.30186936551183496
Ni 2.4794239323047402 5.637179199606574 2.6364926457465794 -0.8048254805987882 -1.2509237061564327 -0.3986788557334166
Ni 2.3520353361483046 5.235172789382201 11.244908923480411 -0.664180738359811 -0.3823127556705674 0.7469358073708555
Ni 1.4241571054657638 3.6232425867663247 3.930226493366872 -0.6129844179916539 0.45400976709523744 -0.40906739805659226
Ni 3.737500959097669 2.7835166471584625 2.918148659321313 -1.2379679173267129 -0.659428054166174 0.13958621906747573
Ni 0.9917405157184105 3.2010141789911377 8.367706404058463 0.8293854293263394 -0.315197964299941 -0.43210113994760424
Ni 3.7622086624365854 2.7324758531606492 7.033970775652089 -0.6709036589059413 -0.7340489241058583 0.586741425134725
Ni 4.190675288585104 6.832156692955131 5.958313964304645 -0.4152357316508333 1.096281621197099 0.4998695057418294
Ni 0.6678335122002816 7.545819771315592 11.527694535840649 0.24334334425148416 0.2712971491519328 -0.160737142113478
P 0.11114380333272303 5.394451666364169 8.155664185734548 0.1318204590791278 0.8827481612181959 0.2559623185670753
P 8.506387355919522 1.3642720251569966 8.028890331039355 0.19765047020005957 -0.14540128308735603 0.656414721261147
P 1.7592411439121807 3.039783021149975 10.459294761063754 -0.46222778412965554 -0.15767547246901875 0.02749280610363007
P 4.282786623634707 6.115814903648335 3.636250225514211 -0.02414085891226165 0.8900490657549832 0.5164222678941881
P 6.80337190075213 3.624286830016591 10.487894313594536 0.19213828213257875 1.2402497713823544 0.7575547205372825
P 6.19499578314681 7.59003212249427 10.266296815511874 -0.6674028448415344 -0.030861979686179104 -0.826431488904338
P 2.4783161264218485 8.401191198925273 5.816349548449707 0.4640998043413878 -0.031050184437585233 0.10516300439259953
P 7.284831601757657 4.010411662460822 1.7668450508493396 -1.3025280605962857 0.0902853159498187 -0.8908797891863948
Ni 5.0762752881959825 2.9429226494056815 0.9574412111163929 0.6626838420993103 0.14120010052181486 -1.3313303295399588
Ni 1.5113196355467122 0.8751829921612618 7.053281103443541 -0.2508383670769487 0.5714114796458739 -0.39890536992192593
Ni 6.688014802913984 0.4417739173073509 9.125757992893734 0.8305840776201308 0.5099392312730057 -0.7098121630456808
Ni 2.6071666631286576 1.25317362370472 9.113251590905977 0.6744666936668513 1.6561074528879027 0.8096915504418377
Ni 6.4928593600032904 1.8428532469422227 2.496854622245712 0.6936538081182634 1.3620172171008542 1.9191025099320433
Ni 3.97123892001169 7.057513466738752 10.504015613303432 0.35948778735625186 -1.2670573784935018 -1.1136697347665594
Ni 8.068758630296925 7.187489970080631 0.34932660834244456 -0.1720271132050005 0.023514795292488535 -0.26152670002873024
Ni 7.795775283925058 3.5193994058093785 8.482133671385068 -1.4474773437478878 1.5805769266497554 -1.3771049646719122
Ni 3.328992999593376 8.720439061471996 12.53501425281543 -0.20479325189242795 -0.14274327663921868 0.6961053549825496
Ni -0.18492821532134293 4.769512942772013 10.426255812662928 0.44750976119319064 -0.8513074262104113 -0.8914642009349549
Ni 8.751766358979992 2.4495676557232047 6.164070746299568 0.4633356724818537 -0.07137125265413514 -0.884398295227109
Ni 3.7619998137865323 3.0122967227277404 11.48470167917076 -0.9971866773754503 -2.102940756839359 -0.4758523168916256
Ni 1.287442963065643 3.4392015241889036 12.579881299110143 -1.32011980553612 0.5848123264328122 -0.04102709314463902
Ni 3.0411813990677232 8.216623474534675 8.169751481199448 1.0534434429856503 -0.8374391528687513 -0.5059895025966382
Ni 5.565889166929677 7.906328862811978 3.655574173869796 0.2417037517655321 0.653971659037293 -0.013178960584119237
Ni 3.0025625595600376 8.066334169881088 3.4927312492727873 -0.1828961947090205 0.3383823728362043 0.5993508863686194
Ni 3.2585837633971395 3.9807369934010715 9.264479806447195 0.3490853610760053 0.8110421509324612 -0.3771124424165505
Ni 7.192202685270964 6.069214413558177 11.499067742181602 -0.27760406520656705 -0.06396518999805112 -0.3994548146674927
Ni 0.5885954263324434 0.03436922349790496 0.19425012941459238 -0.6774417171347753 -0.28152833996163773 1.271374517811617
Ni 4.47055972078482 0.3432073428958823 1.6323365318013034 0.11645091860159298 0.7027732539210284 0.11188283961493634
Ni 5.779532255558133 5.540373310118815 0.19692884036092845 0.14092139293913147 0.3712063613447607 0.9864901168935525
Ni 7.783652981845877 8.695940206783133 11.29307214629553 1.7000812873656912 0.7410487524624593 -0.11454033184244146
Ni 9.180805048822137 4.856993286016086 5.768624907799697 -0.21795807140916013 0.3053059019972097 0.6491642103463207
Ni 7.863687416696743 8.8133948714979 2.4595896668129376 0.7505152971919977 -0.2765900221197559 0.27285086679229786
P 8.652227276289363 1.5108746971183378 3.488517954767364 0.1254127557805711 0.8510940246480245 0.13569125488844372
P 2.0600376822454964 3.5856589101328162 1.6900159887579858 -0.14142867159285322 -0.5884123850792446 -0.31712474900900867
P 4.815468726159833 1.0133518108108843 8.073797330988864 -0.8915518755527548 -0.6672478073209089 1.0081840569272187
P 8.48224263589814 1.6275575298655183 12.460457100821612 -0.34949570914054645 0.011537054105322065 0.10472257442107126
P 6.2383999808535435 7.976556491486429 1.36087414842439 -0.5193939489280023 -0.671083121906599 -0.2592859836236696
P 1.8188538129382696 3.371970419623913 6.1178607123812485 -0.08709689091950806 -1.034259928078664 -0.26935519493421356
P 7.066857173734615 4.088403012691602 6.088304088210659 0.5382856436261826 0.5231143352023829 -0.026741529759902332
P 2.452309929302166 8.597508929975394 10.416726865994843 -1.0853269219578083 0.12810907166581162 0.0014675856844619886
