# total energy = -340860.3895689795 ev
CRYSTAL
PRIMVEC
9.39526455991763 0.00000000000000 0.00000000000000
0.00000000000000 9.39526455991763 0.00000000000000
0.00000000000000 0.00000000000000 13.75091937132943
PRIMCOORD
 96 1
Ni 8.803485044874488 0.699243505493828 4.206007217447998 0.15542627142352589 -0.6675396275297149 -0.3981731197415917
Ni 6.23139983386352 1.6948493576770955 10.213371330370551 0.7998521957539128 -0.6045193179434364 1.8136713394797217
Ni 8.699498256562403 2.090183300448678 6.4532380024204805 1.117743647725617 1.281304118220503 -0.004687121063024186
Ni 8.791280596192035 1.396418173728321 11.678311987221074 -1.3848910363752343 2.5917257226322525 -2.529229146759928
Ni 8.835795359746664 9.18808020023726 6.593001958232783 -0.8432925263257347 -0.6949488727806031 0.9376723240599012
Ni 3.190988869600615 9.548125529266505 4.19862347901879 -1.4203144101798508 -0.806990606570907 1.3175415032859825
Ni -0.045942843769975705 3.9550493658684074 7.936521973826525 1.642041975933772 -0.09131992786192014 1.3644011439519985
Ni 2.6591041515012566 7.476037508388578 10.545772972441842 0.15948090110887372 0.34921160224122433 -0.3533842455616753
Ni 5.079051843255124 0.7722907480351744 2.826528705747748 0.26917213238913 0.4148930035994339 -0.15616443514113104
Ni 4.134668034006321 5.5728857398272025 12.770314193466575 -1.4912318631260189 0.8453396386627506 -0.10106055218845175
Ni 6.353547668598378 5.330835538590825 3.7565170906152923 0.06497460509917197 0.9851243468942775 -0.5253226557076114
Ni 1.854446717006457 5.441483569486327 9.15272206153707 -1.346314718763933 0.6697062961637305 -0.14030227129789383
Ni 5.790376719465478 5.649654446666562 0.7001717576338021 0.052258957304716455 0.8947323301632655 0.4284288333023396
Ni 7.148922581693436 3.7077847927931065 7.585886941795236 -1.3883077753662671 0.14141041676040805 1.35161530504124
Ni 6.05764381082018 4.536447128276104 12.013091570756202 -1.323444756144295 2.3775859965279182 -0.9275709739598412
Ni 5.111991640853802 2.4120086931882994 7.322130860812075 1.0306441857029476 0.22601590871663013 -2.6941227342439404
Ni 8.617139367301133 6.867412269243584 7.296307036602227 -2.131181239742291 -0.8269963602688725 -0.6371826125044123
Ni 7.739151892801292 7.903850880794681 12.944221480269567 -0.7623742534131128 -0.3147847880219224 0.8388051799783425
Ni 5.072578505963199 3.4229579519484066 0.039880079539962345 -0.6088590829693707 -0.15011771472641888 2.181302324768398
Ni 4.918082775297866 4.390266206759325 5.39587425760875 -0.6770367683868727 -0.6995596320797371 -1.4439029961330683
Ni 3.0002180224126076 3.7842434559015037 8.103114107631702 1.3441526781156077 1.5291528065415083 0.4656959451839141
Ni 7.328635202477096 4.301246074914637 1.9115426793529844 1.0076760069425486 -1.1118316531165562 -0.3982147716128045
Ni 8.01465863118795 7.670087302913134 4.762740531294358 0.3078134989104118 0.3900764587763863 0.8364302519882627
Ni 3.8953518547611625 5.977323693971608 3.6475968488750663 2.346779552670023 -2.9472941203294405 1.0227840662285803
P 8.96460443706494 5.767348925993042 9.180801688771288 0.49600153814599085 0.6677730836967596 0.18528963464186154
P 1.3501183099045089 2.5304923747390484 12.39934123221057 -1.3733349561065187 -0.983407621313487 -1.9380463980243978
P 3.548037109230551 4.896689757861417 1.333052751331138 1.155623710600842 0.5815974190399403 -0.505135125016143
P 0.696240778935774 8.013747290524213 5.2735460337940605 0.817535986186921 -0.09301042819046561 0.008689043133565682
P 4.826920523130162 7.733824777787472 13.172679552245816 -0.11425185406774518 -0.3909722311177783 -0.8327715721897528
P 1.2339646539682698 7.104971534013284 0.4466583940899102 0.8918802054264512 1.7996274597921458 -0.2953256508560462
P 5.213469893524457 1.8462916273556718 12.488075748012188 0.9641747412258039 -1.166711078763255 -1.7092896933378368
P 4.779991176579849 2.7513656496241934 9.282997739655446 -1.9935104925299731 1.6298017251138386 0.6554988943150969
Ni 4.307644250089965 0.13261321994454603 6.1404179707756485 0.8240699306506969 0.37049185177623933 1.279964573473473
Ni 8.975352619738326 3.0766297091981314 4.251825104199131 -0.546322140777414 1.748977498845762 -0.8937671380365189
Ni 7.427304271039936 8.453126233621694 8.85534502627357 -0.998137471324494 -1.454772077637088 1.8929335648461596
Ni 6.322035951215046 8.185887328060714 6.813538882646156 -0.3542697334904222 0.7584288956121196 -0.19713496401622177
Ni 3.217671420992585 1.5650913586367818 8.141369745926712 -2.683016082807818 -0.6177368450749748 -0.012930077798106765
Ni 0.4158945397667183 7.387365001333153 12.29498614952716 0.6157678942740622 -0.41586076682934187 -1.4294487683809511
Ni 5.8870445966739195 7.154578530967368 11.16556824163962 -0.15201210353565434 -1.1204993560938832 0.16620382165500408
Ni 1.7128694751312497 0.5658749062774812 6.458793422363463 0.48530652032599003 -0.9532393252602229 -0.3961717730408467
Ni 3.597991730973897 3.1826458746583373 11.713376993666532 -0.254178230083459 0.12178235811683541 -0.6268411213690882
Ni 2.2402162804410586 8.744783431812154 1.8712116271134394 -0.2950418010670403 1.8995837231728254 -1.2074944313282043
Ni 3.734580087359972 7.193287021014873 6.673665002238331 0.6793456190257074 -0.13595067919741746 0.1234317207948003
Ni 4.323259179813012 9.411988145580011 11.350105330782357 -3.130898911069711 0.37895206672845055 -0.7105816942218537
Ni 2.602770145111732 1.259670097844477 13.703299667733429 0.32883612390866596 -0.19615897325619766 0.3062736652271177
Ni 7.3262769910688625 1.002390172732613 13.661194789542193 0.22371117184285344 0.883914156501839 1.4553382345532033
Ni 1.3914292882391885 7.138606581190484 7.2356512085083695 2.27478455038896 0.042383864282849584 -0.8733186403741798
Ni 6.319273743430102 -0.10301813653443898 11.91162365287658 2.87711663087309 0.9586430127742973 -0.46129704478527
Ni 7.050366256305493 0.9889831301846058 7.973154110403035 -0.11729166933533347 2.1228827471789247 -0.7689871307439401
Ni 0.48324637292291966 5.076054753855815 11.275808518052585 0.21222579691107318 0.7578403700985012 0.3161042781642943
Ni 1.744888536801613 6.107560851505228 4.369629508121134 -0.11968022417216806 1.037822705729258 1.2545952414707489
Ni 0.24885707042070174 8.131329026675797 8.999729573203679 1.5926238305119602 -0.34785328844111707 1.1100843314081463
Ni 5.215912662313864 7.97454085145425 1.5872406948714888 1.2846262406152005 -1.2031821771060955 1.0776596352205374
Ni 7.55755082383813 3.2061528266240797 12.585776164797382 1.8087057679443301 -1.0072528033622008 1.1417227842490336
Ni 5.790912249546232 8.210559292833711 4.31321000482398 -1.3088704578745458 -0.05233069108291633 -0.2785029228717526
Ni 3.828053574613037 2.30051508848108 5.059252262690534 0.6367972041405355 0.27258861426984665 -0.15872371122787504
P 1.6359128630003967 2.9656622393070924 6.760515767492734 -1.4874011765260189 -2.6881379774154155 -0.70277248259008
P 2.410900051968492 8.987077909927473 8.814820431583787 -0.8940623006794343 0.16982059247198494 -0.0795509602514501
P 7.8547982044505 5.742874261776112 12.85272287763009 -2.526540287073855 -1.7235937686653349 -4.314499052278821
P 8.757626758485683 8.863577157093868 10.86572870753111 -0.7253495965596476 -0.8942137386556341 0.19007677161785974
P 3.731705136400133 7.857908037024706 3.1187223735454213 0.28552974781154694 1.1965932110346684 0.08223724883436159
P 0.20314722921217704 4.177266163587726 2.383103222197971 -0.05349308682213368 0.32586469998516787 0.4024100406410747
P 7.0381712028876136 1.0681100484322 5.5345934600003535 -0.7100713302443383 -1.360319003462825 0.23579561381121325
P 7.265686929827027 4.123450088104204 5.58239186852382 0.9951665616216281 -0.7535803092705666 -1.8877983005021228
Ni 2.213853168044627 3.595069803691185 13.854876289695422 0.6123282724648939 2.113664056794134 1.6809947030478856
Ni 4.6117125927835225 3.6252379982403444 2.7162461506441993 -0.1408712564274864 0.5372538599275586 1.1049300409007166
Ni 0.2910155016200136 4.973073258853217 5.675348616225279 -1.4783280105801573 -0.37568110928666265 0.7452123969218456
Ni 2.2062242132100214 6.410793015651643 2.1320251112318247 -0.8639428555862346 -0.9762003049317703 -0.3226549347986185
Ni 2.3235428819535158 3.9010359898288183 2.9650280589483042 -1.1910712527751746 -0.24463480936939808 0.0784746964681358
Ni 4.96301093049378 5.084754768851929 9.759013516961726 -1.6836712214387843 -1.5284830341679936 1.2656746392133622
Ni 0.3143740084054765 0.33467247751898005 13.232262441125249 1.1831057180711946 -1.644417418144484 2.3358703619566867
Ni 4.921183212607495 0.37595620958639325 0.26702469352867764 -0.4110108949362083 0.9667604996751092 -0.05608835835313566
Ni 1.2524827204448796 2.987008280420668 10.197874780981143 -0.05386589678052014 0.9725634795101314 -0.1648169686098065
Ni 7.731222289500298 4.407036754025052 10.446394561403618 -0.026389031516490035 0.09911911219136478 -0.8707737624651392
Ni 5.016892772829324 5.240518860234839 7.357732336864747 -1.2853659469947025 -0.0919123100302804 1.483755609353632
Ni 1.7238901204772992 0.8676564415735715 11.04264811615673 0.6345829700980362 -1.995125402425577 -0.2344560690641833
Ni 6.718036957771427 5.94114253009468 8.703864236010238 2.1106085577972618 1.3909693813588302 -0.22242973402726854
Ni 8.892336061956831 6.059795326407773 3.3584284562704263 0.5395537117053287 -1.6202978993884611 -0.2879445279006267
Ni 6.67991097412755 2.705338248473046 3.946005484188862 -0.6813091705099815 -0.6554220183305745 1.0990692112445652
Ni 8.860570672429983 5.929858817340541 0.7173068411650254 1.389877176735916 -0.2894501659118757 3.464417013835079
Ni 4.668384828697734 0.0884601740760387 8.81946826896886 1.5988656976566142 -2.0031266754634984 0.3132570385234863
Ni 9.354310616356315 2.697032834589067 0.8709654537567586 -0.45291113471441996 0.4415345174463622 -1.603278224902013
Ni 7.36231722597717 -0.0689856696657308 2.2906002657754656 -0.9843877258385693 1.4573632354030321 -0.31287471548340307
Ni 1.5399026543121794 2.121281626190727 4.683137273132829 0.5226211976160483 -0.443843625195513 -0.20623024144927063
Ni 2.554995224749702 8.409936202372085 12.779719792832244 0.6941821698179077 -0.5003371894068674 0.8880536325915093
Ni -0.13351234676433882 8.089961676753669 2.048983186235979 0.7419234417579288 -0.5966563702555918 -0.3001269288994315
Ni 6.683979123688368 6.041258469402014 6.004861214439869 0.05657121152682515 0.863535849955803 0.24420414958988262
Ni 0.5976008356931158 1.1619311604745266 8.627973046882149 -0.5083664874692471 0.4117292611594715 0.04989559927886246
P 7.1626302727078315 7.248465409861717 2.737395830728165 -0.5036546838158745 -0.5245711222535675 -0.6075136246850699
P 0.24514875949309245 0.8074995020286271 1.648501578003953 -0.5696379326852189 -1.4932661199472281 1.2174230032958258
P 2.4191490942650233 4.962484795677601 6.257520548433927 1.4694921574560822 2.4907551590544457 -0.21215843400824752
P 3.0029708349329765 5.298525223718649 10.921585434480242 -0.34916377972242446 -0.38846591975615674 0.3024121253891824
P 4.938038317254395 7.249771351637592 9.197481101970642 0.23147050407329814 0.508228419229486 -1.0301824155751806
P 8.071734863478873 2.553858397736171 9.41584584121436 1.5860518337213976 -1.1896103519589318 -0.6126632872068094
P 3.011511130431322 1.4941195300399728 2.6563889200391864 -0.7158447423930059 2.139845343175192 -0.8555142652029072
P 6.066447173726616 2.4792130206906786 1.9092737229582095 1.9956925877829563 -1.7787817266913881 -2.226888498038629
