# total energy = -340861.6793978266 ev
CRYSTAL
PRIMVEC
9.36956723350877 0.00000000000000 0.00000000000000
0.00000000000000 9.36956723350877 0.00000000000000
0.00000000000000 0.00000000000000 13.71330873661280
PRIMCOORD
 96 1
Ni 2.1371514305347055 3.837306246851043 0.3434302422435081 0.12860658012752044 0.6291800539149099 -0.5159669255243243
Ni 6.956397689536246 1.0904208611946709 4.4125723751132515 -0.44916478029811024 -0.6556225643771547 -0.15418005772125062
Ni 4.3210944796673205 5.373015789236279 0.766516796996426 -0.25726766764206016 0.6520911541851285 -0.23717398221597863
Ni 4.972682291472379 7.636394029092378 13.841390844396317 0.5921525688479673 1.3878809722414935 0.2302183768337519
Ni 6.23755512436799 1.8694722651915545 2.002307430259266 0.566790693044411 1.0655317416087522 0.17214358417820677
Ni 1.6461111527054553 5.041689153902017 2.4778991656887897 0.31632025082984233 -0.8744021032463456 1.424537961342895
Ni 0.3573599778000786 1.9330260395106622 6.673225007870807 3.0807608567627396 -0.8262021465023514 0.20063963473537055
Ni 1.3915868597114163 6.95278103659696 6.102916317614236 1.0945836646693858 -1.3804972781829128 -0.8956000774801994
Ni 0.6414649314019392 1.8112872528781738 0.4369291533345265 -0.08145074837732423 -0.9740099821486711 0.38614472782214787
Ni -0.03774717537953557 8.073250099802744 0.9603459706241448 0.07394081315352427 1.6607104988775527 -0.4236463243120317
Ni 0.10721314660198371 3.3705518872047686 12.452835976630892 0.13509938694071572 0.2666079712063796 -0.8848556944795019
Ni 2.158045565391201 3.8653587310485085 5.171919579288067 0.5076272953103774 -0.3839204664773194 1.0351868107683073
Ni 8.647407808265166 8.450028505625282 3.777385990692181 -0.463704368675182 0.8553828818313656 -0.3825827215025024
Ni 4.307489868092598 8.044560485035662 6.185580261194917 -1.2539131278020599 -0.6483782241099157 0.566526897860063
Ni 2.1574084348215856 9.384183725054646 10.207062216587289 0.0662015355277376 -1.1324680984199853 1.5942284559949187
Ni 5.287406053727847 4.797452645693823 9.419041325909632 0.08372463201316549 1.0301507910062968 1.479677068408884
Ni 7.551899272080774 8.252630463850998 7.379556389956605 -1.1859822682880412 0.532803794576005 1.809607710933309
Ni 4.383355253712798 3.1074638097897265 8.381477941118296 -1.3036344062865872 -1.0231854154320572 -1.997029047206193
Ni 3.4865846074123215 1.2737177043326198 5.750539075651235 -1.5793443397942348 -0.21407827673877972 0.2085995130123956
Ni 5.327564018747999 7.153983122654534 8.792219154128201 -1.4021302830716564 0.8614272882532326 -1.2452156000280619
Ni 8.480423381622803 1.3070827331326114 2.3799721971389465 0.4511578994687392 -0.021791899064110856 0.02369451540346242
Ni 1.6770213548989885 6.466669151115026 9.615607350116537 -0.4382319354356904 0.22094029396593565 -0.7605919647017094
Ni 7.530911441552276 3.6893139329235316 3.782706030948467 -1.6309952312013072 -0.01964579925538552 -1.149337363371498
Ni 4.9606517671872945 8.79344188264783 3.821624402228031 0.24584914139247332 -0.1904981754259945 -0.6764616126096931
P 4.110794543858331 3.0258642490429906 12.79459937286948 0.325503202880691 2.2768704863837113 0.3346064507335399
P 7.846665856199767 4.8675182692170855 12.416016388404177 0.3834224437949784 2.158701813760063 1.1478754341139907
P 2.280477699996506 8.945922219264247 6.145523487500527 -0.2712716952306361 -0.18347957801631629 0.16608143714452686
P 3.280088715886622 5.252738655087025 8.980283233057623 -0.2211125578777418 -1.1658957819508116 0.3055375583920415
P 6.181956112601871 2.7157034660140322 9.459577821444675 0.17571896023429093 -0.6155562924838882 0.7494171790318126
P 7.1138813750375816 5.042176371396429 5.53199017287917 -0.5173028707269284 0.5452821295486738 0.42153467728566757
P 3.2041108954600195 5.695722422746335 5.364317083047592 -0.8430518710698384 2.319620732867044 -1.0715990308487544
P 1.6516860451895874 2.0996544225994156 11.231857692154882 -0.4058753734818559 -0.10305881356540315 0.19651532815435188
Ni 3.5831098887090116 6.247908496124236 3.0157619816877106 0.008846908867668635 1.0922375330347127 0.9036080353863405
Ni 9.31013603547129 5.033996739230635 5.162690555595848 0.6645283515072169 -0.025810019084568453 -0.2532408058708542
Ni 5.231188650526513 5.803734793430497 12.188676957684864 1.2187975150458492 -0.5981874621881376 0.41064322718414437
Ni 7.300719914577214 1.398623404678783 8.115975326235757 -0.2214138911682445 0.39052151673360486 -0.6562067190153988
Ni 5.407617600906699 2.1645574145953557 6.036584466620262 1.711468960377343 0.5673509364232552 0.1993754233109663
Ni 0.7356206491536931 5.084498706439833 7.609830369123029 -0.3064366731675432 -0.3977748558619085 -0.04858407955629052
Ni 3.2014499383751565 3.5478990551705762 10.811229711835303 0.9029907135173159 0.5625882249272892 -0.162364650414572
Ni 8.20888395459316 7.0794201068751645 5.571347039903704 -0.8089688133432003 -1.2373382541625142 0.14512617504909844
Ni 1.3964871433571326 0.3097766307737497 8.092333097319436 -0.7582951982477327 -2.440208813565462 -1.1248815443219788
Ni 6.510415660372864 8.969758398221613 9.642636677575737 -0.20744843012708788 -0.9064287926645874 0.4727623651123923
Ni 6.834405924589351 5.574283462264254 7.895354812155722 1.2425969314582923 0.2736232261819481 -1.8919614307408774
Ni 7.715126502275847 7.287602520496903 12.48522750739878 -0.6672146400901284 -0.1396543533012498 0.33430923120809525
Ni 7.0978594151252015 8.730628304137541 1.6831303127135333 -1.3269969922719276 -1.5549839086719994 2.804071590060958
Ni 7.115839614582428 0.30160262034827573 13.522364576882506 -0.9796131872680613 -1.0800703015445592 -1.1049485528434775
Ni 1.4328691727955958 7.643739769777353 3.219130311681976 -0.8132998366183865 -2.5239820394283754 0.8275239506375683
Ni 7.023811725541845 1.232379173845239 11.217569102174544 -1.7477307709228547 1.8858694589105263 -0.9562788834174949
Ni 4.631058501785075 4.424112871033765 6.221097479580799 0.648579027266812 -0.40590134162378483 0.8156117725810147
Ni 2.996040916644683 8.892843621074988 2.2996946823241617 1.3281434471715448 -0.19068483751550383 -1.9438730320085038
Ni 6.81456118125928 6.265139130205444 10.295787333189795 0.33248117686042095 1.9074916651659923 1.8952568136626973
Ni 4.4463281148654925 1.251886612756102 9.748736719594335 0.035237483046055444 0.17891098480902737 2.749450046061336
Ni 3.7269421147996242 6.949670340286486 10.80060181176009 -0.09360538146198717 0.4831313670515422 0.020611505602764504
Ni 4.13981209347742 3.3311622266950343 1.666166711297531 -0.7838951582040241 -2.251979636679302 0.40079975873116136
Ni 9.51591983988977 8.861371244849442 6.2883887742560765 -0.7581450458231137 1.518028928714205 -1.3832259899679855
Ni 1.69605094588264 5.2304765634192965 11.8815809600871 0.6794160672523267 0.5505114962684132 -0.04674136992059692
P 7.853599335927932 2.148938346072585 -0.19424330849796856 0.4931280732529378 2.1759767987904266 0.4920523236902558
P 3.2659968868174882 7.946292464239731 8.819810655619417 0.12045592599592803 1.3108432653302005 -0.3933286471650968
P 3.27748397620496 6.4246747509236295 12.937423433529348 -0.8366557377355074 0.23095036990377002 -1.0492895687182766
P 4.771573901086809 0.573133614767438 1.3792162201369627 0.21946499497198976 -1.72286820335322 0.360509800862863
P 5.734784148404061 6.960295429491538 2.2914522740581265 -1.8075055769886417 0.8347821748618784 -0.2192253681573579
P 1.8344769316987242 2.5391808199618437 2.141223444439922 0.3326380141532594 0.6285539902951368 -0.2833579369712088
P 6.287879069800384 8.387317992354195 5.523350494963845 1.3974567888553868 0.4366548207565576 -0.10476139807880668
P 9.131158562812642 1.3922146207138313 4.6939554694434475 -1.9582367569293435 -2.950012547701868 0.4948576543495348
Ni 2.150493694227822 6.681316566104919 1.039510380855543 0.9419197864823454 1.74255488314887 -0.5462038700319949
Ni 0.8681662945949178 4.137104288556555 9.941339416875545 1.054754705597906 -0.03396144454710925 -0.2501994479413691
Ni 3.3312184440982353 1.5926202935593858 3.4645848636261993 0.9714604762539397 0.8240617031205808 -0.6037351314792441
Ni 7.993992930856063 2.9525192769996504 5.816760365752247 -1.4866172471721428 0.5912943346127301 1.6019139975646346
Ni 4.611082584514201 0.4454620181837689 7.78563530632768 0.4925536888067066 -0.9164239562040863 -1.3462614969284945
Ni 9.278822941888146 7.575576168395735 10.630392380087413 -1.9028030014410713 1.3234177595611014 -1.5034934541021914
Ni 9.033883716139934 2.0770362873780788 10.292509858583157 -0.04397254892620814 0.5174769344109476 -1.8938046545972032
Ni 6.36481258608141 3.807895175409545 11.40284948268878 -1.5197196861530666 -1.10440913540024 0.604346539810998
Ni 7.9674864252466335 4.386906319681683 9.79526599031064 -0.7506024575891653 -4.043138911099437 0.23863565436316966
Ni 2.11291236018773 2.0399328012651985 9.04923387808406 0.6092779156743442 2.3187781823610902 0.7617643877432558
Ni 6.190613592694877 3.883357669640135 0.22966214642824886 -0.0782165577107427 -1.5774116415478963 -1.0629652664331564
Ni 0.28350904912792646 5.946405193188282 13.651969115179583 -2.1753705326649952 -2.033287001096963 -0.32163523528485255
Ni 3.2119532232066055 1.5120794939062752 0.29040505058729005 -1.0508787675822675 -0.32533993782994935 0.82338036078284
Ni 1.2132277784879846 0.4993632643732077 3.4138599007176365 0.0042572326144571845 1.0511765013283445 0.1067779142882032
Ni 8.906101558663304 9.880583395322423 11.908870761514466 3.0981705675987543 -2.02545182132326 1.5644057162065315
Ni 3.3305813135286204 9.175148680817687 12.332337720695714 -1.067491179327968 -2.5476217903345026 -0.5158100882314859
Ni 0.5644311607518715 2.987542719194081 3.8033724853219977 0.9670186384325024 0.7636595478834397 0.6042817480113336
Ni 5.270184789213838 6.294325332034138 4.812466440175458 1.1177814429420878 0.24698402632786498 -0.3654113519295384
Ni 5.4175587117061355 4.796356406331397 2.7196920907711664 1.851460642413353 -0.4935214520366145 1.460140283927537
Ni 7.35327381700326 6.243130016852122 3.42666809908034 1.4047142417487486 -0.4683236126147483 0.3833561093334172
Ni 9.051985719970764 3.9079621531079187 2.063345475785114 -1.2691170892360077 0.7542683364765268 -3.2375076467699015
Ni 7.107407004102228 5.835928626330461 0.9522422319526725 1.0472378283955706 1.0191829791408835 -0.23728273987970105
Ni 4.936590718617124 1.1642249420308222 12.154063902533803 0.653027549956469 2.61742158473646 0.5857188974074816
Ni 1.2473611117983945 7.723680917129649 12.33516264520658 1.2150370195621527 -0.3163343918972294 0.833931396825809
P 8.6615183764687 9.476005483616825 9.29416748209195 0.7665065304139316 -1.1489177593355762 0.30220618002596344
P 8.858447939882973 3.059772712740595 8.136682069748248 -0.3585377647381567 1.519108277821313 1.1751658943988277
P 1.7333418233395246 -0.15269302579186275 0.0435225766017526 -0.6260381658518187 0.23876035286649205 0.9798389301256221
P 8.663495355147948 6.10987603213056 9.143389595835812 1.9748193438783732 2.4346698860251035 -1.7000581474372398
P 5.293187076690385 2.8227039234405704 3.851354975911056 0.05679746860501831 -0.22978360328917843 0.02887991625914381
P 2.610923596013946 3.0459713402546678 7.1736648355153205 -0.2580539109887814 -0.09331561813571025 -1.6177746187459752
P 5.887789180783692 8.718176149328444 11.952546999018303 1.0079886530869608 -2.383454025272921 -0.9530104970788685
P 9.207389361553652 6.341454255051255 2.1893436676668236 0.1688404879469028 -0.8747520303865968 0.33757761754672183
