# total energy = -340876.8264228151 ev
CRYSTAL
PRIMVEC
9.19993116197857 0.00000000000000 0.00000000000000

0.00000000000000 9.19993116197857 0.00000000000000

0.00000000000000 0.00000000000000 13.46502919884751

PRIMCOORD
 96 1
Ni 8.284307848539457 5.894588976955551 3.5392428874963158 -0.8479035427351849 0.4901170543407559 0.676421503400377
Ni 0.41911297568377626 3.6633389164892125 2.6918473649217454 -0.7108745428719241 0.3559373510008322 -0.14508323762630496
Ni 1.8302066692189058 2.6353754285918196 7.4145049740718285 1.520990325335374 -2.1661916943792052 0.7795204261750962
Ni 4.674282532074995 8.368524016723505 9.317180419607379 0.2591270894483021 -0.8252287268454884 1.3465196356858875
Ni 1.6691342776342102 6.953997828940017 10.885398814344008 0.615689732737959 -1.0180498939777047 0.07173557797208935
Ni 6.641706171849402 2.848583829035921 7.473225373533082 1.2053853554050016 0.2541399206463558 -0.4896671112875308
Ni 1.0490313298398737 2.298860353232841 10.112977209291731 -0.19615228838797832 0.9186464177767019 0.15811821643339222
Ni 2.3935644427332328 2.443740866294058 2.750501524879949 0.292893901486102 -1.126595698799608 0.756180208787259
Ni 0.18409981882575652 8.08833091881949 7.953860127661294 0.2294226204053339 -1.2381250117298677 -0.5486420471598422
Ni 7.883365656532797 0.8414155674380581 10.66490866852983 0.08665491828608302 0.7555076082002665 0.013811709072111697
Ni 8.275604713833088 5.837273406954829 8.520562996079676 1.3592157430963172 -0.7090991961390563 -0.062361335846040984
Ni 5.294357880076394 3.687663533998348 9.77895071526264 -0.3362804960018531 0.1693264264443858 -0.15092812644285622
Ni 2.555612027001729 1.0011364891619021 0.7607294127707486 1.1864100998540794 0.31997147442918444 -0.2872886394841826
Ni 0.7394610123329202 0.7341526521578934 12.15722487270836 0.16166865278881187 -0.15853010715983018 1.1579718991180443
Ni 4.955395623076933 2.535712576293613 2.781888009408756 0.17578658024743274 0.06004374345645789 -0.07947871225261796
Ni 6.7737987808494635 5.718336699255094 1.7991973818602482 0.18167260671456453 0.5506472505153291 -0.959943733863592
Ni 2.707585686847947 0.7089071215577356 10.764321282705401 2.298393190946835 -0.1522689567414668 0.2714483300178164
Ni 7.470472754184091 0.4665984194331712 13.03379797638362 0.12699964065171676 2.138313222801382 0.7181163120360019
Ni 8.57789604594926 7.778320844611729 11.729023285210182 1.0570820681795021 -0.04838327639939409 0.32659180795917947
Ni 7.542508213751613 5.794953724450282 12.870615120632284 0.5016697921753619 -1.4613147638516122 -0.021819152757620485
Ni 6.929848010119488 7.556096511807963 7.775448626160007 -0.9843417030919822 -0.08267099393767052 0.4274682691612832
Ni 8.977458248309032 3.527244337513179 8.048344338811281 -0.9795962179871968 1.4751814945313755 1.2484703595199338
Ni 5.567687829469888 -0.05716193115336929 4.480044389310105 -0.05223736003816165 -0.5116158476444802 -0.9823953779988889
Ni 7.844992744418349 8.947935669796623 6.271377670169291 -1.0511258505960672 1.7934719817137115 1.185893822339293
P 5.921517174931814 2.02633999776552 0.6509852761054802 -0.5595247555106171 -0.5073331611087262 -0.43350907603872435
P 3.8216053291252376 6.481415774397943 5.543431291449999 1.0824755685519423 -0.2419888871061187 -0.28467228490725816
P 3.6378459077457133 0.4798693198707382 3.032378210153166 -0.01656690321974566 0.2065194905549153 0.5927786324677403
P 3.072270950865387 7.124352950882776 8.50194049579148 -0.5740059798459275 -0.6154020262942111 -0.3966659390684459
P 1.0896030254583629 8.669039762160681 0.5172201196533922 -0.8373064839456288 0.33697340830381967 0.34121135764456717
P 3.7144997326648173 5.923007563750452 1.4360181465441115 0.4781238865346218 1.0291706864812147 -0.635280767496009
P 3.434913830205433 2.2025278759491225 9.18533068878517 0.06580712830279635 0.6435625478888272 -0.015030669080877341
P 7.172919386522233 7.727978822293277 0.16524732026307898 0.5620215537905418 -0.26162208795601394 0.8043408276528857
Ni 3.0547634822118757 4.472500445907121 6.298348187828059 -1.3770720545514477 1.9498109947594937 -1.5124455210891565
Ni 8.162638761338886 4.56686413796128 10.86715351122596 -1.523685869889666 -0.6418584207135268 -1.7221457233648987
Ni 8.168821114956941 8.810856698205809 4.125766087216393 0.5567243099473443 0.4787352948663755 -0.981681896871632
Ni 5.372492893883157 4.549568267720292 5.5285789228771 -0.37915338410597926 -0.9052486563135571 -0.47758858285644207
Ni 5.31031976032539 6.826376386395872 13.255970789573901 -1.4705702210116092 -1.304454073974405 0.7227460974985295
Ni 4.969425517820289 0.04063333515605011 13.27707083127481 0.09150993238553917 1.5088596035101112 -0.251516881201212
Ni 4.150981258044319 2.510605964651242 12.729905856277057 0.5363372616505602 -1.179357563882672 0.9510700855230461
Ni 7.604120151519645 3.5893070718991944 1.0310951444027294 -0.26677355024996635 -0.3013183781043714 0.2959995369946193
Ni 8.833286129933219 1.8873290406690642 5.791160592907537 0.43713176039297624 0.4313200388072056 0.1826642812038725
Ni 8.592385937241577 2.665597201858654 12.484640296335764 1.3572910152697786 -0.18290210824629147 -0.36824136517916584
Ni 0.9648243615868053 4.385469098843424 11.93546881639144 0.8465714541873227 0.9705626470300188 1.206895878512257
Ni 0.7675152818610429 8.956767603536703 10.024888790158517 -0.1481888731348222 0.12540401402982274 -0.4930141733828929
Ni 8.649241510693338 7.975953761907961 1.9621235595372626 -1.1643384647660207 -0.1217893000953709 -1.6242100899586738
Ni 3.303529615890775 7.229682960664201 3.412334439603062 -1.2453066170799716 -0.03282270295697573 0.5391623898041811
Ni 1.2283747843493582 5.893954181717983 7.33893858099447 0.24107588837354613 -0.1102051948021973 -0.01887703941016104
Ni 6.435011322538609 0.6057970551216039 8.732233168064047 0.4820736152109892 0.20511901066296287 -1.6594156913255291
Ni 2.834572334154524 4.8300925631395595 8.616729874605769 0.2600452303871973 -1.0434284819518094 1.5186359661705846
Ni 2.691973403976161 4.010203914199846 0.9179286334131803 -1.6130766990496734 -0.9738567444002583 -0.08286665488824439
Ni 5.110156862009864 4.268326377684643 0.6467579078205152 0.49653607049322235 0.5273787669056917 -0.10289580562497765
Ni 1.508595482046311 8.954651619411473 2.7922968113186784 0.033859885972238456 0.1510415120922689 -0.661803496376886
Ni 6.451359599888735 3.119604595753624 12.176493208151301 -0.9871768585479322 -0.06606603839113782 -0.6343497710413075
Ni 6.393970430440179 6.344622000667486 9.74336262225561 -0.7370319179935823 -0.6352658550976736 1.3955428596621258
Ni 4.655901069978454 8.289735807817214 6.833165935458559 0.2519781371083467 -0.8551095735653208 -0.28038368483423326
Ni 6.274205728952313 8.198638091260689 11.504089572733028 -0.6893919475181159 -0.17257218707519312 -1.4405070830776419
P 6.576708659481007 4.029137372155142 3.5213067020591713 -0.028133525011422512 0.08398302788087471 -0.6996946149957047
P 6.65436527687685 7.446562133569022 3.251549085864919 0.5894395407921784 1.1838266553976193 0.5232948266443053
P 8.033701728664708 7.847605524816455 9.666221200994604 -0.867900297572086 0.7299500714461364 0.12595345877538955
P 6.785915089949134 5.113018040544412 6.973875199813784 1.6783204986498323 0.5011236898639047 0.8687952985825296
P 1.9671752416379682 2.570331916568528 12.626682630689881 -0.5755766667671571 -0.8510294899586763 0.0793100478852376
P 7.262140317158992 2.729003126167639 9.587033715083814 0.44730484427123607 -0.7850138451894996 0.4709085997331051
P 1.1342594904316385 0.4461580127834752 6.887294649368069 -0.2444900562614176 1.396273052959931 -0.7209707507656615
P 0.9835094214056606 7.233565331537444 4.125348410349934 -1.0958707589119256 -0.2163609021253693 -1.4948159809328514
Ni 3.0828416715605442 7.762266965052939 0.12083373346765534 -0.36582169999407965 -0.5506763039810516 0.3916672003022738
Ni 7.89228038965169 4.048558426452337 5.256640003047667 0.39109024475288134 0.9419611812432422 0.5536009338270143
Ni 6.309009067846812 7.025968888990684 5.583247672735093 0.3745922470978581 -0.7668839683580082 -0.9127611626405183
Ni 4.916829512411921 5.929677513710407 7.647409506749405 -0.7726933759509338 0.052564661470593334 0.550021444005872
Ni 3.4216383298023763 4.65289269254824 3.179537546117943 -1.5857502433205786 -0.5301848688959191 0.29909925896586553
Ni 1.9338438917001484 7.89570276397597 5.816892799856498 1.8986912932655429 0.24832511373679167 1.2464949809611179
Ni 4.087501734287499 5.969246416852158 10.383381580633825 0.11046796154528071 0.6378850378880756 -0.10545713859425064
Ni 3.070430964669537 0.3275258227991542 7.983092908347858 -1.1628330838650875 0.7192964483870322 0.723778909638418
Ni 5.291423102094012 5.82807347597558 3.5978418478686436 -0.03798239278104427 1.021929174427453 0.10496168701507085
Ni 3.093614790737245 3.5527097464637403 11.014757203857034 -0.15566898356195125 0.11860421749916994 -2.161541854312019
Ni 3.624625606928532 0.9109560057240073 5.578723146679497 0.46138549073401824 0.435849551246443 -0.5429941048454454
Ni 1.0414689865749307 6.21627376357598 2.2095575432103667 1.801805441280071 -0.9129329123316923 -0.12101745492635288
Ni 4.408965722564426 2.806116947635706 6.902308936726205 -0.9178298354126773 -0.48279866630247176 1.4226518000637758
Ni 3.1679686329115375 5.343356712471874 12.488572346836294 0.6869913084964233 1.184631924907734 0.8438918504726305
Ni 1.0239523179904402 4.931650601219492 4.3887378343203505 1.5022531539371868 1.0569902797966442 1.124695396453102
Ni 7.304368000353746 1.3469894944648186 2.272923907816142 -1.3702452614376013 -0.5985546157195691 0.06771822928258014
Ni 0.23811629357732048 1.717673113480729 1.1349844449928035 0.5755347577856282 -0.47804418233662177 -0.4935114247342855
Ni 5.406422239334629 1.1224651789162412 10.735222821011135 -0.9899767898905724 0.875394291956286 0.697283948671683
Ni 8.892174888131393 6.886056338658262 5.844616791862466 -0.6861135338771602 -0.8163391376653425 -0.2927895146977538
Ni 4.981385428093313 8.277030703134873 2.070530946231246 0.39176078845734463 -0.3362144186506081 -0.7274445314154633
Ni 6.540322932458077 2.0853759548593627 4.729295359351611 0.12222664474310563 0.13829603950114247 0.33448098089926914
Ni 1.6231070229450262 0.999360902482907 4.7513641537846345 -1.7035263084914984 0.3607643400758303 -0.4575031249604766
Ni 8.84320365552885 1.259001354579279 8.292573066531215 -0.38827642945317004 -0.5624113330297927 0.1411191107722344
Ni 0.8242714960582272 6.685378244207899 13.33771677629002 -0.23807258277084806 -1.2363247252963352 -0.6220457568629739
P 0.8903812800820143 4.945754095410681 9.737854623578333 0.018937460334451258 -0.03383803159536753 -0.3235262816599783
P 5.573410186538981 1.070595968055234 6.5357901264646 1.738244428698974 -1.0598544887183166 0.28685283749834467
P 3.920403387911395 7.9707834006976235 11.508843177070007 0.1568205806678912 0.40268206335553874 -0.18407401706720558
P 0.34744183338303297 4.552677844391278 0.8165269941598953 -0.18542744577130646 1.2494679475465127 -2.20604816425451
P -0.0759500301991921 1.682713375759582 3.2778728483758446 0.8560441695644483 -1.2359310894023423 1.8607729209532147
P 5.658987944507958 5.090745007643649 11.841980957766504 -0.4285201074645652 -0.047650769108743746 -0.8731474049036382
P 0.7829757658716711 3.9381132550464497 6.192014465576798 -0.38928738721618766 0.8047722587633496 -0.3298607085184384
P 3.5178788077763032 3.0543770851107475 4.642781968402046 0.09714373363254883 -0.8386136327928267 0.6672442077764831
