# total energy = -340860.41928898083 ev
CRYSTAL
PRIMVEC
9.40758737597786 0.00000000000000 0.00000000000000
0.00000000000000 9.40758737597786 0.00000000000000
0.00000000000000 0.00000000000000 13.76895505824680
PRIMCOORD
 96 1
Ni 9.0526016166466 8.461692229071016 1.441760766793523 -0.46254608670102276 -0.532270033559722 0.37183525317801125
Ni 8.347644045514071 4.626632729269832 10.148367307195597 -0.15794800940411508 -0.5132392421805161 0.4385165565556448
Ni 5.60056263530928 7.931461781027091 0.9436741638025854 1.5281156235262456 -0.29788646960468695 0.21601997384618282
Ni 3.900827944183482 4.78610074539404 7.666292933756241 -0.3557126365845357 -0.25533136985129573 -0.11364713060421072
Ni 2.874271993533166 8.830036910996991 11.663049107166136 -1.5137971500210445 3.6685754603569847 0.23528447850274964
Ni 8.357606680702293 6.912958725297566 10.288260015199267 1.0629074166120274 -0.045821172099172705 -1.615858632670185
Ni 6.561293696052153 3.0760835611041943 12.849161505263387 -0.41475210714619537 -0.9354856008212277 -1.6426556982583709
Ni 1.4374605585361708 4.589049417110301 6.554270931965271 -0.3005143941458373 -0.474349507093854 -0.07036286599427882
Ni 3.2665683932959793 1.6031375824264085 13.500446908052348 -1.0087617838075593 -0.10552835815181826 2.1405500825517003
Ni 6.690996105249513 1.9296843529819723 4.494600060642706 -0.5444861160099397 0.03219483956498972 -0.3499739343285457
Ni 2.3468261913964303 2.9281680624598123 9.591358161263786 -1.1683892377966265 0.15744792983924497 1.182238484974893
Ni 3.762075435787757 8.159144214289912 4.614458370254651 -1.243421998462749 -0.19202103982842414 -0.0018949030298677043
Ni 2.1969162841968997 2.958347603237729 4.428110054297295 2.4063859514787462 -0.9010461881964352 1.5508071515864905
Ni 4.57096803388862 2.463489684285127 11.1789459422713 0.82868274683236 -0.6226044575799213 -1.239882874961239
Ni 3.062329668143685 3.5175440132689366 12.418399361631264 -0.18842509494704968 2.6427353809109 0.19988835839164282
Ni 1.0771029184183158 7.365247310702764 5.722900784992627 0.048746573276083796 -0.21522344608681646 -0.20437441918745447
Ni 4.759656016863266 0.5647995691606741 6.1080323660969436 -1.0050946193686174 1.9977132177574113 -0.9510124928122331
Ni 8.941385116934466 6.423303202245895 3.5912185942066466 -0.35046630058393186 0.22991370110913953 -0.28905267336314094
Ni 9.105895599971692 1.647306205852941 13.21453433029044 0.3059797881357827 1.0169592320166871 -0.2723965528636986
Ni 6.847905257567114 2.244245857031593 1.3235572518271006 0.8919352270341026 0.02084007667380282 1.135413297091238
Ni 0.8922090154922151 5.856138565581615 8.826340669858698 -0.5862349178119517 -1.282459829091501 -1.5498270470614082
Ni 8.272345714969669 6.61207585350826 7.544134468994606 0.6281289869425764 0.2376874315172874 0.3493342438620178
Ni 7.101101068195804 1.783481035267011 6.948144984155908 0.878747524699235 0.1191336076400787 0.2138391641447801
Ni 3.777917813178658 8.6482258745026 0.02922467064420094 -1.7608246279923354 0.5782853239475718 -0.6996408789396337
P 7.2937026075805536 6.570042752449741 2.0600556416523093 -0.6811065675808721 0.21903099275836474 1.1798491588071098
P 5.352061210855211 -0.0009332326824093781 3.8821021412163863 0.0380006476134894 0.7214942273692994 0.08646337110056722
P 0.2614076937786406 8.27068057197787 8.558672226582646 0.5272003323462985 -0.10110837470725169 0.5354152640569231
P 8.301283454194381 7.368859824312091 5.509247887004778 0.2450695829139715 0.4948124029338963 -0.5439037611439085
P 9.050202681827905 8.480469773769496 12.96553712597384 0.9565794453770493 -0.3436369363669243 -0.6326775255452072
P 0.5258324008763204 2.5593153708075254 5.770031857730559 -0.5301475879000804 -0.16604158504552693 0.46205860554164296
P 2.4076086143908553 5.64900230347184 12.067994008355354 -0.7208727917352167 0.17276039182659925 1.2395002948108393
P 5.372334561970052 3.0613418714536347 7.501327123482839 -0.047300584858176606 -0.8494282069098273 1.545119871393726
Ni 1.1853748432353475 3.49695080417827 0.7465842644099976 0.9876075183274474 -1.6609794362682235 -1.3974629595029737
Ni 7.054072538161887 9.076214661332562 2.4984040638640175 -1.1017195043832186 0.052313464691735714 0.21550575321392562
Ni 3.364059222810177 7.269026505504345 1.670188280988267 1.9534365073272228 -2.1365381331788305 0.6384049149472876
Ni 4.322466609434549 3.6206417649476097 1.105108365719369 1.4030430246939125 -1.757288846924935 -0.5346976691646083
Ni 8.764428395602607 3.7870619882522663 1.8966872397405319 -1.879324458703157 0.17685718760379218 0.7514583778315574
Ni 6.424479150686431 3.9581954129065906 5.8624077819078 -1.5293106722756113 0.6044319004359526 -0.684327388511015
Ni 8.650229690645274 0.7460339205398269 3.833786653209148 -0.04795338795082709 0.5298477972714746 -2.4303329492126466
Ni 3.292119401011946 2.074561200856009 7.864716829059772 1.3915975018611324 -0.3648770766926232 -1.2787854655637074
Ni 7.235347342167395 8.281631003856143 11.567341015487791 -1.4029003284684614 0.41995524861368966 0.1260979547730538
Ni 5.236093879443311 7.1120326848990265 3.0958122129013783 1.1502930424165478 -0.3969690721311615 1.06467582136636
Ni 7.9739840766368735 0.1441345892183702 9.184044429535954 -2.301300594401617 -0.8996927594923344 1.0460756897666694
Ni 1.8673026401084178 5.909225581981173 3.3851115221720285 0.03627363762005366 0.2867898454708932 -0.4807826643137074
Ni 5.0178002185297315 0.615888413970073 12.687390511713234 2.6319130934844157 -0.18233620844049242 -2.226124623289411
Ni 5.8789143349779165 6.053152263515257 8.289475991092646 0.2941552846970289 -0.6905533148160687 -0.27821675908990146
Ni 0.4743333852508626 5.805958493727062 1.1428854741819003 -1.191897862441528 0.9805727229678531 0.135843721305908
Ni 2.6547365310663795 5.1964691207910105 0.6908226708772849 0.22397470991688526 1.4733482979773787 -0.7634327765846143
Ni 5.6978464978979435 4.7618762075189975 2.715100316415974 0.009080879255345653 -0.1398088766012431 1.3176173508292406
Ni 6.774384961064802 4.707453313690991 0.6705220377586235 0.7820061687114274 0.8511097083773084 -0.04823646640888467
Ni 6.7746389659279584 9.029872885187919 5.715451857190896 1.590887564547144 -0.9595310718062053 -0.16834195104392943
Ni 4.372242155025558 2.243389766566883 3.584555199963193 0.3443319055514199 -0.5161960108159949 -2.2149709206654373
Ni 7.622347270154033 6.989658786383087 0.04714330260171246 0.24004024802018015 -0.09042904061653458 -1.6279168493862997
Ni 2.8345719741806703 5.23617854773103 10.044893252015953 0.8237588271681812 -1.5045494061705313 -0.7624642420237578
Ni 6.417846801481808 2.8754855723237993 9.543042673256547 0.1460114058675292 0.008657161454365734 -0.26747417586141675
Ni 0.08376421855750868 5.798281902307243 12.297219285972156 -0.24768362349805087 0.08300369468674093 0.31944028451606277
P 2.5115718641217635 6.436360933729607 7.151815491021736 0.26819691296005427 0.4185856219596726 0.1943949393772394
P 4.047633347499998 9.319306722960167 9.87177670791151 -0.46590086210586856 0.2470308204054004 -0.6026853500584911
P 2.6074445885817834 0.9447663847141553 6.063916425160547 -0.4481803048976539 0.07023971015285321 -0.5018425703078002
P 5.294580851081811 7.506709204305484 12.561528279743289 0.912600468692938 -0.32044584296244166 0.2685632951605375
P 1.5363154882413903 7.775502795049443 2.152184146277662 -1.9445847133635474 0.543846939764044 1.2648901956388539
P 7.5029837996458655 3.9748374352370566 3.804899714957069 -0.12779205464602508 -0.6380233632381528 -0.032949972563459384
P 2.8420886366125764 4.074708384394899 2.531656122727366 -0.6074529466504635 -0.6082253060401137 1.4077391446180012
P 8.56417848756061 3.7988496954201993 13.21014192767535 0.5354479170670714 1.3299357631852773 -0.20097362103602162
Ni 9.338498201509715 0.44404377569891224 5.7915940483362265 0.9490152598765462 -0.6170776142244212 2.64567080939014
Ni 1.6317178333251956 9.28133769971214 3.857744956357253 -0.22603622043160426 -0.9842815392780081 0.7872234512463087
Ni 3.837307913219489 7.091392437870738 10.983330211843768 2.4413668384293055 -1.8907121317148083 2.0732787109985518
Ni 3.6362301374753554 5.156976068364049 4.669066593556886 -0.263161664528992 -0.6857301823958125 0.1533696460048133
Ni 3.742742843425345 7.36126790117999 8.845534970684504 -0.4035490393415244 -0.9554659005978964 -1.6125483373500293
Ni 5.550881165593515 0.6112391842155699 8.38295260301023 -0.28869811823719954 -0.45938285848169264 0.8901447107925831
Ni 0.9062075057283558 3.616464796086826 11.428232900283648 -0.8896700851490098 0.691475569520022 0.23170524579192353
Ni 1.646487745738328 1.7982697628551918 2.591111135122114 0.2301458717246036 0.8635399637208613 -0.870853723773455
Ni 7.248310997775864 0.2504779585929227 13.384759922748671 -0.35424453667944156 0.5906741845302279 1.7975314964950657
Ni 0.13369593010142014 1.3484271502063085 8.262268307213652 1.5821375862686557 0.9701636118193874 -0.7339491653032005
Ni 8.349629046481697 4.969887375268532 5.649609092867156 1.6256738189883937 1.9662215749070329 -0.3810937956618018
Ni 4.7233050986694165 5.338730659333295 13.321560690519256 -0.11612901648580001 0.9106582573649027 -0.686055169835399
Ni 1.284540223328868 0.42947048186503756 0.5819025632798299 1.0864834041597546 0.3041674175173923 0.27714306640974845
Ni 8.537931318367846 2.102191285414843 10.830012876442941 -0.4558298510231117 -0.2418284502688545 -0.6049553770395905
Ni 1.5746231846402914 7.342462133718938 10.33993495271143 0.018285428572749157 -0.10093148280975522 0.09657937648864658
Ni 0.2878016213367833 9.107654818838734 10.895815188140325 -0.25649427981114536 1.2888294800632707 0.8301840139682348
Ni 0.37570988219874085 3.992617775657961 4.0846155148167265 -1.8091544254459746 1.183576487060026 -0.6747883386723282
Ni 4.223291821753505 2.948262669411692 5.680836638895279 -0.5125244755016786 0.39383823981166366 0.9255367171386317
Ni 1.7240533048760833 7.651190933503501 13.56940170232912 -1.315904996123824 -1.6010740181618426 -0.6739889826994845
Ni 4.711912510177503 7.880491471820498 6.799151375981243 1.0896031807356588 -1.982540880892347 0.13254396750871367
Ni 7.915525327760947 4.1390186527109325 7.780795503790608 -1.2363663771675482 -0.022045409835813646 -0.031692446007274444
Ni 3.5143924714483004 0.21437540070971475 2.2101235963222474 0.5711546264400614 0.18191711862520282 0.49796277563741986
Ni 2.4234603993692807 9.291977681202109 8.33505104885406 -1.147044196461947 0.12797537430142475 -0.08777334816124238
Ni 6.567794339031436 5.6556910982016095 11.81884440112086 1.107348420534222 0.49964299155332015 0.7103952892426604
P 1.8124187744917213 1.7377413447239223 12.028256358652762 -1.4427999928768764 -0.874848703865461 -1.3175949822317372
P 5.559611406816055 5.006097179649516 10.135906016760927 -0.5946287983026017 -1.1548786049047015 -0.5337358194719711
P 6.698540990443992 7.991482189432049 8.158422652326799 -0.6612990459366418 1.328885724654208 -0.36306419185360056
P 0.24378163779313447 3.506744102791054 8.682221132780368 1.9237837174577965 -0.048301772429181336 1.1753628409009822
P 6.597672837008575 1.1028985234099138 11.137363464655193 0.30947597421449924 0.739958604722074 -0.19307159258012557
P 9.062752403585307 1.594238004628432 1.8251717001396461 -0.5618965981769033 -0.7227656378825553 -0.33280950673411713
P 5.437670257326232 6.0119282149838265 5.176066885727087 0.4776328058308162 0.8633273334894228 0.26511056072524664
P 5.026483421814649 1.3323683983023489 1.0063578602356695 -0.6110085252122058 -0.24916997823559023 0.45457283868755904
