# total energy = -381158.41551791196 ev
CRYSTAL
PRIMVEC
9.44220877122429 0.00000000000000 0.00000000000000
0.00000000000000 9.44220877122429 0.00000000000000
0.00000000000000 0.00000000000000 13.81962696978044
PRIMCOORD
 96 1
Ni 9.019821168281984 2.2866102975523885 1.671372958793183 0.462806539451261 0.9894147467395152 0.2666421668784247
Ni 8.03538590607867 0.8843119670119975 13.719489937111566 -0.23332298390100464 -0.07762777508680824 -0.31935672366332096
Ni 8.53055422747506 8.639507876470006 11.046566768184723 -1.6851010119067753 0.36287444444029765 0.30091600045963013
Ni 5.469314550436031 8.55619926696464 2.9488736137320317 0.11387210213082324 1.596867693389979 -0.07633013932130725
Ni 7.624734796932367 8.527882082344151 3.6248602363896407 0.6250709168425428 -2.821089721885509 -0.38989905265825753
Ni 9.056617456533418 7.813418458243226 6.573485520026467 -0.612602352061887 -0.39627050340224007 0.21664192370089785
Ni 2.779729659608116 2.4574009729159885 12.138290073725415 0.04146083824794795 -0.2194595956553511 0.43064692399958093
Ni 4.969765044090021 1.7752485878185056 2.493005654398798 0.3994956952077572 -0.29408509358072576 -0.13295997200020973
Ni 7.881185191828175 3.5149000479213557 12.511557589224019 1.3440809443374078 -0.29212385608929686 0.9710136185245083
Ni 4.477674882809096 6.088440190838023 7.857259578587141 -0.9755647282303006 0.6810284060447691 -0.6996689039640919
Ni 8.123179564832029 5.833594971462549 5.522323111442844 1.2581539053562847 -0.5755519841768089 -0.2425599291182403
Ni 4.26332729759077 3.812556242645047 6.782687101370779 -0.5519577417966365 -0.43614882765441665 3.621363064337241
Ni 2.614736500535607 2.468939352244511 0.9629155238009935 0.31560059905499843 -0.8394541264162511 -1.0557042139953687
Ni 4.987053728664919 1.1974798225874863 0.2175720995724098 -0.3773014184989051 0.2791860649817063 -0.4637218521766788
Ni 4.937510458340239 4.240278865560555 2.1428573874974832 -0.008702669980320496 0.2890763275122247 -0.4140802778901514
Ni 1.724751654390568 2.0409051364338793 9.01092188635307 0.11740171255063651 0.566492959298334 0.21485552122443644
Ni 0.11784915404028226 1.4457154957027585 10.983949815357366 2.9693233322153376 0.04761760187796315 1.7552332499474868
Ni 7.340864227265668 6.321455023136946 8.799191681453784 -0.2756837082554026 0.11375820226077826 -0.46556044804731433
Ni 6.470084834110985 0.4123167148038732 4.9232281730928396 -2.1487336468037572 0.3804276228327126 2.583534445070712
Ni 7.9264794681284405 1.4196927678554518 9.742298395112956 -1.1509556157012113 0.37022651392999467 -1.2763439460017503
Ni 4.150124654571409 4.663525881437012 4.9293646646849885 -1.0987673637334303 3.0337963150877427 -3.939690832515415
Ni 0.7805723057954563 6.475825697148417 4.394254855238203 0.09801868003833442 0.25951301203281113 1.4200881531016574
Ni 1.8756948065556778 7.481826964577873 2.5533281504529715 -2.2567570034632873 -0.019940447677668886 -0.4661782841369713
Ni 9.416025697745276 6.761499728723257 10.05999756676026 0.7171534339021004 -0.7731098946630621 -0.4022832852552233
P 6.654481732561656 2.9772606706987013 9.894314182214005 -1.5231310258274608 -0.17695386108265654 0.0024682590348344587
Ni 4.249957129727278 6.033061635386479 0.3175207138982785 2.697781928263083 0.8324694675683019 -3.110406704653631
P 1.272063831029386 1.3202568654751958 2.4211438347952075 3.106981738132481 0.8994508186848573 0.8611002439311171
Ni 8.892549633937339 1.5571146768139785 7.175275264808846 -0.2956043584387296 -0.7521422912724595 0.27492574704345557
P 6.031550881955576 3.485525335899233 5.774558504266432 4.972850071330733 1.7381896642016386 1.4380179981072008
P 0.7269273399058745 4.598195237759394 12.917481928573382 -0.4495057085772968 0.612494622839429 -0.2714791832557518
P 4.10790853838661 3.6534739063709463 13.568261630236371 0.862072120926083 -0.16925057890112785 0.11478664352529264
Ni 1.9973482265791531 5.379500258968839 6.399786644308379 0.02928666477925924 -0.8827417334602926 -0.3433515439160216
Ni 4.761479357013194 2.4660311518900224 4.697263838211762 -1.6655259179883248 -2.9009965228144816 -1.484125591098541
Ni 4.065701864410754 6.858726154210817 2.705731068120692 0.788671496546745 -0.18214209015181532 -0.4936353519066595
Ni 5.97748479354713 2.267593688740895 12.100217198824865 0.12047212394584414 0.45218839761578256 0.3078626069807924
Ni 6.884984937281702 4.299066058440573 3.8035625386267014 0.3824729353975155 -1.4969569385352541 -0.46743298247967885
Ni 8.547210284050767 6.119911073245524 12.344534355228733 0.6948249456082292 -0.1656050117287406 0.35047607077594484
Ni 7.342374980696571 1.5515437735375233 3.263836433227612 0.28801034814155557 0.6649901216349838 -1.4192096071514462
Ni 8.573233011898074 6.042947628149952 3.013839788144444 -1.0878574016891458 -0.934086920701488 0.0031627139986977787
Ni 5.605518414440891 0.12455123394812631 9.64162178647757 0.8871203221439624 0.9367570113344835 -2.916298186168558
Ni 7.264372892617254 3.9642075604808924 7.94201567872349 -1.113626797343766 0.8173868622035665 -0.9747396612258439
Ni 9.20386870500176 0.3897677756267495 4.7517963717419995 -0.14773738741970038 0.49495124250460565 1.1279519557171866
Ni 8.4769885761406 7.4955937052169785 1.3220338891982957 1.0271996787977729 0.7338409218601104 -1.4803620102910504
Ni 2.9926892401117997 3.0493424937706677 3.1179014286859466 0.37400603557708495 1.435854414796979 -0.6151148340710955
Ni 2.6491439099244256 5.549790497258451 9.506549099104097 1.1241474943694316 0.5416712722689638 0.2057461027240005
Ni 4.450707934067475 2.3662175611520406 10.333833900983079 -0.49515950186066987 -0.5200511228960271 -0.9241287810475116
Ni 5.062496978120644 5.729928959475765 11.305049126445097 -0.17482704454764084 0.6961256666975236 0.006612620220511193
Ni 3.859455694465646 7.910607114895014 4.9873096125272784 1.0309930844019342 -0.2230210877543643 -0.36191825117461535
Ni 4.400805859802956 7.45449176968747 9.71363656986604 -1.0019535026364743 0.41143152741339467 -0.2716787008610676
Ni 2.7868585273601902 5.400707460255141 1.5066989463829523 -2.5187027933073076 -2.1463065254195035 1.6658362501398924
Ni 2.1110040956277847 0.1078168070381911 4.219436133539457 -0.7885791939432548 0.06266883978413079 0.11413358332232601
Ni 0.6258182781008933 9.479411246380606 8.674165504395818 0.8657873649941412 -0.6578049167404543 0.8834205046948721
Ni 0.5043876942084763 2.401446442718913 13.233412574485634 0.3253350527339429 0.1562197138590987 -0.18987956800538913
Ni 1.7490464580012792 0.7874575645567974 6.590745877974536 -1.2147989354094175 0.0981814308684438 0.02059196521873873
Ni 5.851544610663468 6.221207090787579 3.9285330066519033 0.5724028970248658 1.502930896730502 0.43382917838230445
Ni 3.696464283689084 1.5849408665694258 7.486562232362862 1.1238988686937355 0.044021914106904834 1.0090744299519718
P 1.9705890064342813 7.776367230350326 10.00644702296011 0.30462481676978503 0.4685624680984318 0.6286493782224205
Ni 1.4000624154626542 6.876798542127996 0.1379412304503997 -0.3373428758280964 -0.4853137194148416 -0.6653426198783962
P 6.86476916793443 9.13789599111601 1.3222718328636631 0.5981308979185892 0.11462749223960904 0.07813736773337511
Ni 9.187193764008166 0.008967265833304441 2.337023195320732 -1.0185530588663685 -0.7387481293537406 0.5472215126632317
P 7.212657914235651 8.711533046288313 6.6154136488385005 -1.5120855666465765 1.0924573623550025 0.4574190498871026
P 9.294287297841313 5.67412550462178 7.55477558243082 -1.0576441113305592 0.0017257244418550923 0.36485933608081034
P 6.145405037392014 7.874046881867158 10.858067229948256 1.5120554847395895 -0.6457873234542879 0.8607989106406143
Ni 5.128677420603145 4.393639223215109 9.271684538073213 -0.22833581509905837 0.4781627101923572 -0.20593070793098084
Ni 7.197304882494097 8.013055081928133 13.051338459434977 -0.6620050708647309 -0.08295741482983778 -0.5261042710686423
Ni 1.101414788799933 9.3117270577593 0.5198776379797051 1.430544572548291 0.4026447823597001 -0.7537212057238052
Ni 2.888485022215256 8.71134420210945 8.127474825680265 0.22062867626278776 1.3425035725479588 1.3413951699751285
Ni 0.9699792403113601 4.225955034593804 1.2174888075589043 -0.4117685990378393 -0.41612893288906394 -0.17196257851565222
Ni 8.26082808680519 4.892584428188757 0.8343437972848763 0.15372111580696107 0.18664692000070437 -0.24761857458807032
Ni 4.907191525423801 0.1298983568726291 11.65449206033836 -0.46562755383982385 -0.14688969470742444 2.9375573526576506
Ni 6.048263591784942 5.8869245675734305 6.275229745034887 -0.7476040370824737 -0.4961522047912422 0.07284552320681648
Ni 1.7306908038158062 7.956911707552195 5.956480599753105 1.2966430625704184 0.24437461372947591 -1.1045451467574718
Ni 6.981748694531049 2.9663832459961985 1.1546254130781304 -1.9933698531870507 0.004078798055063944 -0.5052770499106459
Ni 2.887871278633951 4.903395757428658 12.178615859679795 0.34173354869662437 0.6122693942025004 0.4808489987752687
Ni 1.1436120205668465 8.700561199496379 11.963485515340084 0.6249837564453753 0.13165436581490872 0.22229989331762362
Ni 7.244988037656977 4.758807211882284 10.762767015085098 0.3590517282600978 1.3921618590050346 -0.6840890472479638
Ni 3.23251190505873 7.412908281501861 11.982874147183935 0.1591857384659581 -0.8314880774916389 -0.4303404485027556
Ni 2.8153362295327145 0.5678261192138878 10.6441398230279 -0.6173915459204141 -1.0407151967857045 -0.6500121601689127
Ni 8.234578745943248 2.7984441177334283 5.123143341941568 0.33630492148188534 0.23684950899702437 0.8572068224139818
Ni 4.8353079887396415 8.766458375710585 7.234740408290982 2.579970381868537 0.027229525139914394 -1.2199557970200086
Ni 1.7964746735226946 2.394600841235133 4.80916156795518 -1.0871464916650504 -0.0009273969102758221 1.8059654861950318
Ni 6.329254287723983 5.259027115063256 13.218570366247906 0.21636810121422093 -0.4590781827570804 0.21157067982557756
Ni 1.4583963823134016 7.105262229716323 7.9505004476798 -1.4032222305842543 -1.8918650143723286 1.4273378926855353
Ni -0.16110202476703914 3.5441992222719336 8.77589208666568 0.8734513092973021 0.37876283353577994 0.4508563090679203
Ni 1.0834084963453563 4.490412422673399 10.732060007381097 -1.607335682800838 -1.0975460897318194 0.5358199556945095
Ni 6.561324899128591 6.312796517536083 1.603657213136527 -1.7405283396371445 -0.037444003779071 0.20501359543335013
Ni 6.467035000622349 1.7729824576721507 7.434516776668247 -0.5682600785010858 -0.7393078585119525 -0.2311455166337116
Ni 5.070126282946705 8.23824232301319 0.4745739194704972 -0.7002157776064973 -0.5195757259215051 0.03864753716886892
P 3.0935037049977545 3.6385646584497207 8.527235291031545 0.06889887985424263 -0.07007798776400834 1.095921666754519
Ni 7.962199344560356 8.930403449590404 8.7432220437224 -1.9235538608351772 -2.0729349545058877 -1.6926952793142656
P 3.793010870132737 0.6241375649090136 5.506637713946493 0.5641105751090866 -0.42670028064700705 0.581848872929114
Ni 0.5016702264746393 3.94063036474986 3.55313627303662 -0.4267666151085683 0.6056814565723375 -0.004220980059883053
P 2.5209659235212376 5.614960623384036 3.6074620221910023 0.19675906873404178 -1.4602942930068978 1.1717252441483947
P 0.5377356877538745 3.2998631814501804 6.656334293956301 0.47549056267683265 -0.2387071310310534 -1.0492366039931544
P 3.3437222419910873 9.155845630316925 13.192354073117265 -1.08401848755903 0.8520957264396615 0.8159655563760078
Ni 3.201022138233342 9.22047755053275 2.3211168501351103 1.3958241383479704 1.1769684948252053 -1.9805457048391892
