# total energy = -381170.6180747 ev
CRYSTAL
PRIMVEC
9.22190390796371 0.00000000000000 0.00000000000000
0.00000000000000 9.22190390796371 0.00000000000000
0.00000000000000 0.00000000000000 13.49718853363572
PRIMCOORD
 96 1
Ni 4.388298351951887 4.42699346115465 2.715377645641487 -0.027774856120423134 -0.23270694758356053 0.30641713278351745
Ni 1.3710481340568215 5.427025953303566 9.406082949058613 0.3816689514389814 0.9336302927800437 -0.2855940253905791
Ni 8.404050225931126 6.845944991047601 9.958779321758614 2.9069352568964195 -2.275494431971791 -1.8178761215896886
Ni 1.517307531567743 6.902641256867092 6.6958612699460245 -4.087029698945116 0.06743746481736773 -1.590783434869112
Ni 6.005414550560027 3.8826336896746896 8.372103706078835 -0.041149734765432364 -1.0626567340538022 0.8599771860702673
Ni 5.41228935070442 0.18523946354742266 10.700476772649465 -0.008644820159191564 -0.06436628209121173 0.6009025471264554
Ni 6.5299287846223635 7.081878183098004 10.9090485755186 -3.1225837063357966 0.9941854286552815 -0.30700360141460675
Ni 4.14019224661558 2.2159128694264965 11.70078038877611 -0.23020320732510033 1.1329851472657195 -1.1059883069619019
Ni 7.288651714686269 2.6801066293955844 2.7786389849217623 -0.021456112991246917 0.2911031281342664 0.015894559743069397
Ni 8.530196650808294 6.361527595596706 7.336275471346162 0.009401238709241873 -0.5192260558915702 0.03328550152600719
Ni 8.442966660829995 0.6696955909951356 12.425781582466865 0.7037114494645815 1.088741346955996 -0.5099379457214249
Ni 6.252257255047721 2.362891575449767 10.24610710701634 -0.7944153410090576 1.5924785631833478 2.5147759474490754
Ni 1.3418515859786642 3.6729091488049943 5.714682960534251 -0.003998065415799566 -0.10228568284480448 1.5565365978710999
Ni 4.746449437773554 5.882698673972523 8.464167818136277 -0.45195005635273133 1.4251923070974424 -0.0776354883962921
Ni 0.774623336948415 3.191424318827522 12.784442639579979 -1.8684582054126142 1.815331243680648 -2.67214751552443
Ni 8.039176372090198 7.833066817590256 3.6144395108454423 -0.31173905921706313 -0.7789972066817745 -1.31442558336482
Ni 3.9432953742161048 6.571252136466402 0.20824534746737822 0.03753682060319342 -0.7456476846870512 -1.0657947654621516
Ni 5.760056572617053 7.854535410112666 4.168080206515503 -0.6561216155007603 2.3409806866000586 -0.8647401546765495
Ni 3.3931811346373544 8.448020264224446 4.7112070094300655 0.3390932828602998 -0.22364458027097614 -0.014974619031961308
Ni 1.0057777383437019 8.317880754913343 10.423163052950194 -0.04403091296796933 0.1207652297062307 0.3194503118183918
Ni 2.533376914780435 2.044569893023412 13.426300991147217 0.6673704489417023 -1.0341455139879867 0.544314623429082
Ni 0.1035029617845886 1.67506664337224 8.655611778697908 -0.46605667095744246 -0.05277574904013491 -0.5717706627575055
Ni 3.3821517374480066 9.195326477130815 12.229033182721862 -0.904414590448036 0.577193890655606 -1.677726316709259
Ni 6.044884299699166 1.4521455578721456 12.770081368473814 0.855249698687611 -0.3438734778577626 0.1646771005978325
P 7.615973975420987 1.69191506198841 0.7951420733583646 -2.115565130471589 -0.16515789688899296 -0.5745155724924944
Ni 2.443518682160863 5.472462274333598 4.695455997390428 -1.543236281217768 -0.32463185601933126 0.02970369771201981
P 4.172293694455146 3.8798671184733484 4.80088264835035 0.042493136167204244 -0.30940346910535105 0.5247338730836769
Ni 4.607558341562206 2.267979739435744 1.0649279528187838 -0.1571188286346004 -0.48012754722821194 1.0456339742435605
P 1.2351357128389175 1.0640693935559675 11.488564089444408 0.5357518214607354 0.46865271381939294 -0.18211303668609283
P 1.387693670784893 7.236649398005053 1.3596932036561156 0.21346172620070336 0.7426443790843532 0.45615149602858857
P 5.138269695115548 8.159817320276698 12.553290082565493 1.4124064681866837 -0.8131748810047479 0.23410562770330007
Ni 1.1849501112465826 7.499639656404577 3.8716817564789796 -0.3163480187439842 -1.0904017653775542 0.020638245075641878
Ni 2.9750876727866205 0.3671461309876292 9.742824462543497 -0.6208501938929759 0.4030191349799833 0.5654789162115229
Ni 2.1246713512062536 1.3458723361246137 7.4459405093865385 1.1225474968721636 1.7581000299723204 1.1091888161770702
Ni 7.4086194638804415 8.487877333331774 0.21617618491122387 -1.285866797890521 0.6940114485679983 1.0092749759985522
Ni 5.658707847607909 4.463447647684327 0.4679876512765273 -1.1527008805270922 -0.9918125575477306 -0.6772923360411046
Ni 8.151314724784575 8.186127412401454 5.770183145404363 0.5095085714934904 0.053219007225140606 1.7941723502148457
Ni 0.5666906120267884 2.628159644138395 3.8513013486290966 -0.03327110334830399 -0.2728403252693365 -1.399876454040473
Ni 3.163085407821781 4.334414766853759 0.679436688195059 0.300313848099257 -0.8965346734793269 -0.8923383760097922
Ni 5.6257579845999315 4.905665610410758 10.439643517596586 1.7810448116939521 -0.5448915789784745 -0.815424596270873
Ni 2.5873803846306216 4.332459723204811 11.736345583759757 -3.1304741648274663 0.23148310247878845 -0.5353201332399555
Ni 5.726285960152678 7.392222918560491 6.676222303178101 0.9059307699822462 -0.15754974552443188 -0.43295731730031245
Ni 9.040748922207861 5.657794879111465 5.104353376567902 1.1203702867151866 0.47317297028724964 -0.0025279086281762915
Ni 3.885188157083929 6.346053240677203 11.050526415803201 -0.4748087061184597 1.499799550190372 -0.4921477116175395
Ni 7.071890861061162 0.7984970020351914 4.593767906313919 0.13349836100218299 0.5630700496597141 0.034189758507831444
Ni 2.7189953985824418 5.245225337759411 7.2009661626501495 0.9553620280301804 -1.0649092775334046 0.1854510999203903
Ni 1.3992026069824737 2.952217350855531 10.075368165325548 0.7306365559901997 -0.27518208602863575 0.9471640656004203
Ni 7.665154389476835 3.7806302094812283 5.077709451518183 0.1470989825047531 -0.8026081612324951 -0.6070595678667867
Ni 7.124363494846605 8.182521647935706 8.658122903158326 -2.823656454171421 -1.8258884503712038 -4.518102397628206
Ni 6.854060266571536 5.93282894414083 4.196829492249443 -0.11312725354499871 -1.215497504138339 0.6172894731249111
Ni 1.9542690090116255 7.2546228889097675 12.40735806264673 -0.4603449652846459 -0.8585142283714957 0.23652143623364424
Ni 4.376521980538176 6.2767875196996155 5.038325466086285 1.070406296092234 -0.19864985799885143 0.48984066075091764
Ni 7.185753709804374 3.931915544674587 12.041799943528671 -0.31661721324497083 0.03979193518595727 -0.7642578435890709
Ni 8.910581747184743 1.6740153463157303 6.044783780945517 -0.1428810877686636 0.16693915715913185 0.3884733759553245
Ni 4.774170481210996 8.468917098698581 8.674008554996428 0.4240451024123471 0.15891191597928117 0.7636081258202139
Ni 3.611140835783043 6.772492525651984 2.6690827653486386 -0.5857142694217914 0.8548280377691602 -0.024161684847868063
P 2.5540708673664696 7.41414338437912 9.11284300114362 0.2008376096787896 -0.05639637651185771 0.507578444350313
Ni 7.985698550768267 4.048425079867082 0.6669649852194115 0.4244932456933593 -0.5022464906144383 0.16915621941510867
P 2.313102515729624 2.4872305071420584 2.2344461299042835 0.47819767719535067 0.7035052469910466 -0.3730518991939317
Ni 2.037293810763884 0.22865434321967454 3.0349774839628614 0.44206827846264507 1.6744756709824453 -1.1969439095058676
P 6.50799909689973 0.24716178236624878 6.661388870586909 2.1914545827110516 -0.2794102651773704 0.14640761286468335
P 0.16497894044959832 0.48157151587511415 4.2171693237217065 -0.2914684818934851 -0.8784577613729581 0.517223937859877
P 6.426329915036129 5.00313191383402 2.3306268999093214 1.8479621423417913 0.37783029441918153 0.23131958031773064
Ni 8.912499903217673 9.159932809561655 2.0284518492043966 0.5562998208154161 -0.013674669273615159 -0.3906145906680434
Ni 8.254157398242443 6.417006570087608 1.1554197302434634 0.1506666452513534 0.8347394945494011 0.8768788469216126
Ni 1.355868880065461 9.066330483916266 6.127048697807807 -0.02103702317595732 -0.2153679420844807 -2.408398353923084
Ni 1.9031981046348612 4.911041980445366 2.5520752473399018 -0.8369120767206877 -0.5259834292200619 0.15653133156224655
Ni 8.486853701987277 2.332219522730894 10.805984576364624 0.14247022548349014 -1.510678916107037 0.9010868116263836
Ni 8.54054362710131 7.246018852473596 12.161209767530574 1.9843437384290403 -0.43877932329872815 0.6127051961883384
Ni 0.3439797859379959 2.061943960167837 1.116674822759076 1.8485354983467583 0.31515399843588304 1.7080529927172585
Ni 6.468741451552694 0.4941741698876252 2.2592272303451 0.5863033091560418 -0.3630089131356329 -0.30566688488105426
Ni 3.465314867760332 3.985614691692626 9.218026193837822 0.5081021780642668 -0.4791158181342458 0.5157275558200086
Ni 7.82530197441849 -0.09067529331436848 10.263478407589563 1.9331206785880062 2.649870963514417 3.363766552600852
Ni 8.66685604625056 4.636164687784078 2.770244285706492 0.3086197968617911 0.6871260343020748 1.4339541124504722
Ni 8.310420234573725 3.724182935069857 7.429203675808823 0.6645442923468168 -0.21710446515961318 -1.29882927158846
Ni 6.564492480831125 6.415199076902732 13.05132269708859 -0.5381056664048925 -1.1699933490589527 -0.9980508251479585
Ni 0.08640647395069852 8.571492336940318 8.02317452426164 0.9260432244614051 0.03685033605913009 0.5215994412197533
Ni 3.855502848093534 3.2446992582613556 6.837770695338036 -0.5098109332252575 -0.9893149879368575 0.027053404573366312
Ni 4.573677066249777 1.7454482147343682 8.71063980208299 -0.42302514578826494 0.19569026114989524 -0.2749008073427911
Ni 3.4273390670699175 7.582489241980751 7.1737016034609296 1.1057579361186505 0.6775977830966653 -1.1614169202438513
Ni 5.85114131846922 7.357474784271641 1.4624067704579213 -0.7270346975715544 -0.0168972899759709 2.566035516955
Ni 8.360209294293867 4.1662164597162 9.610214405149595 -0.5231433886681055 1.810203178425463 0.62544501235251
Ni 6.091261254937654 2.5402103456477483 6.565194267725864 0.7741745884821506 -1.6555832049533163 -1.547915174750676
Ni 6.95574098012484 1.372698854873622 8.50552344664433 0.9576752495443893 -0.6592614466813227 -1.5477506241483538
Ni 5.726018524936547 4.83598490375297 6.270969420463195 0.40448337823033564 0.4735298394060361 -0.6049540914880097
Ni 5.114606289440074 2.018886890370959 3.7235235689335373 -0.5778996584733789 0.2554172446968827 0.14892755107305966
Ni 3.4689851855541116 8.778127539968516 0.9440324800817615 -1.3561556161137547 -0.008518578993972426 -0.7283179351593522
Ni 2.944120519139605 1.6139807512466198 4.926986652469097 -0.3754725928202824 0.8805102730266127 0.2302795690889905
P 1.5018239547442347 3.629769081872076 7.9936422988777185 -0.48030881000108244 -1.0004553208243931 -0.3989066554735065
Ni 1.1722423275284206 9.227160489754251 0.05940566121600582 0.6160990523612357 -0.8318076656145867 0.36632640754464
P 6.9279277176473535 5.82338338741576 8.525000107901775 -0.4437919460219712 0.0772739912918153 0.5938443547280934
Ni 1.050965067965613 5.380187902864854 0.327603528806855 -0.5896267171023201 -0.14190586833958785 -0.7404699971408538
P 4.527871869059566 9.06153509383394 2.584860038266199 0.056956619890701915 -0.18951318580490586 3.172911508056071
P 0.34298935344791565 5.144300820334473 11.324370855215989 -0.3220931487578776 -0.03168113315336479 0.996665771874974
P 4.503701258663846 4.473379638297143 12.055257468042397 2.031854382415494 -0.46654955143346105 2.4180677586920485
Ni 4.52482864073809 0.5442638636783137 6.550347924469065 -2.118413912774294 0.22785990390390434 -0.40471632017674813
