# total energy = -340863.39145918644 ev
CRYSTAL
PRIMVEC
9.33431768007437 0.00000000000000 0.00000000000000

0.00000000000000 9.33431768007437 0.00000000000000

0.00000000000000 0.00000000000000 13.66171745207978

PRIMCOORD
 96 1
Ni 5.620314002001938 6.5704075238055974 3.5491913330334963 0.0643696245253214 0.5316938493412778 0.07160985102750247
Ni 6.432950362120863 9.09787938199512 7.9336874165941325 0.4563186177340721 -0.5328521313154371 1.9149414365758184
Ni 1.1402895781997044 8.481357035661084 9.547217565230774 1.6803529556988288 -0.5190417077949061 -2.1782434833374165
Ni 7.499676182936526 2.0298127127853665 7.338705875096431 -0.5203797098800392 -0.9502203359282408 0.12081639465914032
Ni 6.4115187688010105 5.65696986740571 5.803155549523107 1.672918096687338 -1.8229129126826478 1.3345426658296693
Ni 9.216154520913175 4.594285806131639 9.51634244274642 -0.1861273000518085 -1.0858198024338268 -2.1120396338168335
Ni 1.4410879644071313 5.466988500315569 12.856277042746617 0.13567557115915987 -0.5135603729653607 0.15220827870686043
Ni 4.7985206762703045 1.3296082087368348 8.294876037688951 -1.3024830662909632 -2.7285348931752234 -1.7592788807717699
Ni 2.913044517276263 7.3665968162287125 13.52602926890025 0.49881483922507 1.518500983254617 -1.6505605549277442
Ni 0.1940940674458573 9.23403907352678 1.9758668908021675 0.37773696337442686 0.6751436651292179 0.22284059631244202
Ni 4.716276003473605 4.759484559866287 9.533843354904693 1.5110532687273204 0.7602908885215228 -0.20652488987155396
Ni 3.008674601580222 1.7826493157834593 12.944982930219275 0.2879257588475493 -0.3217820452753619 0.8088034914099296
Ni 3.859609667008972 7.474800226404555 2.1065818748497374 0.20138294065929835 1.1431422903043795 0.3761112548455458
Ni 9.350092644844606 6.4667592606419895 10.65741050303797 0.4635884119226081 1.8116836196257315 1.4857669833567058
Ni 2.398508925564487 6.85307866514057 8.227632546784385 0.511817422132325 -1.004304005146522 1.6152474814487474
Ni 2.2509240292316512 7.194957383316932 6.01685261746157 0.036291121121550404 0.38877933723151753 -3.1342372314143248
Ni 1.676042073925429 0.32184073848135714 5.347810732880952 1.7323188072431586 -1.7258226579958535 -0.20552653051402667
Ni 1.5120567814850232 7.472849354016118 1.643805074496229 0.6586420679297689 -0.9624094217952652 2.0957452675321844
Ni 3.139392385923087 2.7698654188732927 8.900199069708895 -0.5716392793859638 0.4625157476837196 0.5504600742051874
Ni 1.1972755874408632 4.25235108204939 2.738449839397118 -0.22127942247290922 -1.3708389291575422 -1.3163500540810427
Ni 5.984931117968873 2.736336549881607 9.311621254658293 1.7246803168612943 1.6246119533827827 1.2155077885509842
Ni 8.426629931290746 4.053502113193631 7.02798324236563 -0.6886275585482656 1.9805788720699697 -0.038759894377017115
Ni 8.090818519585598 6.85289197878761 7.842481798855335 -0.544854555092952 -1.2092116711296272 0.14962200603692297
Ni 3.491520184876973 2.011340098159936 6.243978968200239 -0.16531344863025077 -1.5235010075723696 0.8240611888999485
P 9.328016983607041 4.463119974541669 11.621148930379507 -1.4080268510617493 -0.6938944633741598 0.9399107264721167
P 2.595855069278914 0.1451365048137601 0.8421113349560766 0.08903884513722729 -0.013406760324209168 0.6498455526840615
P 4.325345446056902 1.3174175898885216 10.423247943656225 -0.6162319783946743 0.2395576519568068 0.3960013089012535
P 1.7051651449872498 7.780657812777208 11.443108955856477 1.9261077376052829 -0.22530859823696034 0.9847466518398847
P 1.4305215168295733 7.946351285347201 3.8274258731903656 0.6065281208433491 0.2185301418625462 0.7761599943432956
P 6.689877455382598 4.779347987821272 8.367146058646977 0.08353822703397225 -0.6273849096877001 -2.073108761079591
P 9.026751881517212 0.6318978343638545 -0.11279589445866707 -0.8047465477317366 -0.5633587845447265 0.315087921084638
P 5.715766734270584 0.09496174716036111 0.16528929661583408 -1.6006541570156045 1.9142356687580453 0.16872607385622557
Ni 7.6821900959082505 2.4549442100644123 0.6750447842600596 -0.3340554633260763 -0.6617808706690668 0.010980667381219798
Ni 2.746557627706188 0.366680933598913 3.0691591130758584 -0.7306815502955223 -0.7291463445979185 -0.22523763578970887
Ni 4.375564075003247 3.1667139336788397 11.433136170881333 -0.2310339307565118 0.4305258250406843 -1.0585496538639638
Ni 4.3375080619522715 8.966806893581632 11.741918198973112 -1.0194645149370445 0.823124536018292 0.9290475585053676
Ni 4.14565049701488 8.601564378332277 4.734959573677881 0.28647745643679695 -0.8926854749365658 -2.1043224676782337
Ni 7.3332639679076355 8.791172372716497 1.516300162287813 -1.05005575746034 0.026689593476044354 0.3100246476291177
Ni 8.368393123484752 6.611786553939268 5.351062809149522 2.171777930217731 -0.05522163947746619 0.15469890633919808
Ni 0.340377759898559 1.8992162745719263 5.973217482752373 -1.4296200038514928 1.302390506577157 0.12125502485845568
Ni 2.768045226931929 5.4810739856464314 1.3088057484264588 -0.04208098833045011 -0.720905701855681 1.2020166960430847
Ni 9.223491294584518 9.030177576094035 11.302557467871424 -1.6205822633980993 -0.46666088020034474 0.8204950688152449
Ni 8.733364943522313 0.5185390805510119 8.893327145056423 -1.7955594603703593 -0.803001797126488 -0.47528667419614273
Ni 0.7249031085451908 2.017724771431181 1.212344909851826 1.4130199334009665 1.677522942449201 0.0803621432988358
Ni 5.094082510277193 1.088204085723756 2.0408692120394454 2.92098813544506 -2.3761340945727403 0.4122727923677674
Ni 9.200454198629206 1.9080558733846007 11.819106471899879 0.5210831637049671 2.065207761064959 1.3180999468926138
Ni 1.9714172215793566 0.8435366852609293 11.023789938176854 1.5590498512112567 -0.08070924222560939 -0.43367336953073055
Ni 0.4116480754364819 7.630319292738206 13.279243911763087 -0.07016360549927916 1.668859096126616 -1.733788964030782
Ni 6.778600144627023 3.6244128652318257 11.720018956339093 2.1367857304132616 -1.7394204512849463 0.38618560836241234
Ni 4.0265912754143915 4.433035468762103 13.355421278088576 1.6391703108129319 -0.0005502160765151814 0.07763857372008565
Ni 5.17921148722713 6.665057504756514 7.793886407747981 0.6408479771711415 -0.6603541655248691 1.077486342867467
Ni 5.5776001644446005 2.3620957524195627 13.378004726206193 -0.7308337596026704 -0.9462058154522092 0.8088957940134199
Ni 5.423387902581671 7.2897380447149205 10.650551646430205 0.7071700974371434 -0.27968871564973763 -0.2411658769841911
Ni 8.001507768329349 7.022197832287388 3.0098404578544597 -0.8889422058440496 -0.6973006608422313 1.9833572061460552
Ni 0.5539152110052408 8.349687150918122 7.264017332435803 -0.17236212794691605 0.6006215255509268 -0.8731975414152833
Ni 4.899770019798372 4.494072571862502 4.52648225616819 1.8319485405223546 -2.3755951913501345 0.9458898268736872
P 4.6528399807376655 8.41134031898329 9.00628265634687 -0.8064856419100305 0.06474140604244334 0.0005990670365796135
P 7.968053573878846 -0.06154022282162745 6.506925762913182 2.754880730158604 1.3162616081322944 -0.2093569600037104
P 5.10177398801916 5.935235210810818 1.338699834126006 -1.5179811061954052 -0.11656636113353472 1.51457979382334
P 5.648970357181358 5.329101960019026 11.9070469453254 -1.6719166520060174 1.4261659838646215 0.8977202091469958
P 2.7259567886570095 4.905071912222446 9.85330850954463 -1.7692917849230818 0.049620491240604865 -1.0560636542173167
P 6.477241699360715 8.949678420697516 3.751535070416673 -0.5304010986717833 -0.4621000003025396 -1.0634056964046847
P 7.299753767551246 4.982136038724495 3.649823678165029 -0.6120698765971847 -0.26153235645568507 0.9260889900976761
P 2.0715651156249573 0.8351423334000653 8.025685517901248 -0.5888420164174956 0.22932774669868247 -0.43901046547292777
Ni 2.3074153196374647 3.2250907562495534 4.831630434399595 -0.03135177483840407 -1.5695839179733615 -1.4190260303857303
Ni 0.611191517525253 2.316590953885468 9.42489133245348 0.4696179059461396 -0.2720417406274412 -0.3953436207125966
Ni 1.3079245888404858 3.61407044127782 7.5294237198489995 -0.3339796157828183 -0.4847280221147007 0.07976101937972715
Ni 3.1369281260640096 5.223288135161078 3.733132463173603 -2.242780229568221 2.1790158427270665 -0.9443800750973801
Ni 5.411990700733439 7.401385818102882 13.345462494589903 -0.16656171921505505 -1.7090930039459986 -0.3394324113672735
Ni 8.767883250184688 8.861851825947301 4.192972687195044 -0.21185504383521578 1.030523086744051 1.8974736188083579
Ni 3.8941839795772357 8.668640784950947 6.886680341809911 -0.24323998590440046 0.8283757571149024 2.4740093070546747
Ni 7.000047496508636 5.524581240203849 10.292928734676932 1.8399040479240054 1.1812460391546364 -0.7523016996684592
Ni 7.378488736912289 3.1554100750070884 5.052144354516406 0.20396072868880358 0.32753900236379724 -1.0240374790197073
Ni 5.390045719942945 3.112714906085047 6.6952661569608 0.93258719622751 1.1527191353595374 0.5170668434567224
Ni 5.690536073667987 3.64098127905706 2.244688705042774 0.2688000937616919 -0.13319034284346093 0.8790683983737636
Ni 7.352417987721371 8.789800228022239 12.764019447408888 0.6896891670435605 -0.40604300940797167 -0.8602592360870603
Ni 3.4277481267057035 6.086292473308716 11.579015687379876 0.37762074951153674 0.09404092633750902 -0.8059377398263604
Ni 0.9552740680983108 4.925952780801066 4.903231184782257 -1.7101103894669194 1.3889968310134917 1.3795876218844496
Ni 7.581211447591976 1.4696323077747748 2.991615202646702 0.5748667851843261 0.35446693710289273 0.20772199550344872
Ni 8.890228151597281 4.475273256119391 0.7980160183868328 1.292261388562955 0.17164633282681405 0.41798089849613823
Ni 3.4694071863688145 2.348626332053471 2.098548761081852 -2.8609719027924276 3.1403351167819467 -0.7735683223567194
Ni 2.842757105386677 4.918531998270891 6.577570679168687 1.9188464280571793 0.3102426771771947 -0.6448195602243797
Ni 7.947639421182627 5.955724038048221 12.921266295939187 0.9182453256835411 1.2827742750081264 -2.1332764317084227
Ni 1.8440037856838911 3.341527034590948 11.09148427662382 0.449641977044845 0.7731127228765394 1.291119304538712
Ni 5.926638304256992 0.7050723507019735 5.623640752811692 -0.9171014418870851 4.792367628269527 -0.4574604446479993
Ni 6.516595182564766 0.5822168621140358 10.662519175086732 -0.3667966623128393 -1.1596670274322802 -0.42040724854944367
Ni 6.525696142271584 4.807490955530051 0.40736642393133543 -0.7056060953841332 -1.716394165593102 -0.7268045838386192
Ni 6.413114937118821 8.040021162945076 5.877079611568362 -0.2146320923597207 -4.177309872688612 -1.3058041602443962
P 4.408840917418437 2.440886727686495 4.119731897201624 -0.10921532008510224 -0.5897174770439134 0.1526620784148274
P 8.824757247614071 6.817822947384001 1.234825680475316 -0.7636549198977494 -1.9918174210982662 -1.3847300853173377
P 2.1812153450362417 3.557961857895575 0.18406154283776602 -1.6812129897062786 0.09901395407206819 1.221094281499826
P 0.1846290693507656 2.516149330882476 3.773858091071911 -0.3174700481635694 0.3136355049088276 0.3422817078906105
P 4.492607083991763 6.355550200183486 5.820588321162548 -2.4502571989403994 1.1237487162691164 -1.3647369300248624
P 7.862127737209121 2.125181436195181 10.274895766412723 0.070671141263317 0.7130530385804816 -1.9179136318302645
P 0.7441066002424612 5.863155609932812 6.9863969903801735 -0.6418118837463076 -0.269310200628891 -0.18507494752789416
P 8.010347367142021 7.85827266402049 9.754698911047422 -1.0976157666274902 0.9914443755750344 0.4367180698943254
