# total energy = -381167.95102220424 ev
CRYSTAL
PRIMVEC
9.28135167894138 0.00000000000000 0.00000000000000

0.00000000000000 9.28135167894138 0.00000000000000

0.00000000000000 0.00000000000000 13.58419635553230

PRIMCOORD
 96 1
Ni 1.4809046446942808 4.916146406623756 5.4031138744538625 0.6136117671630077 0.7566206387587873 1.2288150471828514
Ni 0.7380725837527846 1.3734451538773915 12.251613588505517 -0.7767521194013397 -0.052799917409851 -0.6246896222437242
Ni 3.9689287701745903 3.4422584638691514 0.9378824528368296 2.5487484477397784 -0.4373335919911372 -1.753343489123942
Ni 0.9049568574254533 6.367415695109855 11.852904350946265 -0.006968203787717032 0.3961689448273693 -0.6216552062927745
Ni 6.021759592414866 4.496490086250147 0.290029248984336 0.28535542701721184 1.3644525660152242 0.19739721653867295
Ni 2.1482802438641215 6.406657250402117 0.45257634697392185 -0.8809563594250958 -0.5900954292086223 0.9589674859932518
Ni 4.79255592642703 1.081518796590847 12.683563987436393 0.3935592751186641 -1.0499081761388822 -0.6696515316663951
Ni 4.681606647343847 4.356156047456628 10.046084110640985 1.086247891110181 0.43706799703457627 -0.030029456482554735
Ni 5.557255780278672 0.16719334268667813 10.369441765703606 -0.3742844860494522 0.22763621792887248 -0.35512128285744
Ni 1.1968488737104415 5.265774927877186 3.375849463804898 -1.8172282035930445 0.8321645347333733 -1.9264175555362177
Ni 6.90619816547783 5.235517721100276 9.793172843663465 0.5793597879586732 -1.2239988567411306 -1.5847148600775287
Ni 8.368902079347105 2.7237983045459027 10.68435060624812 -0.8471507237295604 0.030682259575205224 0.3711451690895221
Ni 8.398435340685793 8.326059359567285 8.47989405264844 2.4466980208342317 -1.8209357343516186 0.5270825758215116
Ni 8.067545868660149 4.92099127224877 12.331435070015571 -0.2823917164031975 0.7129969885315656 -0.04921245716890879
Ni 6.61433677765369 8.884341950008354 1.1797953179644618 -0.5847462490815671 0.5274286463070208 0.8968442342999458
Ni 3.4928418310268685 5.973617220773201 8.372905126366394 -0.16654397860324222 -0.3911046429305845 2.094353015170348
Ni 2.6966503506126327 1.7733693203836047 8.288411412374286 0.5358487520499159 -0.2577510350363819 -0.618634931409212
Ni 8.50483675740067 0.9097970823745817 7.066458338390781 0.672814502775409 -1.0046508469629793 -0.6904522704618302
Ni 5.231016265490829 7.13212483031327 9.82796213451067 -0.4805520363601401 -0.14507321032397597 -0.06028259894014134
Ni 2.9960946028345443 8.064176737966893 4.790928905461388 -0.6305831049100237 0.019847373743230336 1.631094732893649
Ni 1.785193762541207 1.2367865303856076 3.3518321098243433 -0.25730623418947945 0.08693465431003092 0.8222891846011902
Ni 5.859985631027893 6.3857092394525825 7.633149833537336 0.6301755850589598 0.12516207322234574 -0.06750585616145793
Ni 8.80630434430889 2.312801485375624 3.211046069199525 0.3160682827200363 -0.9453365254733784 1.6992999291149768
Ni 4.938579433856821 8.12942464092446 6.09662854461935 0.6409963298235477 -0.8486291080472997 -0.12612726534909247
P 1.3905135597862066 2.9497249693813417 10.772281204801422 -0.6630103722007936 -0.6997012998639239 1.0063380048574153
Ni 8.399604791009073 2.845940893866188 13.243396563623396 1.1034316019783192 0.13169678901706997 -0.38651856622179886
P 6.289118211560773 7.982927784554295 3.3386563028487295 -0.04686683975486767 -0.45951861272860867 0.08217657079975525
Ni 4.980456893052347 3.4653875924851203 5.065437878012489 0.21878416685488128 0.6226602505185213 -0.09064012818607615
P 2.729302146146733 7.580887469844053 7.144934023893887 0.6147235121699478 -0.5613060157807559 -0.6619130253715568
P 4.082486109105722 8.383102547558353 11.655348922207654 0.5313380086637558 0.9244278003451691 0.5713713704365578
P 9.128107372949689 8.394815613494691 11.732073216631372 0.5516641218156176 0.9664085156523291 -0.9770158588545301
Ni 6.1928427496292136 7.877872163846369 12.758182343143032 -0.8911119598018589 -0.36928420462138334 -1.1711549734672217
Ni 7.156005748422776 0.98335922024956 12.051613451710145 1.02343095578396 -0.7190267396654133 2.168134162817556
Ni 5.633427834271953 4.017563053460175 7.668442173650585 -0.2839096957096207 0.4888852388161839 -0.7949737846156889
Ni 6.740628131216085 0.42980733480670885 5.289617792444426 0.3177500412978334 -0.4366298810558932 0.04897565856775436
Ni 1.5792498480710089 9.25595799360979 7.663429315558497 -1.2039910461606362 -0.4520012213056409 0.317933103842917
Ni 7.627025069502953 5.1754209683762 6.238636939272548 -0.5931987507242945 0.2776588297039025 -1.4892150898063061
Ni 4.315336662363117 7.958610642911503 0.7865008210290297 -0.732240667252526 -0.04933407034843762 -3.383708542940418
Ni 1.8053621399418893 3.999167414247956 13.20226346883999 -0.8332299998834102 -0.18081848624438537 -0.0471522322057704
Ni 1.2477570881801803 4.846322797242562 7.527112245811925 0.06186485582559668 0.3135977096923567 2.3612605198950174
Ni 3.31142852929022 1.3274467744950715 10.474896484537728 -0.31263894532351316 -0.5433275769254643 1.1555902862597454
Ni 2.3799984722053247 1.2632105388806572 5.728183938918426 -0.6365951154320585 -0.19961427879464977 0.48390552621340527
Ni 0.4328135646456785 7.24090227308179 6.863089070902151 1.2540920765820853 -0.9864235253216754 0.16633571924717805
Ni 8.110639184937815 9.208753038497102 3.154508714880033 1.2274708744501313 -0.607921658756766 0.28423159782541374
Ni 0.4426712883627814 7.1606371429570315 1.946438686877173 -1.4159196235462648 -1.4306175918780717 0.6660866971332722
Ni 0.6015986591612645 7.458206562120988 4.631857673710438 0.6641162036704626 1.175750049037072 -0.6903661385059271
Ni 7.850612833691835 0.5294593525129426 9.995442270967105 0.9130254720454986 -0.094998662265088 -0.5279138134735554
Ni 0.834935555251515 1.8762902301839577 1.2391913286297478 -0.5943701453245764 0.34973996394086865 -0.25413426421940105
Ni 7.647991643156033 7.419484762527962 5.9347589853091245 -1.182694598675705 1.5872787641499633 -0.07727681950529271
Ni -0.03839045533476409 4.838507899050489 10.299741598300981 1.3963890097125047 0.1588666645636425 -1.146653903002064
Ni 7.396058630655287 7.259028753092621 10.744909570290446 1.799892026307442 0.8771053611101216 0.2901271373742423
Ni 1.0693509444176788 6.865750034455201 9.165270833580188 -0.7929932638505504 -0.05469096378497678 -0.16432537368536862
Ni 6.431698337483129 2.231849535219733 0.5543380159379445 -1.3100457091295696 -1.1105643563683585 1.1854932444667647
Ni 7.051831856133195 2.133671396174902 8.215667889725603 -0.9001506729653593 -0.970905117971102 2.836441521751231
Ni 4.140847249048424 8.764993047571458 2.774015058308623 0.1866039825779109 0.6088822228978223 1.2768142007699494
Ni 2.5954464908901103 1.227291707522792 -0.09219537969256233 1.491488202111199 0.982697739730656 0.8391664199725033
P 8.279485536375097 0.8768529242596612 0.9228327409384373 0.04026887482237581 0.7179417341313507 0.09309553170510419
Ni 0.47115018814016457 2.8350538682375634 5.957023091939938 -0.1668810502276868 -0.4790697953876588 -0.32924595775257487
P 4.020393865750653 5.865359533703915 13.441603543256406 2.5940723684875584 -1.5035937271254816 -0.48828308645581076
Ni 8.009518857381241 3.7835430498795013 1.7643970376255562 0.2830103238238029 1.6048103452758233 -0.8845044817876703
P 4.4732867068200015 1.2051835276017495 1.2806177141291522 0.2226963574250939 -0.14841667287491214 0.2750098221168296
P 0.5961987687002811 4.9112272901845655 1.251633908815369 -0.6502620713961899 -0.15363652651295476 -0.5413164600327065
P 8.446605556382776 6.014241697479499 8.371451666678889 0.003126975664755905 -0.17897063440236918 -0.25594946305126887
Ni 3.5864721077033908 5.145275137820556 3.783592241043893 -0.18557785530624168 -0.5293250919987852 0.4841456672486694
Ni 6.272532435944105 1.5418738444849307 3.102970296624971 0.09419544963750229 0.19730619948676342 -0.21875794160263615
Ni 5.010435659276094 1.793342789397074 6.699141416930162 0.14527787013561433 -0.7622181874512228 1.060842820773515
Ni 6.4453604872916 8.756537736107113 7.860903068401515 -0.842733311388155 0.9393589677337048 -0.54207930634066
Ni 4.8391019055639015 6.072018112260561 2.0840467926552386 -0.006938378991046115 0.15803954067665688 -0.5579586965750778
Ni 1.1831310357913394 9.497328827793933 10.182061482912701 -0.5398964397567283 -0.8410487245968806 -0.3363468304634143
Ni 8.45171958120918 3.8121945827998447 7.75846478889331 -0.28854513759910305 1.1324752975088368 1.5131934549987744
Ni 1.9986926973538603 8.361866814703884 12.866475299349052 0.10219338024131433 0.33151521340272583 -2.188981952800843
Ni 6.026409549652667 4.140884374455512 2.9227078825080577 -0.37871552523761226 0.017099892905080225 0.3295981988856711
Ni 3.189842821076258 3.386839512438192 6.702428871727826 -0.1907519433080134 0.5903363415748349 0.052660049397877044
Ni 7.232558337838711 6.539083577485843 1.5258588720022443 -0.9117915996383975 -0.5833267430262212 0.7568576944702579
Ni 0.3987045968833648 2.2317567217020122 8.674188942509527 0.9382901601495582 -0.7491377001181808 0.9723511063890093
Ni 5.82101323493702 5.578315167449472 11.719806053994242 -1.1939408610134858 0.5862161487588743 1.58164984799896
Ni 1.6731864093560092 -0.40097295925645576 1.5039196126834533 1.45743111252649 0.8212180630241985 0.5242425352695552
Ni 5.634077528895998 6.299392667972441 4.666904986136907 0.6278911599001574 -0.18035080257934746 -0.5156774193083635
Ni 8.137972765906525 6.360733121833974 3.7708368793035536 -1.504652764517615 -1.2914496912949371 -0.19238048005037192
Ni 4.352777635411599 0.6544476042865408 4.802937118384077 1.0173621238820607 0.5256743826200753 -0.37652288846166765
Ni 3.091776058252692 5.376009542873922 11.410276684936811 -0.11691063184683091 -0.2830272931046674 0.7888339902665382
Ni 8.50980228059872 7.15296146504154 13.364689909256539 0.24885578942928108 0.44369527254310687 -0.26797836919134493
Ni 2.620125605252013 3.78493525264531 9.314425869097871 -0.5448836085586745 0.8936995180233769 -0.26556718864669104
Ni 2.9148456494219475 7.300507114161948 10.271852992496301 0.126944104823433 1.4070516316326735 0.7977217796744712
Ni 4.914336543028204 2.3034551641411616 9.09122328100753 0.024072210457855313 -0.9518689272752574 0.34974356348529445
Ni 3.8867516815847876 5.672288854141561 6.267667151345192 0.1639664476840531 0.15419676989179895 -1.9950793796789899
Ni 2.301162670253463 3.675619491474009 2.1060259617866497 -2.5322000564627936 -0.4264408563380333 1.5668071265591725
Ni 4.049797188164533 2.2610393865428557 3.1738798241634956 -0.5637825023457065 0.8455517546735567 -0.41312125641099173
P 7.888341528645251 4.041768818881703 4.253076426540973 -0.5876631656180459 0.26231165782387084 0.27435650480354684
Ni 7.138677464664343 2.7470388093831364 6.101341615049201 0.1734504759150884 0.6991698528404862 -2.626925924682469
P 2.465043498492694 7.000970048422316 3.1183884781887143 -0.1010736648145743 0.2578646777961108 -1.3798868982924233
Ni 4.277264557394134 9.083658979313302 8.026996570903204 -2.1958617106398117 0.349958507709578 1.6537068138662099
P 2.4342015665541443 3.2331124830375932 4.566137349947671 0.7517897930290471 -0.8217009161978881 -0.7647545807198313
P 6.024683218223065 2.532639583448593 11.2169600495525 -1.2097935117750263 0.5952690029897619 -0.9904169627517846
P -0.011573845659756502 0.5485074707547376 5.117383747610343 0.4620683757336559 -0.0684183406733983 -1.3397985149119702
Ni 3.721432243820888 3.159325736449731 12.10533948457788 0.6287740767257428 0.13272291628873917 -0.7301506174927168
