# total energy = -381173.3028588137 ev
CRYSTAL
PRIMVEC
9.20279156470023 0.00000000000000 0.00000000000000

0.00000000000000 9.20279156470023 0.00000000000000

0.00000000000000 0.00000000000000 13.46921568736675

PRIMCOORD
 96 1
Ni 1.2380331633293717 1.2280665399061013 4.310458798459734 1.005531964016352 1.7409350881572596 -0.9424466055200931
Ni 9.088345793516647 5.825321139254843 0.6262094836661891 -1.797956756957942 -1.3143476789390331 -0.6132194168205954
Ni 4.472271485118424 0.08356687041306413 0.6724277441983666 0.4366723042580545 -2.475823220334962 0.3960779277754598
Ni 2.1312285184469593 4.457657451880979 4.07661954219387 -0.7159673840137991 -0.8455646101893632 0.3744611208366325
Ni 4.330530087181943 5.138167087760155 6.648835716372453 0.7377695674905552 -0.5635503317302424 -0.19989761436302347
Ni 7.036537367537669 1.8127843168630045 11.330896802177763 -1.4542064349416053 1.847150959294406 -1.5349599001415888
Ni 8.377273686364452 8.695892740990919 2.6627431159628556 -0.31803980462411036 -0.44389864680316454 -1.5373445983236815
Ni 1.8332605284205081 8.412097050199776 5.672533630427363 -0.042357639030604466 0.7570700675913801 1.6510729757877887
Ni 7.524773076193957 5.768355858562282 6.6170354696142715 -1.091714313541391 0.8937182870764543 -0.8328888144939076
Ni 8.97875894981923 0.47427967502619645 0.016897245861003354 -1.5726617855677367 -0.39170345285684793 0.40401543745498164
Ni 7.984747011505034 1.9908399308920295 6.822898239077972 -0.6546316612187951 0.8793069967471306 0.41346347024175883
Ni 3.195908694311748 2.5634560367486556 8.24423720910763 0.16978819657215274 0.7685775540103473 0.7144661168779244
Ni 0.4450359638053968 3.5600815679088424 6.075694131109116 -0.6892744481036451 0.6750045684481922 -1.55501707590278
Ni 5.566713489377356 6.998612662895659 7.741606493656624 -0.32546515055390396 -0.32774726171986135 -0.1971647888128927
Ni 5.844518162764485 7.023101291639262 5.331007906952453 -1.0119810620758054 -1.119095019547189 0.056791040847115094
Ni 5.271000183320157 1.995662193748718 2.6623115050315986 -0.5443189943044562 -0.027299973366533628 0.20475185713153124
Ni 1.7825991600501454 1.0010336683898697 12.778824478019528 3.5972767128119982 -0.8994749870545735 -0.9693035778119372
Ni 6.078250666646498 3.1609840997676013 0.32732581586447 -1.5710509894371911 0.3430419830954028 0.6735158997178078
Ni 2.7539722307546963 7.674410469418681 13.001389394159954 1.715635690160523 0.3954901735927899 0.04265434433541686
Ni 3.082180594344274 6.291737028763787 2.591086498582475 -1.1060279019505854 -1.6543079377853185 -1.9047346712461455
Ni 8.062575021006971 8.99125634096309 11.46663982047686 1.360832966984766 -2.06444928563238 0.009689459373622021
Ni 5.188119841168752 7.143197723470912 12.24071608024253 -0.2825110155898812 0.9702713410418452 1.3632032669891556
Ni 5.731866789427225 3.974639726124962 11.45671276905795 0.023418121813624185 0.4837911121227281 -0.26580321591689704
Ni 5.248922686004899 5.864212137026533 3.347113322964895 -0.1647532052514066 1.1793164262320914 0.5556344193172753
P 0.9763149698534855 6.8875073585658875 7.699785327004076 -0.6370586853320384 0.8701194167105918 -0.06646558782240165
Ni 6.468034909575966 5.508367789928109 13.53965976107107 2.2377118139063783 -0.1498865725522193 0.16911533887484423
P 0.5984989575444816 2.54609036878955 -0.03737529797684926 -0.7996773607389455 1.0292149094555887 0.8599522463696029
Ni 6.458565236905103 5.721090320333366 9.54890594665973 0.3411432234107931 0.14566276427885883 0.5806183429561226
P 4.408155635266231 0.5628178935216711 12.059352982872488 -0.11793161691217754 0.4617832403930692 -0.12003966439411584
P 2.474428229734143 3.741533012079314 10.18119203369285 0.5137496061580314 -0.7645627764239994 -0.9694092501518659
P 8.80267273321641 2.7969768764213097 3.7306626745100004 1.11129146434237 -0.5707802738197782 -0.20696094896770809
Ni 6.136808030305103 -0.02635863601932673 4.290106824590332 -0.5229294728850865 -0.22130899015926403 -1.8292504248649013
Ni 0.4792537839461204 6.38448276362964 5.543659575861534 0.914112277351774 -0.9222904422871923 0.6604868344479915
Ni 2.91357624740269 6.288939380083571 5.024313829825407 0.9987126271016736 0.7369041341664664 0.9473167891282007
Ni 3.918677549728927 8.02761361529598 3.6780926471387265 0.7293708019038987 1.6297958115765676 -0.3330992700603941
Ni 6.809596523938549 2.304931211996569 4.514369655801481 -0.107775245204466 -0.7325679686849577 0.9200317281600027
Ni 2.377881741891549 7.544310602996914 10.326483868671527 -0.09393705376979307 0.7237747958733599 -0.32867131619602746
Ni 4.24722641661182 5.189905182760732 -0.048707615690067235 -1.6821090191579868 0.004620272380830752 0.06785346930886378
Ni 7.5352642587447685 6.3147163996667475 2.6135265858911567 -1.2689741359002402 -0.09681771775169777 -2.158262669340115
Ni 7.317369759397795 7.90031139755443 0.3424901760462474 0.8844887980583863 -0.570691570760714 -0.5013278354549108
Ni 3.1788835296459585 5.478293066615785 11.307110346441727 0.09308267618929776 -0.07475636707628416 0.7178975111569765
Ni 6.61247272548384 0.15958008938954443 6.446393624587819 -0.17364279443155256 -1.0942550776853734 1.1923714596438366
Ni 5.508119314551906 7.124000699961271 1.5760194931121392 -1.0865579661514317 1.2220142222109343 -0.6391965576106476
Ni 0.41375843561641357 5.671165175299903 2.884944521830687 1.4441189687986162 -0.01868472089369685 0.8573721443472525
Ni 7.679591641152108 4.46785414509703 4.547894505726348 1.2359583430958518 2.1204355711900127 0.6613453257935449
Ni 4.0627196455932175 9.090775330528414 8.846177090472944 0.0625557112450342 -0.04621840753759137 -0.4064109342703517
Ni 8.398568946384255 3.8057961065988866 1.6200097577710262 3.1337919163467904 0.38238217545592207 -0.7556940131794597
Ni 3.856678341970319 1.1539472554637937 4.726631126342005 0.4080363856889166 -0.8946688239151818 -0.7109030821170144
Ni 0.655067597914288 3.213716096272993 8.544654982287613 1.108637828769607 -1.3673831093984579 0.5380480736940798
Ni 7.52881310175519 1.8213889271130117 2.15207100111457 0.9454141727888492 -1.0027376891006665 0.017419481028028063
Ni 8.397354177878373 0.8289976004191651 9.013101007648055 1.4817624901830029 -0.5149881065508227 0.7211628121718097
Ni 1.429810139799852 5.630553255478211 9.560907307330355 -0.24274659120774963 -1.075049194180884 -0.07991117180434625
Ni 8.93934339292 8.859923300452019 7.052669861407468 -0.4845881541027267 -2.0093857689993326 0.11401325569437783
Ni 5.070342512848334 2.2699514007021544 6.3442297526846865 1.3266308671817606 -0.21786422614377315 0.5921368851186833
Ni 4.766714805919471 4.097671848512498 4.452733958315467 -0.49822477104955487 -2.1331645887209065 0.9417246397524041
Ni 8.470378330107042 5.159526767321937 10.97380087540661 -0.07363690875986027 -0.15180101596611276 -0.18175488201572568
P 4.451942518228301 4.114706215969998 1.756615077653466 0.3062559246153048 -1.0088072923335143 1.3410030767430323
Ni 1.1319433804822245 1.47017358424534 6.6889746127001874 1.0409532809384394 -0.2510581963972386 0.4742664604617445
P 2.464562837019696 8.886666613164875 2.04705150294344 0.9361288908321812 0.53309767166734 -0.5275769989594268
Ni 3.4566145806993984 2.9806922073527455 12.103288951060277 0.9600810307724045 -0.4775168490782421 0.4011121477652576
P 1.0802973133987592 8.980351032785274 11.070415463907867 -1.70249349635161 -0.03935407631759029 0.3992725234533575
P 6.317458831596696 0.029762748673313518 2.0313865108925713 -0.5792991099240667 -0.9707997027414894 -0.18837778664888202
P 6.589649802039971 3.8666173570184554 6.3258168070288425 -0.14765974010422958 -0.18069635884422428 -1.0714319091432707
Ni 2.9314112577390685 2.386385121432733 3.10566427823301 -0.1343779353936589 0.44114808064122085 1.2523864067448882
Ni 8.563989127393752 5.0418598725020525 8.3843313073278 -0.05831930456618343 0.1177467545948811 1.1898759469154925
Ni 1.4227515985573325 7.790328833813429 3.5697463397639844 -1.0006520102162315 -0.16874047203392875 -0.5466759245724069
Ni 2.1459161740180943 4.041709672116462 1.7332998048530455 -0.3213184753753821 0.438798863682754 -1.3725379141265202
Ni 0.8697696488166322 7.799651261816913 0.995777954043582 0.2175346107184963 0.8677619722220088 1.0184077915377558
Ni 4.4954165062721865 1.9250951869069484 10.22945147342658 0.2876020569595434 0.3587920468408079 0.9070173181782057
Ni 7.8891668167921205 7.155888373240709 4.5464257401692345 0.3116526701508439 0.5611365800824271 0.39825128127769477
Ni 3.5564096540160586 1.9629922831738245 1.0179842904427983 -1.0895779839246784 2.0335184003814786 -1.323570997309514
Ni 5.95699468305923 9.061630089178925 10.596932750643866 -1.3739327375915178 -1.4252373014027648 0.6525601234017471
Ni 2.9986284483979477 3.113764575497241 5.892054263069712 -1.589202463535237 0.45413446559855986 -0.5778793467584048
Ni 8.073940468770349 3.4513689894239925 12.701578084953741 -0.3655329651090673 1.0879137088483781 -0.08738382603230756
Ni 0.7527276235539414 6.884516451259735 12.166715511813297 -1.0041949903724834 0.1961394328721719 -1.6564969750168375
Ni 6.099417087582344 1.1591284271972204 8.763677743898382 -0.020722320149015927 1.2706060150767085 -1.624192349346861
Ni 1.0251173742981785 1.435699926495044 1.7261611993226385 0.6672004990227413 0.2937174258286619 1.9116648227070752
Ni 4.12743367690664 4.889728522723584 9.00788854642281 -0.8448845534032029 0.31305854935943506 0.6437294124839946
Ni 1.7249896839377978 9.05320033197143 8.527292995445192 -0.6995750586987048 -0.3180097227171233 -0.5516152708555532
Ni 1.3786978346356382 4.003886198183276 12.112690523072478 -0.9864412659334882 1.5676604756984034 0.43771308681774296
Ni 3.192880975838751 7.099760546593871 7.699300339880893 -1.0261532398111295 -0.8133101210310315 0.6775720720650524
Ni 2.0533176838196217 1.4756032313549703 10.232523365299791 1.8744028530318235 0.39762881720234744 -0.715986924397825
Ni 4.490281348497317 7.002634282873469 10.17853794856333 1.2390223267331564 0.2819903671997208 -2.155321327323604
Ni 0.0967075366975403 2.1514378490448367 11.032891080705298 -0.7152595593134973 0.11730658173366892 0.1670836531567961
Ni 6.596984427033827 4.170870853783682 2.630564634465342 -2.57707531970893 -0.9379482034291072 -0.7441767565684797
Ni 1.8575282901630417 4.995698669278486 7.1424421742714195 0.9652772302613634 -0.043581484135376554 -0.020181360043881373
Ni 8.699702696759372 0.05749260065761465 4.754349934976252 -1.1573527774768069 0.5398810131377606 1.967605856849069
Ni 6.706819746107448 1.0069142522933505 13.421265845706 -1.03679580712664 -0.7693157177279525 0.2972681192943977
P 7.8281154965797715 2.861874963568957 9.33602512823704 -0.4703776669302996 0.7968432337242598 0.3677369147389215
Ni 5.882120769696602 3.5088128152855376 8.272025038679711 0.6187174638206893 0.4278256525007019 1.2320523231732263
P 6.885593177889949 8.349628500063893 8.614075321282163 0.982208201688747 0.28161678591038597 -0.15301483376855582
Ni 8.82648035537338 7.450193652166088 9.421514461838584 -0.14567664823592974 -0.08261648655065126 0.13400821075906597
P 7.177174430468802 6.685276010711441 11.74029403480222 0.837120593187068 0.30249414358002746 -0.24689712304101352
P 1.9748454788978986 5.718099413027214 0.3117703370349651 0.7130306699829785 0.7129016006042819 -0.8661578609596824
P 3.3124344429594386 0.9635783061251327 6.840395506958548 -0.9204341058047438 -0.7229016492397873 0.5658424701985286
Ni 4.15182107494142 8.377255280781029 6.033009742594054 1.125333801368049 0.31291816712682885 0.41452096497199575
