# total energy = -340873.4850812069 ev
CRYSTAL
PRIMVEC
9.18761703021706 0.00000000000000 0.00000000000000
0.00000000000000 9.18761703021706 0.00000000000000
0.00000000000000 0.00000000000000 13.44700622228398
PRIMCOORD
 96 1
Ni 4.012232355084259 2.6004631229288955 5.596455915095446 -2.0260861124731493 2.6480912459061745 -0.19765458396511765
Ni 1.9100412663053168 4.505938143572483 6.0293690792486085 -0.5512252345059862 0.2735964867090707 -0.28258094959586816
Ni -0.029688865656558906 5.818765927979044 7.929484044119456 -0.43854252469757377 1.3307551737627792 -0.14413527189073885
Ni 5.049018185956341 8.770370586009761 2.763104157039664 0.5930262297021722 0.04423711544150446 0.08275686878325748
Ni 6.026259070885439 5.206925759775515 9.191216733961486 1.5714081156662938 0.4085583196306577 -0.23616559555612232
Ni 9.085634476626572 6.735469604326392 11.722481481738589 -0.7113615098106717 -0.7073644728361366 -0.16915699074605706
Ni 5.756051254162224 4.541282906270008 2.286165769623179 -0.2511859802243545 0.8573778007742072 1.0229789558482059
Ni 0.9194875243061085 3.147273337825151 2.04752201119145 0.31702370465477014 -0.9842946519041307 1.9350178956107194
Ni 3.5578220046145717 1.449907030428674 12.117527882320696 0.8711581423877514 1.2388336077611182 2.3845678271623902
Ni 7.942079348299865 0.7041959320683744 8.755399364066527 0.9085844055550094 -1.1072792578591832 -1.074073717641492
Ni 0.18507168231709475 0.37112184584741703 6.75709357975787 0.8798826667449428 -0.3445926154119743 0.25506063268841234
Ni 4.966219381321536 3.7033814211513243 11.24453429397269 1.1343149218207367 0.6785331504267411 -0.3832735769219399
Ni 3.939833932922445 6.497694075703584 3.1072134900700825 1.1768767064423475 -0.7372584321820915 -0.7128206108547014
Ni 6.366173337981964 3.203170799808967 5.356534159135455 -0.38386467353871956 -0.1513302469772813 -1.6677211258674312
Ni 8.955354067203409 6.19020290909044 5.651951878215243 0.5217156550826434 0.3627554023639301 -0.5411182279789712
Ni 6.800958938484946 8.647192204547396 6.671073596593886 1.5218493309015597 0.43641879348635165 -0.26785984133560964
Ni 8.520494965764222 4.875684603151167 10.011565276752739 0.282810549108171 0.38744416335986176 0.2616004906894591
Ni 2.91067382418162 3.6517470134673915 3.368676532908321 0.08502098222708583 -0.2328470727058506 0.5620989439956965
Ni 4.153050961235796 3.0305814139828677 1.1938132309802023 1.2153473517137197 -1.4935779947606922 1.578157004354353
Ni 7.4221612884375725 8.205929334041357 10.68590512853469 0.30961738488837 0.23296997143696008 0.1554463260281839
Ni 5.636171227212054 -0.06743619020628108 12.026813945618326 -1.1516490422238101 0.5742466351018239 -0.380514526119564
Ni 7.006559432284066 0.5878981569964898 4.083076232445339 1.4597857288015956 -2.8317106919344655 0.5494390891398409
Ni 3.3670135742266853 0.523100650399964 1.2297110882226692 1.2142890856525346 0.8465534564651936 0.9605062912352814
Ni 5.464096347939388 6.991601991766371 7.41380515075278 -0.9453979748389331 -0.4614261141639666 0.46628164248405507
P 0.7214631395063075 3.797876062259732 4.270890418444579 0.814244717030159 0.7489448673810843 -0.27262409549347244
P 5.136603739061489 3.287044555635769 9.048813263873031 -1.3064525924616726 -0.1525648907153308 -0.6344464445201718
P 1.0755759499542112 4.74013968917233 11.89846201700884 0.5275266053374656 -0.10744228734507946 -1.4892184322404158
P 2.0477912083703003 2.5571618838871912 6.913684568057273 -0.31774104243676893 -2.221668644400587 -0.4671187936733697
P 5.5307249466091175 9.117102064939289 8.413106422922072 0.0160951057896497 0.4578731067053856 0.07066702749825894
P 7.668159734298303 7.391107142891007 4.058239347340005 -0.28766504898699485 0.5027709956593406 2.0481685461944856
P 4.028531187687692 1.438881889997941 3.238038725182863 -0.6860091470888121 1.23105190693317 0.3648382530348878
P 2.21405951368278 2.2012979136342063 0.5843554118714143 -0.6556233357081032 -0.12162423527241635 -0.4454608490839619
Ni 1.6635099386571008 7.720400524705926 6.123322569714207 0.6220827807484963 -0.8209205863884379 0.8964958498215915
Ni 7.872354522692505 1.1428752446668107 11.938534727427745 -0.5385319553090337 -0.660005781046515 -0.8327931694563078
Ni 3.4959066534789804 7.889912058828448 11.246242271977753 -1.7983197967243159 1.4006554982983423 -0.6211934361650076
Ni 6.513478401753583 1.8774711639495263 9.835570960056948 -1.8551262641903987 0.17983015418918707 2.391208986627992
Ni 2.874097920802664 3.3450184190673733 10.573434914715675 -1.6053302223350352 0.744349534700918 -1.3514378989231113
Ni 3.730521641844979 0.9691190314784582 7.639956506314786 -0.9618003274563566 -0.4801126348298764 -0.9418544804620489
Ni 3.155220626552304 3.9355984414736387 8.043596085100948 0.5712286742111065 -0.03183025713671937 2.0052146683407788
Ni 7.035831180127662 7.397951917575088 13.107818858472973 -0.5989708773213813 -0.05413123462676484 -0.7337812722667685
Ni 0.7735468216627929 3.7278388576735004 8.32759635250301 0.5988096691531687 -0.5160733691952015 0.5015150117650523
Ni 3.758975691773296 6.191599426878333 5.795336585802033 -0.5392477504291358 -0.5449319452981067 -0.5059748473086189
Ni 3.8977454593281218 5.6254860286112685 9.93942227034424 -0.7419674076219867 0.29547734594256214 0.1991147134504119
Ni 1.9553362182415783 9.212056086898977 12.99912659277489 -2.0820901386425947 -0.9938848666957271 -1.1172014020689016
Ni 3.3748781744006084 7.426461093205559 0.8962244779972617 0.8193972077653758 -0.2987547311422532 0.6520551587408706
Ni 7.225096090855245 2.9894943906443356 0.8158934672955358 -0.08938234451957511 1.6664281180876204 0.3367556358660587
Ni 5.034547689141004 4.619497090009034 6.8979379112370784 1.012403751435521 -0.9079927947175975 -0.04249365038783649
Ni 0.20412496250480655 4.462783906403189 0.4367636944485963 -0.7708995172753046 0.31718774103646014 -1.201119638150112
Ni 5.015198567685068 0.7257987759806932 5.206142974804933 -0.8247913821977538 -1.8455460767011311 -1.5103757830443214
Ni 0.5063883750303779 8.36825615164985 4.194524783251106 -0.6437039585626979 -0.02480240375566051 -0.19210845733590784
Ni 2.2281165677319645 8.32808789001388 8.560431699451147 0.7125336757419019 -0.7806481120216362 -0.4533641630914385
Ni 7.634101237984364 3.214269441175905 8.251822399845986 -2.088222733902894 0.6733135538990146 -0.1785597721171957
Ni 2.0380339590891015 6.073850927078103 4.227187680538855 -1.3213629339146018 -0.5313727185564332 0.4085781171249996
Ni 4.112257941642084 1.2818379521791747 10.01498031400116 1.006615683998834 -0.4564032070280785 -2.0566184767340516
Ni 8.239767327546682 3.5728437584514454 11.936853393512058 -0.3830007828765275 -0.3128832001238353 0.12969801341948628
Ni 4.857520684291535 6.538165528701399 12.26025383776675 0.2594338220554435 -1.0754299745590705 0.7590241059939573
P 7.669372499745684 5.232917528340968 1.5079746075539397 -0.07259869730333304 0.18840041235670132 0.2702921049261861
P 8.743331429103387 2.479195765807858 9.824383198804863 1.5100523382666318 -0.10617833303099133 1.9084182907453195
P 8.902212890327275 8.530353278832703 12.994635685572769 0.19244964272541049 1.7736130380062554 -0.9935603934767726
P 7.679745319367599 1.3792175050336242 6.11407155813112 0.02166771478142075 1.195156992808774 -1.0234432970791343
P 5.985897869291931 2.5161299862508137 12.579835908385599 0.8946048034464658 -1.6564668931098505 0.32135009994426594
P 4.587928437909035 4.646618935468637 4.40342363156242 0.9387359894377252 -0.3546399723456473 0.2138995850690703
P 1.931328974953657 7.5809324982571535 2.5901491040559446 -0.550727211823645 0.28939385875264356 0.10645446951051343
P 3.237881616931725 6.160104275714539 7.8762877415411685 -0.5903828785420542 0.36042649712043734 1.2638949216051198
Ni 9.24053769967837 6.163797697758834 3.091224280160412 -1.2011726028752345 -0.8644863867945305 -0.4647798611275479
Ni 1.8674842242426872 0.9000612268671568 3.219051595837736 0.9212159782760909 0.8080655848026406 -1.4141231937674743
Ni 6.088661365723389 2.19450826465228 2.9232985287365123 -1.8582704662463352 0.8709331708611388 -0.6696224782006726
Ni 2.1125179703157286 0.8623745405898037 5.382056440470899 0.7981411266000771 0.15641331792714352 2.1092034499196193
Ni 1.7189572074066624 1.6043324973951412 9.018853363514216 -0.8096079895890961 -0.11191549262508468 -0.3752303949024892
Ni -0.16181598610186856 1.7354581675846594 4.408103803675266 0.943734471093581 0.2571416835871571 -0.2698457614173869
Ni 7.965884464013223 3.7385424315083373 3.2943284984136727 0.15682597998452993 0.14774124407444233 -0.8263795526204799
Ni 1.0287466659746727 2.1423409751808613 11.58576606535069 0.17348184337365607 -0.09868073910236554 -0.8090767996759745
Ni 6.605832328095023 0.6975523661971552 0.7101219450498935 0.6843104192301506 0.3495201346205787 -0.24654282502538832
Ni 2.002533006902141 5.529245740267995 1.4404970730710436 0.9611009873964868 -0.6170950977259179 1.765632848014256
Ni 8.479086375829795 3.5291474518776407 6.218097433141896 2.466462605055668 0.30180765903596407 -2.0646701433939345
Ni 5.832133910751307 1.7744779770924286 6.979157364505181 -0.02116300723086033 0.5944704183478665 3.6676773740227477
Ni 6.980889230314509 5.351777729801295 4.723435682658066 -1.6293299276837425 1.0066722482683823 -0.17141210532882092
Ni 9.068517946107859 6.842450216972606 0.811836215617026 1.4758558948905809 -0.5384548222141952 0.1532827427179618
Ni 1.9749793434423344 6.577332340081579 12.889035971765507 -0.5008236421249826 -0.35828193997360874 -2.39097733023316
Ni 1.625656956511584 6.393157369186183 10.11385652966908 0.2908874125790345 -1.2906043125755065 -0.19451603833613598
Ni 7.162491668442733 7.51192430677779 2.048490386025949 -0.9484565591595988 0.19415248434913013 -0.15508405759275873
Ni 5.394812527949257 7.613870105293969 9.887744680860285 -0.7559302975599821 -0.604672555691849 0.10730807576006036
Ni 3.1383062236081547 3.875594114679374 12.859506970645192 -1.6168464505047506 1.5558539699817784 -1.1760043311397232
Ni 0.442970848511099 8.389819488808959 10.038633834033595 0.07528755698940581 0.9546847994574976 0.6829076253453529
Ni 9.18862766348367 1.9261195961001356 0.20811973838754214 0.932199473870788 -0.895057060492536 0.7023449081343581
Ni 5.432426632052108 7.549565973731718 4.795713747036845 2.0767790108423263 -0.7859744093305561 -0.4719013026636775
Ni 6.352401100060574 4.905048227165019 13.055712207273922 0.40558303905241766 -0.11061631419768692 0.4157702639980646
Ni 0.4903973275973022 9.151803694445022 1.6079257744138578 -0.48261483242643977 -0.7573510891669086 0.04203985067986953
P 8.70238222002024 7.984085133340958 8.159898453981345 0.5798686092742916 -1.0925136695142346 -1.0948723995543983
P 8.037079308344682 1.482798699380361 2.1651161590256485 1.5482316775498304 0.08285559914465085 1.7056729225208562
P 6.899045937850367 6.012688960538612 11.082134894189696 -0.581608989004166 0.26892144983090466 0.48720913666534166
P 4.209545618326278 5.208726532712535 0.9225470007756369 -0.2491069862081387 0.9530128110717137 -0.7856607347448792
P 5.276393332106158 8.337303069890567 0.6763317271531019 -0.3609512592756558 -1.4314855963053217 -0.8445688219349972
P 2.2148680239810337 0.40182318690019825 10.733763425621097 -0.07191684074496002 -0.6321386223226017 -0.17790542636264844
P 7.163952499549805 5.038149235015044 7.015155366773228 0.5450993241139064 1.3262750265042385 0.03909208090545526
P 3.7083886724302824 8.273504257264726 5.734784677033042 -0.7585970457588677 2.123551491111175 0.7852987234197701
