# total energy = -340859.8281038429 ev
CRYSTAL
PRIMVEC
9.38145391012732 0.00000000000000 0.00000000000000

0.00000000000000 9.38145391012732 0.00000000000000

0.00000000000000 0.00000000000000 13.73070608936661

PRIMCOORD
 96 1
Ni 0.46463715389048416 2.4363354874472427 6.716690532479589 0.04581911521664367 0.013031122152345299 3.365913680850842
Ni 9.025193388107809 3.342931068067885 10.851130192900024 0.6199456798008355 0.7674460115090654 -3.958684600009098
Ni 6.407298619311276 7.805538683908092 1.3969069599680901 0.39473529770463633 0.39066009919399813 -0.9967850710616575
Ni 8.417040625566202 6.307939638854998 10.791895691663036 0.6796916895112165 -0.14508272340567271 1.1653859321939284
Ni 0.33166629965658956 0.7767853382756844 10.979430021133618 0.905648205744821 -0.7841412127765592 -0.5246729379387545
Ni 2.0210560399089976 5.151121914269686 8.982381122286618 1.5158979984141312 -0.3688592012688228 0.33328336104674217
Ni 4.668155275343278 0.9179968617979176 5.651421727805765 2.4584847290565146 1.1244747958018635 0.37539725949765673
Ni 4.593957354804264 8.49799319306287 7.312493548833616 -1.4016610567447214 -0.6911958334960742 -0.7122693663369217
Ni 1.7306812723627143 8.004706954617824 0.711073881122635 0.7300680850812394 -0.1571468536590584 -0.9082223942299004
Ni 5.6012065565480675 3.5605526590077643 7.060672805088968 0.2714439591424422 -1.1684188054829812 1.642167188657727
Ni 2.57153162259552 2.7146269421026097 5.686818892300107 1.2610682507896023 0.3766588998188997 -0.9256588445387928
Ni 8.368988817625777 1.4951504855309432 8.854108500269938 0.6801686291476351 -1.6248340966959176 1.895863594008761
Ni 5.8869281228568555 6.046028203071943 2.9294734989173854 -0.8078452412617184 -2.0811768827997064 -0.915699676443552
Ni 1.8595543074422987 5.183666178569831 6.570033074847746 -0.16793237431033659 -0.6537184053759064 0.06553124893359037
Ni 9.865068067113397 7.1765028045224035 7.45474359932559 0.006063175474944397 -0.6887676836705557 -1.168662031842039
Ni 4.531683262436332 3.611690965349674 2.755106978432587 0.7936198416909558 -1.4909143318856 3.2935785216215403
Ni 1.155973393715606 5.671764472893234 0.08931144310676577 0.6671575615999478 -0.4928786762462931 -1.1072610030267382
Ni 8.497083192014408 9.232561049707803 13.826958394709726 -0.015009843145270926 1.8312206612173945 -2.264699655349132
Ni 7.631606524748487 3.562916785442943 5.452215931279602 0.5926151103066826 0.62408952676588 0.5381987403393311
Ni 5.090273802926148 4.387321446624681 5.158104530562161 0.6712319887796375 0.2004401171300548 -1.5855319566621855
Ni 2.3809004751239358 0.35468275916479747 6.592606729722064 -0.04234298374258514 1.0635357942246457 1.137666611901789
Ni 5.706691626536773 0.36063435365081975 13.492505803183104 1.2421037938719577 0.49665845500369954 1.3638524705373802
Ni 2.61265991740435 3.8215728566505733 11.282754947930382 -0.33497771803002957 0.7897981539520205 0.4609561165060836
Ni 6.48039890971967 6.141062333184499 6.609948347640431 -0.492222530719533 -0.40548765112513396 -1.0705397363463047
P 3.380353688504113 8.901048605898582 4.860450692773594 0.7316673112475592 -0.3918541195020993 -1.9202841889449704
P 1.028057266955023 5.37060103312292 11.087161011235745 -0.08643020386978664 -0.3755330137445726 0.469964747762597
P 7.224451416467644 5.748973840200868 0.947833638442535 -2.0314342641589405 2.3640607083479734 -0.9041320262106105
P 3.147534141909512 6.249042869965894 0.5433832033809852 0.7484676706343497 -0.050697269244551396 0.20525707890272388
P 0.574324177174097 3.764805677843952 0.9782980343669678 -0.9900801482376561 -0.05067850019147401 0.4299568399110918
P 3.2474653910663682 4.841890423966618 4.308970356352121 -1.6202444204427064 0.12437608698594065 -0.4242916712055145
P 4.623227491620767 4.713767905215661 12.275649586743759 0.40458982190121284 -0.2165660761576399 -0.669469497562576
P 2.7679323643434337 7.291688298058629 8.167133698459557 0.5730374452850711 0.6804041421972088 -0.28078940491308413
Ni 5.031677240568495 8.147211242516118 3.258626507018481 -1.5008544738174474 2.0081395552970576 0.4366018560314352
Ni 6.991660014235365 8.473592030928343 6.559116814847848 -1.3588537317712082 -0.07852097632503896 -0.25028146613221414
Ni 4.038453312715932 5.696615944824939 7.295137858734088 0.611778570609011 -0.3694464412308605 1.521399902068967
Ni 0.8312887722060812 5.517570893176553 4.572901619204598 0.6691740778093443 0.13958441929526283 1.3132333628289319
Ni 1.0473924438713091 0.277752021044166 4.508573926532456 1.078987867113658 2.3947823058015465 -0.1256312995492804
Ni 5.89853298158827 1.0113770415512593 2.3692196266142473 0.683227727688933 0.45620754607750463 -0.31691597543231226
Ni 4.410943948068257 6.773559969135986 9.963398840199453 0.36593508564349236 -0.17414750198211298 -0.9022240105546204
Ni 6.176505466803971 3.4253471424053794 13.355830212722017 0.3434150501641054 -0.2783671686248367 -0.456084390236079
Ni 8.273025923556542 2.5466989135720315 3.3077684399262397 -0.13544442898496029 -1.1846062138761213 0.23764655097702295
Ni 7.625236517409255 3.9462336188357314 1.54978525981885 0.8766201939435871 -2.421929298529984 0.474289600390196
Ni 8.853691025562137 2.096717467288836 12.560479914912301 -1.2000644574127204 -1.5497625123720598 3.7141804026802934
Ni 2.83543192664944 6.6671836610070345 3.0977570845586517 -0.26569317270159404 -0.32268604514687005 -0.4918114113240433
Ni 8.702049201362792 7.122934701566559 0.507221450376853 0.8296512813932163 -1.1296794799312544 0.10108394922721946
Ni 2.9879649889890305 2.0138135573377345 9.752590999378109 -0.5543514388397938 1.0197339665483471 -1.0816175914270212
Ni 4.526945628111866 6.682100173038521 5.265464953227026 -0.18659344105494963 1.1939938257386082 -1.3781490896657105
Ni 2.759141941844375 3.873790030214886 1.4525577457358774 0.21961874694103467 1.0535177478670115 -2.1588195702848503
Ni 4.2749972965913505 4.126817228957804 9.674161104891041 0.19528505529167656 0.7976947830912777 -1.694315845636824
Ni 7.91262798254924 3.5517340921463822 8.405196539755037 -0.5319573874153096 2.5699513070696383 -1.2175762410442386
Ni 1.219335734760049 0.8285456350249448 1.7112307035609016 1.4026506743515004 0.733058278057815 0.7290108474613187
Ni 1.3776571542841856 3.600770952768132 3.171491561264738 0.9634304068606119 -1.3698351704833762 0.7072760268873883
Ni 2.2043227459059165 7.537369818235097 5.775958654796699 -0.6876389693827512 -2.097922220578845 0.4415288610194073
Ni 6.571952520358213 4.545624103240602 10.58152784103935 0.2934662290498043 -0.26070111880364133 0.17301673081177943
Ni 4.858617556640921 2.625306117541736 11.421133272312042 0.15342158228867125 0.22468819104414206 -0.761070961220657
Ni 6.87481400332205 0.3649179255964657 11.08464865782566 0.12418659668295387 -1.8835053295537239 -1.0408455517159818
P 0.8247836719276955 7.900713535832266 2.4906813129486274 -1.0851191768223762 -0.1949441270124901 1.548666965315036
P 5.917070734905388 5.097244223328284 8.48900951260919 0.163134438701061 0.4374284656977886 1.2563070819555333
P 3.6034540486429787 0.4472035977218599 1.4465573676884942 0.36581347246396356 0.3016667625827256 -0.7228006048855488
P 6.035145716306834 2.615127239834715 4.297958405520323 -0.19187191584506955 -1.375715026302921 -0.87456254008361
P 0.6277478057366799 3.616391073857709 8.850222701978463 -1.1003318800070727 -1.61897635236356 -0.2590615263176893
P 9.388114940270123 7.892673629661836 12.143738836824053 -1.3889883463730595 0.7483350017112274 0.04031206935548541
P 2.922154088422438 0.6745059111556326 11.281161977022869 0.9006839197610101 1.7384776277557026 0.6444611484436965
P 5.631161539514444 8.27784799096798 12.020354890542972 -0.7983828102972379 -1.3471868369562412 -0.545656739279273
Ni 4.136339404877276 -0.1295231698492584 9.499905285564717 0.12670782044291082 -0.41987528730537366 1.07071071470653
Ni 7.769129260515513 0.05191040001498602 4.517566988440245 -1.50804147848419 0.7070803659368144 0.0527109572404705
Ni 7.7101105327230055 1.5666746916492187 6.625024344391751 -1.2942341960186097 -1.0311812891533403 -0.3926570750193689
Ni 8.696063833641983 4.469024530449978 12.698404176915142 -0.6381868853992105 1.7926134903681579 1.7338642973534077
Ni 1.18685714063866 7.167834340926747 9.653551926506909 -0.6594213692979546 -0.04651819816619731 1.0501665720065914
Ni 0.6722468570064616 9.16928314175033 8.4193803602207 1.6491675312349596 2.4311546737829937 -0.4406878531753507
Ni 5.919500531519322 2.299863474540297 9.276767399609419 0.5873021827342014 0.7860420293436978 1.078864711272232
Ni 7.866771434870052 6.188382387704514 8.534389482419698 0.8730399327914965 -0.7173868900691451 0.301821542993035
Ni 2.987298905747373 6.367737027338457 11.724005074875398 -0.18554057431040302 -2.1543965015164894 1.195668899448186
Ni 4.238794265189144 1.5891432742375278 7.760018930431376 -0.4651125618766183 0.43438916465083255 0.2257487710981725
Ni 8.434330645486977 8.47325429858046 9.72506112229861 -1.08630574093131 -0.7679604892516386 0.7737110185821707
Ni 1.7533750098496121 2.9097893319082875 13.211506860872207 -0.4825690667901689 1.0628431390329955 -0.010458219218846505
Ni 8.581975970236375 0.10844022803267914 2.367119119039499 -0.951296342601239 -0.6101366641302138 0.9069908358156444
Ni 9.645260597366388 5.363030199657882 2.460488041047911 -1.3395177504467575 2.0771441074912294 -2.3375495494313223
Ni 4.914540404577835 4.957104061865167 1.1683859956457072 0.07211044481300484 1.8089363958978975 -3.196920469376159
Ni 1.9459574997756297 8.318582264704279 11.48303116837025 -0.7450722717995555 -0.5667107317360949 -0.08738099781883014
Ni 1.8970238351490656 0.7394752952887508 13.200550260619647 -0.2962260511831285 -1.2714616782087846 -0.4388667408062119
Ni 9.345541901528682 7.795810115998248 4.431613167758679 -0.9983637284026868 -2.8365327959134565 0.3706947118156648
Ni 6.54399578711681 6.354912579573021 12.284904391221156 -0.22671602010744826 -0.6769820038895372 1.1438035780374625
Ni 6.2844297148607176 7.790715986417683 8.725767393638268 -0.11602488680776792 1.019265768662677 1.099429165687145
Ni 4.015609471963308 1.8778106171361817 13.261047505579551 -1.4821671818205893 -0.268754328125421 1.936292905668401
Ni 7.8808342345777245 5.553201655878181 4.0964738537913625 0.5754033744140865 -0.5015960015146329 0.8460171243457495
Ni 3.8202219272590425 1.2854093160416615 3.6052993806659934 -1.1102457966866752 -0.06818848405077933 -1.7182453598692278
Ni 3.6582417406328434 8.207655951333019 13.102128487428745 1.6370756330674323 0.506418619714257 0.5102927579576825
P -0.40825930542933825 -0.3377895747527856 6.523417567531234 2.0709261516059754 0.8978945299413311 -0.9219047768129994
P 0.563152741622465 2.611796823626427 4.754229178637423 -1.3360909841533957 -0.7671979000540013 -1.1406184954412613
P 2.9713785781263455 3.488127833295135 7.6733915213448665 0.7344011652389546 0.10410550966236265 0.5141663819804758
P 7.020751903423819 2.3208028801090257 11.326253936192266 0.44778744033460943 3.127739282394807 0.583028495059512
P 6.718594029518073 7.271255491011724 4.333094765590467 0.34554443780228233 2.467728359141969 2.208643178675196
P 7.701995574919712 1.661211604694059 1.036282925916789 -0.9293530055609284 0.2720322275457444 0.014423888734813869
P 8.623010450504127 5.784173056013536 6.489900446440104 0.5946246845375437 -1.7035646179286017 -1.6732489976641958
P 6.452986300816523 0.6472527869723183 8.194567884707153 -1.1212840567787077 -2.2551752607984645 -0.7254218445584797
