# total energy = -340865.15543034265 ev
CRYSTAL
PRIMVEC
9.31728104040681 0.00000000000000 0.00000000000000

0.00000000000000 9.31728104040681 0.00000000000000

0.00000000000000 0.00000000000000 13.63678260783749

PRIMCOORD
 96 1
Ni 8.270978107169327 7.383712092309041 12.569677036585743 -1.8749211874291385 0.9378661852382622 2.4131255841954244
Ni 5.990769297252675 8.29549187292202 11.373717396760735 0.016667947573984196 0.5667277010169595 1.1139055049264492
Ni 4.338097982955693 5.423113965256173 12.44258187281557 0.13657802836877123 -1.6098615345464857 -0.3659222301276859
Ni 4.060359159952267 7.980660955102376 1.640327780709309 0.04041851302636265 -1.5494130994524413 0.14270445298148327
Ni 7.8812455690965875 2.8886179280789777 12.725940879590196 1.0378401892307545 -1.0783584610597752 0.17222894480316142
Ni 2.609900790592832 6.788393753653572 13.401929167034487 0.42915311306287374 2.031778534872236 -1.27110069532494
Ni 6.041306228245683 1.2153367886793893 12.643629225926565 -0.6889407189133103 -1.4559833243363698 -0.03733653166692925
Ni 0.7808691903602016 0.6559710413997893 8.693080742155031 -0.2593623453875598 -0.016883663129216082 -0.7601409932072198
Ni 7.576999082251881 3.78630066286002 3.469715301068034 0.8491315016050149 1.584043545042117 -0.5005719311254928
Ni 4.514921337746495 8.999160869858777 9.624622475318926 -0.21229804490990534 1.2773847285614388 -0.1805310369109536
Ni 2.5039819425971617 6.716278000356025 6.273873942261793 0.059909531871438756 1.0377658843493935 -0.6603842474318562
Ni 0.607248184976165 3.2407645554537465 8.495387610127644 -0.5362683560858378 0.2717301229242933 0.12247501330848587
Ni 5.4302137332164735 6.6025885401833335 9.568425296247332 1.6318776338062606 -0.05227618369589707 0.05869340007615053
Ni 6.028224766019616 1.6391612571546772 8.69301272600528 -1.551801911399592 0.7299924946482976 -0.9861713001015533
Ni 5.213381974722873 3.6800091236328374 3.2377131459957433 -0.6527223600112242 0.38823014959626684 0.6897025367799993
Ni 4.768668162721345 0.5671335642723859 5.567897986601978 -0.015248698628954381 0.5270357817439763 -0.3535845344979395
Ni 8.94210184231431 1.8768823591745174 3.7676521253632456 -0.9577122734299117 -0.5650742245739365 -0.4833715080868062
Ni 7.350169881472974 1.0258046628940327 10.370977662456893 0.09826704860371463 -1.4705985031463835 1.460376568308059
Ni 5.099748418234907 0.6285409667605164 1.2595053582539388 1.0005946746157348 1.9405195421552388 -0.003269929000523401
Ni 7.408346982711976 7.201540618346044 6.321943657302193 -0.02071434972921594 0.5251061688214311 0.3784224194772257
Ni 5.5552889105118535 7.782323998972552 4.855744673779855 1.2306497863987451 0.5333133872225718 0.8341018609654023
Ni 1.7780725964199353 4.8318113746202425 12.16863238790854 -0.7959274067782098 -0.6350578528519257 -0.2300854508003134
Ni 1.0569150634444853 3.1186429561680975 0.35430916824561676 0.8717677509472922 0.4558121104112989 -0.16157275064089593
Ni 6.5139718826106 2.1762372736056315 4.884613336572764 0.11913335052976257 0.37771073812218176 1.040136184353783
P 1.5729153907534439 7.728619192511693 4.134031830869453 -1.3329429254427172 -0.05452204230728029 1.185545694971255
P 4.303884927902904 0.9527478642369202 3.4244687221063366 -0.539154419384381 0.5808199174439674 -0.6333100169228835
P 4.2700725159239905 0.9322591637845556 7.645598493780111 -0.5432967236875289 1.459234741394132 -0.4883383651737783
P 4.593400793822105 8.592359073382793 13.155854191060309 -1.15511977438123 0.39192431061840244 -0.7989903619742498
P 4.423928773572874 1.7807559732868206 10.546837610414237 -0.11383456402466847 -0.2881481592710005 0.050678243081157884
P 7.789926900095393 0.36784345031797 5.15669470668184 -0.6996300803063564 0.28658364299735806 -1.3083608652279788
P 6.28986332782173 7.839858207837195 2.1048780835080554 -1.4014581967052961 -0.6229872948406368 0.3834039318522171
P 2.1652894686799704 8.562087228103241 9.695834452380055 0.21284131900788503 -0.41912015430690397 0.32052940381518347
Ni 6.015338966690095 5.255766285026559 1.414734051362865 0.9134288781315043 -1.1842629716040896 0.6181603057656386
Ni 4.299561709617366 3.4120441281758094 8.952479429655758 -1.2640787554811521 -0.9856956460167152 -0.2740927096191989
Ni 8.443962742275557 4.13595025898366 1.0340774765055172 -1.628915208743827 1.1333610425478997 0.9560546832218308
Ni 7.207168255941872 5.136495773661975 8.44454973096519 -0.5008539811422857 -0.2303011663555453 -0.9116956974904815
Ni 7.759804131308448 9.597078729854042 7.214430144587881 -1.7924322275952873 -1.15930244500401 2.8635198660252623
Ni 4.9480165006056405 6.223328625716076 3.2320678055664174 -1.924111018890228 0.29913474018949127 -0.22143317444195412
Ni 7.998717845269126 3.355851607744609 10.32263495108941 0.8276977572112714 1.263671235630088 -0.02938153848591069
Ni 7.032199040027842 5.1820665939950885 12.655219923226584 1.126816813671479 -1.4721655905231872 -0.8086463970067751
Ni 3.619083424561436 2.528551612034581 12.514788935464836 -0.7833896793225154 -0.9661884292217231 -0.4442596296870091
Ni 7.746499054343475 7.031612051338212 10.568901863047818 -2.689886070454774 2.3504796272294293 -5.281059263017666
Ni 2.903833047605449 4.52251492158855 3.7087277782050627 1.7325514920792549 1.0556376224234916 -0.7207115835670039
Ni 5.88926684035042 6.803897708884465 13.522205944724153 -0.7864613762693037 3.140951667320023 0.26126419039596294
Ni 2.1753241800884275 2.265683169168478 10.049108470730147 0.2838101940172789 0.1926422183521908 1.3879447355998935
Ni 8.060081456537553 7.11698629519679 1.3050361142796638 0.9834410456545837 -0.9559834636642632 0.38562690764546487
Ni 0.6697941591765643 8.522041555277292 2.280110978468381 0.9941216652968814 -0.33558115594198334 -3.5200986236680993
Ni 2.7404452117106497 8.951512295909986 7.212030013056945 -1.2021084844259424 -0.7586412687332418 0.0928258229834853
Ni 3.5580086489974296 8.29117797191727 4.134371911618207 -0.8659920248057795 0.41206247612917424 -0.42174910728931886
Ni 0.09155905484551877 5.427008588625471 9.231897226657146 0.7999990057444222 0.030756821566882517 0.2265854080668549
Ni 0.17819019988237197 8.688792929536486 6.042266839894905 2.1873655002433425 -0.8239645154210842 -0.025976883679735906
Ni 6.7885800992693275 5.997636133193281 4.365433953059009 2.245528738847636 -1.5783930316245591 0.39710251238523225
Ni 0.25513696326838947 9.276536318911479 10.937271739730297 0.20027942318247444 -0.42653701559626545 -1.0951531640196106
Ni 1.1337174089782918 6.016382502138328 1.3709325826513548 -1.4705486237450545 -0.18149288660359064 0.6311160945953583
Ni 5.503214628188859 3.246326972084061 0.09845197917233063 0.35798420622753185 0.6406183776588387 2.589768341795566
Ni 8.703598088708295 2.214633787732141 6.3704224009691774 0.1928911011382033 -1.36425227707896 0.7516290990814669
P 2.935931079919408 4.112983161841742 13.826470134402356 1.1720036946207624 0.32826071102117016 0.29786898610319024
P 8.876834290395797 5.611341671731237 2.911152703392342 -0.40613993999715214 -0.7459063376650767 -0.3723952394465393
P 4.942062758182238 4.699720284891651 10.351054520948347 0.09499249161750092 2.469163548926599 1.179760969968678
P 0.7557190543297024 2.7645210652663157 11.882069168270993 -0.011624214502489658 1.199679563269476 -2.2518181714007737
P 0.6440123115086526 7.776221180056544 -0.005526079235242112 2.210457091955483 0.44124758233356265 1.6461639685219454
P 1.1363448821604505 2.3869755304640132 5.146371159568961 1.3135943457127763 0.7895595555786531 0.08193745820575567
P 9.066906818466844 6.0782306120077205 7.087608908872868 -0.08191123295351055 -0.8050707638403749 0.8314631377909746
P 8.019309035810156 0.3351118429104408 12.363202367415859 -1.3617282251055258 0.06210396841959626 0.7000959641991813
Ni 0.6683005990662805 1.0475698308143253 13.033054293733308 -1.9432312846594468 -0.666866255611774 2.3177327718157117
Ni 1.093653101590767 3.827874369735168 2.59231162792163 -1.1290791273430942 -0.3989066554735065 0.6458084065002103
Ni 2.044630682478006 1.9336898201377126 7.150555526147143 0.9134057382030527 0.733960221046794 -0.7498172426837088
Ni 5.291591229655637 8.353538532229992 7.32854354103642 0.8940741277539763 -1.1115058943460212 0.08121446399680207
Ni 3.2796362509004333 2.4634238193278835 4.79660137052316 -0.2410882296687203 -0.5572974088419951 -0.9867796231095135
Ni 2.6914549493284152 5.2189350740724 9.980501605377286 0.2327444856897153 -0.2889518861192185 -0.28886729682521217
Ni 3.4130969809048306 5.644716171513124 1.4756495014253999 1.7873722965738765 -1.0764041655468817 1.716619394230031
Ni 3.5683415133910965 7.002393058787682 8.446827806117806 -2.425274560853133 0.5313372373328075 0.210797806215295
Ni 8.594772249106832 8.131144357106077 3.8634095469317455 -2.075262831308116 -0.8313032151743425 0.7502394178227918
Ni 8.433955982709463 4.240257217403042 5.655350915804316 -1.099550521756358 0.8829273671085376 0.3702483683068656
Ni 3.6361433656838913 7.263854592254828 11.054453316742258 -0.8320357224649928 0.6990448972268478 0.4544447977501271
Ni 1.043134805159334 7.048178176578913 11.517108484628766 1.374809740879832 0.32730220376264274 -1.3487271848601674
Ni 3.6210959572116 2.6378712675177973 1.7943144802892221 -0.9302063547001592 -0.10043088902425283 -0.13577867239592747
Ni 2.666568492344211 0.4102957767714072 0.8720518270618934 -0.6969167951402514 0.4314449944208441 0.5752982162947898
Ni 1.8855567475879558 4.628331279495554 5.723179788211396 -0.561714049852452 -2.4064183473785783 1.1884996353932564
Ni 4.469285296447868 2.9964840877592973 6.695032736703692 1.310170664743208 -0.895558939829619 -0.8075919876003317
Ni 4.4736178320141935 5.28396969397122 7.162106159139774 0.27603080718217626 0.9594390263130316 2.6767690734568417
Ni 6.533705883319153 0.30271658933935114 3.255713200749687 -0.30181305835260275 0.4176988484793452 1.610278053258614
Ni 1.7217309994961298 0.7795983132607462 3.5020621047790272 2.563960379593526 0.10753407572793738 1.9167648629378025
Ni 0.13723609217961238 6.120046568183351 4.9980167562252715 1.1821955475520995 1.9019236841599112 -1.2280048925767302
Ni 2.3157915052452474 -0.05026300293784707 12.248816906368317 2.5854051797308637 -1.8947937579833496 -1.5793070587983962
Ni 9.10058878851473 7.745148048629243 8.467992009427284 -0.1607134879643942 0.5464856629384717 0.33913802005530624
Ni 7.730389475861373 0.39685187232269564 1.2831805687357296 0.6993583147022084 0.8362556740836115 -1.2102763649487156
Ni 5.842484773514894 3.2765522309596724 11.57023655140886 -0.07749639171526652 -0.2161613845200535 -2.2647166246299966
P 6.623198365285939 3.518140004506449 6.887747645606161 0.24019708531301862 0.10859748399544523 0.2886436108501803
P 8.789782935995413 5.645359063887483 11.299192194651466 2.178145010086339 -5.609831880678248 1.6453995795520953
P 6.812245992470331 8.3349039706544 9.043613616497353 -0.053542966223462635 0.522634567352487 -0.7324281006729837
P 8.162450420553075 1.9908047513669052 8.621759752908684 1.1069923227463838 0.18402542321745727 -0.339139562717203
P 4.562374248798743 5.015538834474802 5.22802874012129 -0.09479914465977222 -0.18908124047380984 -3.8981029817713
P 2.3151672474324654 4.515377884505098 7.954648970599005 0.7196155222893478 0.09626210235854389 -0.09343543154302619
P 6.686080693322777 2.7124095138201696 1.8937531594969805 0.12450309948210818 -0.8039212236169638 -1.059757043908504
P 0.8244461126047259 1.5435286871487337 1.7897592617120683 -0.8165124300184131 -0.16032756537988518 -0.7285701603794743
