# total energy = -340870.57473853085 ev
CRYSTAL
PRIMVEC
9.19513168488772 0.00000000000000 0.00000000000000
0.00000000000000 9.19513168488772 0.00000000000000
0.00000000000000 0.00000000000000 13.45800467898609
PRIMCOORD
 96 1
Ni 2.2507292086280573 4.577336645456818 4.83469367431922 0.009554476457654512 0.977443176199936 0.8051471256042649
Ni 3.6490421074052044 5.0464630783908495 8.95980178068161 -0.8116988106798536 0.5928727348434434 -0.012528471484313906
Ni 6.769731937494321 7.532845126612655 8.935213998058163 -0.8556163379984102 -0.7709421975877819 -0.2055812950113621
Ni 1.8116708569126747 3.056875614903358 9.747633323295961 -0.08758411496857174 1.423112284639962 0.02334561670447592
Ni 6.1413458205520275 5.723647760173319 12.547934415059151 0.962952953003561 -1.3232403534429726 0.6238414153108159
Ni 9.16585457126895 6.92738247342513 8.886186474434396 -0.2794310911129768 -1.0668219211750853 0.5097124599741802
Ni 0.48720314267951975 8.455190414343637 6.850541514917519 0.7188490764369684 -1.0715589216394383 -1.8095460044574383
Ni 3.267186671060225 5.189502549778407 12.71326564464193 -0.5490439105839512 -2.1792819519042594 -2.6504900851556545
Ni 3.551748417076601 3.742942794073354 3.0485337912698536 0.5416882415498284 -0.6277813737951704 -0.24784817410037316
Ni 2.247814351824904 6.035942023913073 2.9181937165095366 0.8294139685714297 0.2816792637172052 -1.4401923800507002
Ni 6.01860000520409 2.436755921513226 2.4174213177277655 -0.19280625473388086 -0.5818319036482495 -1.3921921980223377
Ni 4.410205928566855 6.448932176773755 11.101710281667396 -0.15560239199007397 -0.014804412002684182 -1.6641069261536114
Ni 3.318265628604445 9.104339139050976 5.9620848856976485 1.9902372210953398 -1.5157303624880154 -0.8531699333404469
Ni 7.9614761987861575 8.977041733426823 4.37790251079033 0.6237370285224677 2.071539102599626 0.46691259119983464
Ni 8.082245060781798 2.39725363499478 3.949049835938733 0.2261220952771912 -1.1098611596537467 -0.7354632879548818
Ni 0.9001666296577754 4.551958081492453 12.286377969471198 1.129409256989003 0.7259874872539626 0.8091773298095806
Ni 0.575533418460129 6.186126112764512 0.994906831865761 1.5127859351477109 0.7974374156648331 -0.42751506323881855
Ni 6.26462495354849 6.257406775029641 1.805081625413811 0.41786905550862224 1.0270616105580117 0.1030179330251387
Ni 8.723108971673236 6.987077269532614 4.869146913927219 1.3912010377536623 -1.0904819837961865 0.3657201414192089
Ni 1.4600582092918968 2.649549663275302 0.3370825002379919 0.12695773167018778 -1.0848314703786284 -0.6008554959386039
Ni 7.985144468222488 4.109782580072751 11.692503021467692 -0.20293871518219242 0.2704844234426503 -0.6781541698207676
Ni 3.108349963118037 0.4122591398769258 0.08683238879879944 -1.9139057962224522 -2.2250133925031035 -0.491184833483638
Ni 3.4752173345130477 8.525799831982171 3.479055382556064 -2.09620446655679 0.0454704736279733 0.8188971282005059
Ni 3.7477610431738353 2.395635291785458 12.242249612108377 -1.3045512616739017 0.026638942743767026 -1.2779454861609152
P 7.949375405243727 6.1770045419483335 10.851297416394083 -0.7022006692470101 0.1900639161020533 -0.25444562481223276
P 9.349610086581944 0.7961421027994929 2.3492155075603485 -3.313135617817862 -0.6085279248821971 -0.13985129980340433
P 6.260533119865831 3.3744202989415375 0.4467730673552749 0.5353975234451102 0.22225309924008824 1.8232839228688211
P 4.635606196124273 6.808342296221265 3.259689880045679 0.37306475470973816 -1.2727438873553178 -1.2725279146897697
P 7.80039587866741 7.560743156709713 6.847284599208759 0.020078773027746067 0.17166021678388502 0.20200257652116824
P 4.462967595243495 9.57810911357994 11.987677788689746 1.2074545792292044 -0.8963107303939789 -1.2682130893644996
P 1.4050621255705684 8.030366126764788 10.644353617528429 -0.4016942455209727 0.31812670791096176 0.34585297018163663
P 4.6226870358453125 7.102981906768418 8.874558310670144 -0.2940550116737387 -1.0107970690700334 -0.3388857948351841
Ni 2.242922541669454 0.8771512145842953 10.579445181650005 0.493334275726473 -0.08889743446335659 1.1650997684120772
Ni 8.554221984595886 4.112403192656028 8.88587659849034 1.5159465922638795 0.297172731367114 0.9829782470855521
Ni 2.114034378231591 1.0769614301443127 7.305354805580925 -0.5648595374599692 1.0563297633945097 0.4226078557451883
Ni 4.709121275434092 2.2229691055090655 9.66591618635708 -1.0877676701888168 1.0514328403135245 -0.062773226572479
Ni 5.324339963536902 4.28891294405456 7.728447649828435 2.3335496842433106 -1.4186861305478085 -1.3861413638425675
Ni 6.412261990871622 0.9611671344909625 10.8892889427461 -1.4755172806042394 0.9117592037385652 2.51712465018691
Ni 2.0113891211539805 5.956551255337592 10.50155046102996 0.45217451365871164 0.02889585709874378 1.696858923773652
Ni 6.343399648288604 7.8769637417584475 11.561072404067456 0.3198236359974105 0.001236700620578515 -0.034821992775191636
Ni 8.042145090691726 8.834811433643926 10.084298364547003 2.290280846252346 0.05852524992940243 1.5981887261942476
Ni 6.186650235281167 7.2492028937833926 4.613161798739991 0.8437463260337017 -0.05997792321552896 0.011423668455909359
Ni 5.754092841798685 8.679643583318326 6.817044569024119 0.330665720918237 0.8843833828287736 -1.3999582151210017
Ni 0.4988561332998239 7.978864193154496 2.66304351929621 0.4870253027893096 -0.7927299828868347 1.0875146736377466
Ni 0.4167325715322387 4.182939049239594 2.374745791200587 -0.04391572754634372 -0.4813616767456291 0.9156389984089457
Ni 1.3657621319532876 6.326664508283118 6.894603667330866 0.9411638821529273 -1.0513011998316668 -1.6981971829691012
Ni 6.035528242978872 6.424445540600892 7.0216334946175705 -0.4817036334660801 -2.114314545893939 -0.17055978463085464
Ni 2.051295993474757 7.009623732880666 12.650645877086234 -0.12487950898492041 1.8795789979161242 -0.2055363007060396
Ni 8.310339501977461 1.252698790465668 12.418023752957216 -1.6234906952941461 -1.8604533328302668 -0.10747416902427943
Ni 5.444786995917053 2.641439556964951 4.795544480864625 -0.3137298643948468 1.929989589158192 0.5363837986177795
Ni 0.7789720330565009 9.195959433015082 8.866712104644495 -1.796500741237706 1.1464253319310256 2.5739061779523285
Ni 4.210156639578188 5.308230092498653 1.0918980023558034 1.5730045136191362 -0.060444064218670095 3.03002296408824
Ni 8.95167236459433 7.664418268556892 12.189224964660223 -1.1519891991720483 -0.6049553770395905 -0.1108816520439316
Ni 0.09344644715371526 1.2537194501033653 6.052334185499767 -2.3105655646433108 2.4301414020271306 -0.16929454476518585
Ni 6.809620419551354 4.3602028014515595 3.4251434048823435 0.8553425155117333 1.3197012299414626 0.0006911125297536485
Ni 7.515227253947537 2.746705426625838 7.097509883791899 -0.0295525168461362 0.6131119447084539 0.5699256391289669
P 4.318889073954498 0.7596962781150159 7.833164570116614 -0.5540516482111877 0.3674396952134769 -0.32096083492564725
P 2.273873355547734 7.726135993676029 1.239269300367858 0.6176957074243943 0.5085685761777241 -0.030308421175554254
P 6.948218642245148 1.3909016224890027 5.582703859339195 0.3129891295740803 -2.1507275373053347 0.5218503808882947
P 3.7839530822186687 3.973437164687388 10.77262110956499 0.13844130682975514 0.6381326351225074 1.341350175669806
P 0.9120660498122264 2.8504449043961153 4.599354388722278 1.0890917883168791 -0.863549476802558 -0.1489697171649047
P 6.620761606049873 3.0543837341662776 9.224735598205836 0.11321338550090178 -0.7779633661006214 -0.35560542158271014
P 2.078246924989088 7.08366293470714 4.755143829962368 -0.9495796170204484 1.1867885662394206 1.3045530614461145
P 6.666590143295668 4.510405280566741 5.750673172255806 -0.01839187224362639 -0.32825376904263465 -0.46285024820500287
Ni 4.11771797887755 6.810383615496659 5.858566091092279 -2.0963736451448023 0.8606896387562596 0.03337240481285866
Ni 1.1515431447511835 3.397444909146889 6.8752368805838575 -0.3404461973437685 1.6102903945537879 -0.15107853597779142
Ni 7.197811301755554 8.705040537546433 2.218040514826131 0.2786091094323137 0.30339660078963876 -0.7498367830677344
Ni 5.664357549868165 0.5044412563983585 3.9766655754873477 0.8647918338500913 -1.9276910229320028 0.5602366939759771
Ni 5.8788340007626605 3.298588046400191 11.937600181006294 -0.9718877935993456 -0.2974349838895652 -2.172362341966291
Ni 8.41818000856227 2.229773503093714 1.0045405715271614 -1.230343825122552 0.3894624793414712 1.1840752810733157
Ni 8.935102736962522 4.598981985881497 4.777484322356506 -0.9908170264036807 0.3457555253718239 -0.23158003306796887
Ni 3.5189953573515766 2.837020011864241 7.482583616291779 0.3273932208145523 0.2184846333365915 1.1890195124524685
Ni 4.8393335378614 5.004514886794679 4.585330893105592 -0.15315547311147815 0.1129588462879345 0.2637026246341265
Ni 4.774848078049048 8.898570478038458 1.6407324359148707 0.6928817058389294 0.06675123738362052 1.1597307907906802
Ni 8.043064603878841 4.921997773383008 0.6205003718495975 -1.7770444322853072 -1.6514002772202205 -0.3880846251573381
Ni 6.5721469438471205 0.7955536143597396 8.654493058624366 0.09338580925201337 1.0859696977481297 -1.5270329319850282
Ni 4.704266245806125 7.441123686197966 13.345670953725103 -0.8552437851503399 0.22102925413531613 -0.39373796678837353
Ni 8.293852630532495 2.076223995977436 10.14779350865683 1.4478966906734934 -0.33579147218057653 -0.40487624279338014
Ni 2.55787419851997 8.188264931256118 8.213514763374286 3.0638337419900976 -2.167843371050015 0.22502526266858666
Ni 6.001414303736917 0.933296689789517 0.11549453435435075 0.6985432750000808 0.43989826739451987 -0.8856565931142424
Ni 1.816259227716377 1.8381620318334482 2.5308717742671605 2.4129535773939343 1.8365371883343016 0.7795798186581219
Ni 3.0406645974145263 2.2910958375423913 5.319935495370623 0.2154103652866419 0.4334795083523696 -1.1976733314727244
Ni 0.7134521209086451 -0.08747880656934107 0.2842684213096867 0.007744162721793114 0.7383202977877026 1.1995144984465211
Ni 6.401227832626247 5.088254952745211 9.646980651294827 -0.26087261138449913 1.5211463912972643 1.4004541809208138
Ni 8.230792416160172 5.274677056300839 6.9991311679025 0.2769923997644972 1.2063374349056255 -0.5044753799449571
Ni 3.856346355440206 2.2128636555826757 0.9897842239003452 1.186757198780853 2.214785029906876 2.845905495377609
Ni 1.658351228093175 0.6100041288186836 4.583607725392939 -1.2212768298242773 -1.321919320638704 -1.4176062672200684
Ni 4.535222941486966 9.051071740121426 9.79238051303371 -0.35075863501337007 -1.1390627209183672 0.9656312711666725
P 1.4338888639866132 5.259578649768416 8.70010183221844 -1.315254764134335 -1.5536173673417761 -1.4545465918898435
P 0.6090542716963943 2.417436949451947 11.827338596199812 1.8455095670362411 1.3425524235080233 -1.6349053648889906
P 2.353613539134318 4.241337331753246 1.3205827710175955 -0.059388369260646105 0.5429082299998585 -0.3930823354822456
P 0.47915188521314367 1.9943229564011322 8.32057276423686 -1.7394158232992558 0.6773674122534141 0.17573618662547152
P 7.022303819730977 7.8114944028358835 0.24611965820267337 -0.37697540261805396 -0.09839123288640474 -0.7158748242999928
P 8.323571296740042 6.118900503654558 2.7390403646980506 -0.023699143389152733 -0.731091127029115 0.4504554740850758
P 3.520098773176114 4.8110768976213665 6.607247520738849 -0.43994686124426813 0.17029393256397768 -0.3224117084395609
P 4.021104728307412 1.5543175061030212 3.279016208212455 -0.8471008443282315 0.5385610087747563 -0.6356175820101376
