# total energy = -340894.8240960506 ev
CRYSTAL
PRIMVEC
9.06438200039736 0.00000000000000 0.00000000000000
0.00000000000000 9.06438200039736 0.00000000000000
0.00000000000000 0.00000000000000 13.26663929936065
PRIMCOORD
 96 1
Ni 6.404284801405949 1.8941385236440396 11.390576705229902 0.1920693765678563 0.6231736998198301 0.7546216060508875
Ni 4.686085926717146 0.1908505568651461 6.035949118504328 -1.128230920410186 0.8135947421509859 -0.12840423430872727
Ni 2.6864651931353376 1.617892426706391 4.816121733825956 0.4483780227307569 -0.18106376948597205 0.9115673994427332
Ni 3.8844501372115743 4.2675290369615055 5.121094669273082 -0.5967759265525916 0.7863924707045811 -1.0934891460536265
Ni 5.360475925803674 4.421242821968352 2.7106127060058554 -0.05064147630595149 0.057387536780533425 -0.016856409435706453
Ni 7.421598489275294 5.948455174066387 2.5540273248738665 -0.280969125024058 0.17617635948668367 -0.2846501734200711
Ni 4.868415964776629 4.917046372640865 11.121701763497322 -0.02401204664388123 -0.58456010121269 1.1535457450258908
Ni 5.428105277728198 7.9027449347257255 12.528748513728555 -0.6955355985220086 0.15783539508565075 -0.2448875488101524
Ni 1.758272506220545 6.530460994783429 0.5256516531992875 0.4638779181385688 0.5036634255666229 -0.5132076176116322
Ni 2.793669635597655 1.7190418621876622 0.42550745764945047 -0.8112653226868609 -1.0985791589820242 1.1700504275491335
Ni 0.5291097148209477 0.10268675461897382 4.883608774957662 0.688822191057575 -1.2231059126132162 -0.5437163277234507
Ni 8.773750437443786 2.3303528289671593 1.3495749444488632 0.09806367434365693 0.23042843596202894 0.23751671026737803
Ni 6.768700139218795 0.5250642812645994 4.716820525774978 0.5052263991783685 -0.3227014717658378 -0.20441144307297698
Ni 0.8453315479678895 7.571360203857386 2.68179794299381 -0.5728284145980587 -0.8115288607608927 0.19250543566401038
Ni 7.676552353580494 3.7001984502299634 3.6847164862724395 -0.01693020009643536 0.4669023067871894 0.37660259265966756
Ni 7.669935354933543 3.8569125455822078 12.55825307618859 0.11623366038446435 0.11272410456930908 -0.10730267644342165
Ni 8.093803972370159 8.93418999367808 6.92076783250744 -0.4730557279830949 -0.12700658263025225 0.05758859704774598
Ni 7.023518037798372 0.38748690857460577 0.5322296750048937 -0.5626594444848567 0.21171337605102894 -0.5820761584485716
Ni 1.8224573930959715 6.6413637049826715 9.257022480404776 0.6006953162116558 -0.4778094406179964 -1.2221157807858047
Ni 9.278573047915911 4.845102375023261 1.4101241078211493 -0.23124681809826625 -0.8223570617246483 0.27764391730556703
Ni 6.510555612552326 1.8243699776363915 6.821162061231068 -0.09108441481234636 0.5112718340415001 1.0666406584022146
Ni 3.3675990922127323 4.438265730816262 0.4187046391774822 -0.3333910902692 0.06712199045947795 0.09312304250892994
Ni 6.209291822100178 5.664395580096312 4.595351465818541 -0.5470631327084966 -0.05611715470854207 1.603006202187549
Ni 5.1963109086873285 2.9259099003378886 9.157774752205876 0.899292181619806 0.24834413990018522 0.9624449030188909
P 0.12244348099006251 5.646221494771466 12.634789089579545 0.13348421993479592 -0.6027298301431813 -1.6073354256905221
P 3.725297723179837 6.252637695428562 12.580753590902736 0.6923559152424463 0.7505813745432428 -0.2759768140157892
P 2.262107099086481 8.5853019417313 1.47413586500595 0.5023537056162638 0.5351645814986977 -0.6692326989614217
P 6.3036973575905835 7.840264151611432 5.9810253104201205 0.8934249242057517 -1.2134599048830197 -0.7005919299989934
P 4.648867575423472 1.0875263885806934 12.581019177286786 0.18341915709202603 0.14228536316619367 0.3649958616586746
P 4.0077438572058615 6.118593618728406 8.17684005388403 0.0831924136587793 1.147392066719669 -0.27016303554748955
P 4.7062723047812005 1.0179028726803756 3.7789887753517353 -0.07494251494516126 -1.0538478775129207 -0.65219399831158
P 0.2873952864386759 5.3945580010263265 3.662176088278777 -0.006501548563943641 0.6083320068213072 0.23765554983808745
Ni 1.558185344394792 1.2581543098549517 2.655688897921648 -0.12271515434374997 -0.27691655222123923 -0.5107509285410236
Ni 1.8045552392223707 6.729406044513954 4.787545364052835 0.011833245189502201 -1.1510162937358177 -0.17645558128999933
Ni 6.015885109593333 5.557109558198622 9.135977633512285 0.6071215314529738 0.40700511621092483 0.9593909466839154
Ni 8.609367875166445 2.5240314729252487 10.266746561469889 -0.39219710466381486 0.01613701477117866 -0.08643123231105114
Ni 2.564603645450939 5.195522307478719 6.85600010588818 -1.4738038974575587 0.012539527227907436 0.8206907297658189
Ni 0.39584970713854706 0.16332202961748762 9.155864886979968 1.2571730295002541 -0.5025470525739926 -0.42245050423171765
Ni 1.2894173623663687 1.15411333660878 11.200519281764219 0.3980967579777015 0.6691347399309766 1.3309834877235012
Ni 4.017895964718992 7.008398649109173 1.5385319519751761 -0.753167132992548 -0.6247179043784982 -0.2951690706735239
Ni 5.5899407487455495 7.674957022399859 8.158889858787376 0.6265996947822434 1.2584755503617617 -0.4676294147612011
Ni 5.531022267642559 2.689918722566144 4.727195617078128 0.30224783189717624 0.7857041863883049 0.27042708784215364
Ni 0.8091900452211447 7.426547641687947 7.014496258684248 0.29230486175185144 -0.1021085338369919 0.07138256550804481
Ni 5.220612516046885 4.379737018126723 7.242655810660149 -0.07855979998277439 0.9845664175082786 -0.6809078213065047
Ni 8.074687191347666 7.23093828442602 9.089385805094212 0.051799244059478534 0.037809614648605855 0.6604783498075593
Ni 4.701622276964919 0.6072836619865654 10.286540451805982 -0.14498065061016965 -1.2773921847606067 0.4749483170201175
Ni 8.255231546210643 7.052623767463248 4.750584441199674 0.016390011322249192 0.40606357823326195 0.3054020612554417
Ni 7.304831124110877 6.1617400756592104 7.021660745986371 -0.3868299268146306 -0.34337931183016346 -0.7450105653236847
Ni 2.4731168408705577 5.143828138597127 2.709698109891503 -0.7032226827536211 0.7861070782536784 0.5776988553164826
Ni 2.192392939369082 5.281334809109797 11.40203952233803 -0.21083457299050143 -0.3595273823449357 0.2130017558451493
Ni 0.9588393614700554 3.212117752772796 3.9255453245618246 0.6548697453715302 0.7818817273184212 0.05426570332210009
Ni 3.7402539529982883 2.8295283296351053 2.945220659128936 -0.7517288578841247 -0.5182220401070882 -0.604524717260075
Ni 1.1276090844941427 3.3641364984002182 8.274814236452935 -0.5867524808783185 0.8455597250933566 -0.0022489439351767717
Ni 3.7976858755011413 2.623676221042967 6.977005069501159 -0.4094021556881917 -0.6353175342712155 0.028729249613892456
Ni 4.080548971085741 6.8807721546583895 5.862978960996682 0.6929187297244518 -0.30590085526873123 -0.0191698880602315
Ni 0.7822661122334201 7.331561985768219 11.224107522283344 -1.2736085493484581 -0.031806860097951674 1.3434638795786993
P 0.17557979300142196 5.580223731554409 8.010330081219784 0.39810010041181115 0.1788464501196791 1.210052936084
P 8.592816314167358 1.8367609874314357 7.980016069473211 -0.12327899726701996 -0.8098262762474893 -0.0392957122758291
P 1.6860112552431552 3.2696765766195632 10.479424149488265 0.439216925056779 0.34243674541123603 -0.07131031750921267
P 4.137681768992225 6.042235267218931 3.6648827126568313 -0.1171335464909144 -0.09331124726033609 1.1299131932086155
P 6.835939722729869 3.9563034910120978 10.45590207895561 -0.2946304245612345 0.2491332114603839 -0.07786868745302074
P 6.3867270940372585 7.907521863885922 10.518985643453496 -0.5749243778951388 0.1540784991463798 -1.8384503461966144
P 2.447827215904813 8.483599578965832 5.8830112445716995 0.21983343405500202 0.5742057545615595 0.2240364163927561
P 6.960692808179168 3.717738028835238 1.3654956244810617 0.28052946638347814 0.9006196421819781 0.5347177237692662
Ni 5.059746933872306 2.8576007197852524 0.7526128939133707 0.282858628737287 -0.7747865110345366 -0.71141010366042
Ni 1.682965622989216 1.0882968610258863 7.1186133727367675 -0.8359890506857861 0.48259760603525925 -0.014486109431316988
Ni 7.1606258755158825 0.6985783016747333 9.215936357436236 -2.144402109307939 -0.05347483198968855 -0.5753722640658349
Ni 2.9352280847338688 1.8755746699057436 9.320530257966604 -0.5569017160654731 -0.6007724493064944 -0.19056862365261373
Ni 6.583895524952986 1.8616245864568974 2.5092782852570603 -0.7012205647219278 -0.6514226673631942 0.062110910398131734
Ni 4.2604588192291475 7.15489718627633 10.233686042065743 -0.8546822562199152 0.06482599533644964 0.699163425082583
Ni 8.167705876436726 7.134692679448859 0.506399812889343 -0.035135924471184646 0.2989488494309303 0.043780487520060085
Ni 7.568405215420529 3.8818214665162105 8.172793713889511 0.6879009647948862 -0.3406832530552391 0.26791280606073214
Ni 2.869991729580297 8.52284835176213 12.55983209148215 0.8230314620838535 -0.38351397506752016 -0.5240373612372846
Ni -0.05098261491750246 4.955524672991972 10.276948523082414 0.05009768798733953 0.11676896406264406 -0.18436223773158572
Ni 8.628339626081607 2.035316268748511 5.668304141488867 0.09866556959371395 1.5879678197971876 0.43250788846771965
Ni 3.480459708860936 2.8761555091418405 11.849774656812214 0.5488001700042613 0.35983642894492224 -2.0154797977122128
Ni 1.0078595377477428 3.247514163343131 12.604328234849298 0.04066919558458802 0.3605056870978049 0.43362426146034994
Ni 3.2644645571373756 8.510004122881679 8.101657352682102 -0.2702337408844249 -0.030658605426121394 0.38230144281665773
Ni 5.3127972780187935 7.813252294121138 3.5094503208781194 1.5651827035818722 0.4582842261008752 0.514662604890604
Ni 3.038217589701895 8.534613919219312 3.585760631164541 0.03545782658697764 -0.1607386847753748 0.19652432701541636
Ni 3.3233921026220736 4.463627870835672 9.264253137693371 -0.38272181818352796 -0.6571618838398167 0.24491403117271368
Ni 7.2358511793118385 6.219969663752381 11.518281153363377 0.036810483960130154 -0.6570497837419845 0.14648783128331547
Ni 0.5058006572584341 -0.0330079459902365 0.055488519064624944 0.9640929801452751 -0.6451484043187082 1.0493978121613667
Ni 4.695757621999744 0.3038978997765379 1.5754529915488218 -0.30691129881111656 0.5417224372218735 -0.305508504926319
Ni 5.641372050557605 5.428304694125777 0.4038898137136781 0.8200489824167619 0.2078268965124292 -0.2595976013268174
Ni 8.074805028309871 9.013838715747614 11.282228337796017 0.13057373115622026 -0.9455578974555652 0.11401222725311332
Ni 0.09725084490859491 4.818534672236666 5.986119492940102 0.0032156787238202685 -0.9395173476884401 -0.8380037671229698
Ni 7.71832102449166 8.459007911391614 2.678441402447281 -0.36027094537917953 0.18387707056505104 0.04779449377545963
P 8.510602372074418 1.3687578954578257 3.450971462287975 0.11377902819638469 0.4263434115282206 0.1252649173487972
P 1.9498028917138026 3.3683695646579253 1.6901563969982931 -0.9636224682667597 -1.7682106360437613 -0.4156278248829293
P 4.926228591311224 1.0806465228642057 8.130087785909721 -0.2950785678422466 -0.8695164930192701 0.15509331356413933
P 8.4008417739704 1.5461387811046574 12.58745307542323 0.09074374364347597 2.330706815477876 -0.7926279100913317
P 6.143303123264829 7.4886386563887894 1.2931827065279353 0.8569741375778853 0.05158609960740793 1.3394637572803705
P 1.8052622609956066 3.180193000396684 6.189338398646022 0.3854322751361556 -0.08817469736471911 -1.6220722176800644
P 6.910149815774512 3.928648062420525 6.00615268295329 0.7314713931866692 0.49062150478100025 -1.0255534014436016
P 2.2617717169632794 8.605379547214858 10.310380682136591 1.5863444252611518 -0.3299650953067866 -1.2951153130719824
