# total energy = -381172.71859257837 ev
CRYSTAL
PRIMVEC
9.20884893512408 0.00000000000000 0.00000000000000

0.00000000000000 9.20884893512408 0.00000000000000

0.00000000000000 0.00000000000000 13.47808126126711

PRIMCOORD
 96 1
Ni 9.112220224432702 1.055711620786098 6.468615776245484 -1.2887248361646064 0.4628358500272996 -1.2118673635849193
Ni 2.3139810769959186 6.367412371092745 7.223536931037213 -0.38879270696795626 -0.7891489504037957 0.9881335660342465
Ni 7.251738109215136 7.966372392829755 8.746021148079738 0.17945683001016835 0.6775679582999944 1.5026051379599672
Ni 0.3097865902635742 6.473148371562612 9.356120265091525 0.20954465053448426 1.8282127276290063 -0.35193028672396803
Ni 0.41457039578059424 4.342865407906956 9.162682873394099 0.46879566715516036 -1.8252436176983533 0.2009293980616475
Ni 2.7036719263151436 1.1496326684077813 1.6457547862717272 -0.5221943944912748 -0.7029547738042152 -0.8051239856758136
Ni 5.5943663603417075 2.100188446190447 8.84871086140839 -2.5379773252662035 -1.495501179925334 1.6463601436931519
Ni 4.857953149614108 0.6792677002837949 2.6662471653057778 -0.11570349891260717 0.2529060482392548 0.8402354846669658
Ni 2.761696881807273 2.96971556449442 9.920595062235002 0.055505746376788276 0.29482582840149224 -0.7256517011810987
Ni 2.5981845647594635 3.3406295713682472 1.8895194568550489 -0.19925792389649555 1.5237902566780144 -0.07653608468452626
Ni 1.3294814830024944 7.393499125695987 11.176658078302637 1.6149173518028381 0.8296818775208356 -1.87829884565212
Ni 3.7680306560057186 7.720413253607523 12.37050611273167 0.8881263948109737 -1.2507846094754071 -0.32285702350709555
Ni 3.055201306731118 7.717530883972698 9.194517863258612 -0.722617028119833 -0.3843884072526735 1.833696890672029
Ni 8.527771434516263 4.956506248118594 3.7533222829043016 0.48132079620536466 0.15021824486002516 -0.7806270289757137
Ni 6.262026306872474 8.00074902492817 3.8625622502944594 0.2037144170059524 0.8436802486824566 -0.816934090936864
Ni 4.934570770578164 0.48652649754609184 5.400438137009981 -0.9910800502570801 0.3020377727688992 -2.1456339248325116
Ni 1.272128773463535 6.645602480672453 13.104576592356715 -0.6665718642998069 -0.9026749820491099 1.656639928352605
Ni 5.96467258320308 4.239394784210787 4.992712678448449 -0.598694226621227 1.027215876747689 -0.6684706239844165
Ni 7.711701682762332 1.3971757296018663 8.624893477936876 1.5085245887681955 -1.1106713142598679 0.41507066682787874
Ni 4.662753184280563 0.6374199292565161 13.042428835313432 -0.5005107388702542 0.5224394206225454 0.02597842634163268
Ni 7.846786283954847 6.995188794018305 1.9337679747315257 -0.3910948727385716 0.7917673618632493 0.003211050738129954
Ni 5.794032617281931 7.97038745085143 10.65376215380517 -0.30137159993981 -1.7150361089033108 0.026197741441290362
Ni 5.464595264833838 7.10750912128977 1.0584742753881673 0.6371355613165608 2.0967222867334727 -1.542772197097156
Ni 2.084570238840082 4.888581780302384 11.460519917780394 -0.834427362625621 0.0036936468015033156 -0.18192406060373828
P 1.0098791809377679 2.0325862880778107 0.42119800417095854 0.30692646831976816 -1.3805646410857384 0.02397322298614581
Ni 6.657721325526864 0.8473457645039579 10.848466683080078 -0.594503328468331 0.2049724577827696 -0.8504013694563742
P 3.295294409348289 8.475640142175214 4.66392823337131 -0.1601956677877112 0.4908451907560321 -0.00890964378480401
Ni 4.215101841409924 0.3750598305466661 10.57057586108226 -1.3360279921259441 1.5050294311307433 0.8298415430271514
P 6.666156630911849 1.7511362460676616 13.338609351661812 0.01988285496685608 -0.24540099811146124 0.23195438568825213
P 6.075556330081469 4.026127057779708 10.108533850389442 -0.7963256706578931 -0.9959268368264204 -0.3443326768823683
P 5.216149736469744 8.954988342180263 8.732529263888098 -0.14777363997427453 0.8608709015291303 -0.5472338539584058
Ni 7.988676224317128 5.608290139536137 7.5793990747540985 -1.1267543358646595 -1.652691228117502 0.37828357990651623
Ni 1.5231435706075538 0.39121215112009805 3.6915787943177865 0.34711666738540864 0.17731484396650107 1.279562452939048
Ni 6.7943253867505184 3.5389697540994773 7.7602608627029035 0.8143100230504556 1.7028323677482675 -0.5962033418785732
Ni 7.101910141296243 3.971067351560467 12.697228696590797 -0.43292723539332534 -0.4524989868776658 0.49539192958645006
Ni 7.9017446928386805 3.29901478421241 5.45757167595051 1.8909193626296077 -0.5867625081806476 -0.0691863291876744
Ni 0.8438537690869423 4.1327563165709105 0.41848047292738966 -0.2654026380443687 0.04047841973002061 -1.4557061594155831
Ni 8.851121737991129 5.033271210661427 11.633147153245295 1.1022874610715467 0.19130370204642536 -1.121654552744249
Ni 0.9069795058593589 2.0402020059308486 8.454004873101542 -0.5834558124049177 -0.5816462700000047 1.1571781995721557
Ni 1.2622937230801683 9.020168573091752 7.871118824805007 0.685457131240084 -0.8878556576480904 2.222346901414534
Ni 9.052721853152802 2.7187468115937685 3.0628667523669932 0.6675928493651534 1.3474652874286084 -0.20463744304085404
Ni 8.067457924719472 2.7923439301928954 10.641443476934542 -1.6646869670267976 1.7571934589976512 -1.9824403507587405
Ni 7.402026519567707 6.442473696630969 5.187888700775441 -0.621526136914078 0.2386109717728213 0.7203961092091141
Ni 4.227257521659029 5.381374899370836 10.569712991961547 1.7581424531744818 0.16861448797902573 0.5351064745672526
Ni 8.29971429711544 7.873989222936557 10.97206048289772 -0.9459458769226031 -0.049999728956894536 1.0118568777931156
Ni 0.6613546478439775 5.958364521861688 1.7337121834924105 -0.3356271786885704 -0.46436488507731644 2.440039377867133
Ni 2.314994050350011 3.3891602038779314 7.255345215240571 -1.0791467612890253 -0.22834532818075515 0.7013326648197599
Ni 0.7841224139356014 2.707935623251004 11.741497545853589 1.1737805840155269 1.5733354145959935 0.2362555841667673
Ni 6.1592739733728425 5.713869589578553 2.827499630889095 0.6196212065818814 -0.7155899460697224 2.1850414800958564
Ni 2.9991102094604374 2.0960352554386694 4.064854870876384 3.1168378049909546 0.07601517918404974 -0.8580298325359094
Ni 8.907654859998141 8.5211042280766 0.4888637033394425 -0.18806976849015997 -0.5073264762405069 -2.127834691867561
Ni 3.7162861353089602 4.410126838618671 5.986774740904502 0.5800637560042333 2.0049948390204886 -2.171971277175459
Ni 7.77633859160208 4.661252141946773 1.517726004932896 0.28060017172041357 -1.1523923481477378 -0.9007574533114228
Ni 1.2181925467824686 3.0175647422022602 4.837418337956927 -1.149781649997768 1.5716441429364998 1.682257371810393
Ni 2.8715492376342233 5.880660256754152 1.172204477391555 -0.14283326524986367 0.7996817316143195 0.34284966457893856
Ni 1.5125441857842814 8.188167513132555 1.8737769300475904 1.5891543839061213 -0.6417015834206884 -0.9121428123302292
P 2.542296062159601 5.365489635408937 9.326360028833166 -1.0490874800097998 0.1245835750110564 -1.0320636917582935
Ni 4.841589025521185 6.662077110949459 5.238498691315617 -0.3234769164792816 -0.2160359146857828 0.4161394744120253
P 5.775909603092356 5.490481338455227 6.756076433784868 0.42706512018559356 -0.2634432003251527 0.9770024891180917
Ni 7.168821635758362 1.0415944557695236 4.050823348152473 0.06538880981845514 0.7221976811942271 0.09058819190221819
P 8.16919728486501 6.207454669632932 -0.276675253972906 -0.7054322888104303 0.7635376775935947 1.4126363248093026
P 5.3959617156697615 2.3882043973048477 4.097026904602348 -1.0243915199250164 -0.32238188364288994 -0.15507608717295873
P 9.276349534341641 0.08503727130629586 9.714528655466651 -1.9612578031438546 -0.06718523959724558 -1.5451543241760874
Ni 4.656371452149783 2.400949443869061 6.622589567837215 -1.2839644386614855 0.41291119728271475 0.17541659850252367
Ni 3.8221786862062777 4.459753324120509 13.00474438477147 0.0330481887042205 0.897676500393254 -1.0694341619869518
Ni 2.2182735127315634 1.172811340519143 6.175036759647382 1.0554576452022018 0.7100145088644739 -0.19861797631965147
Ni 0.2656016134429448 7.488773874072685 3.7678105645224202 -0.6334737961942575 -1.2561029363645273 -0.791778931827475
Ni 1.636946522515463 0.5396284025373337 10.876258988376895 1.5228574604510998 1.2212135806865099 -0.43699909146985383
Ni 2.964540191539877 2.3368558571010523 12.13922219475563 0.5198770592120078 -0.7329454066290345 1.3216946062224078
Ni 0.3370595164952026 5.7012534668957695 5.735125454086874 1.1812475818165333 -0.8341504548151505 0.6672372657979476
Ni 2.404927666496041 6.485561899574576 4.806189290335135 0.609531426446047 -0.8295255544486294 -0.4735408951496296
Ni 3.4577384999499654 8.455435928185414 7.0743213515551115 1.1816440459240036 -1.0870552175028247 -2.4773514840540303
Ni 8.437543135212678 1.200741778546064 12.126808666743667 0.8669212214882682 -2.0591898370056536 2.4723319193522517
Ni 3.2973019383591264 0.9837260507048449 8.403098357634079 0.14968474095405834 2.0285536001770352 0.7592627043673246
Ni 7.124434985151781 5.785956456995215 10.04107627120098 0.3333224418147937 0.785986236405098 -0.38296992963859205
Ni 6.66765767324564 8.646832639016777 12.88477610867661 0.5773306733437863 -1.0174433707419575 -1.692811750287472
Ni 6.750647817491802 1.561894405825913 6.451256175610948 0.3541805162107255 -1.0629637237712597 0.1571270561647165
Ni 7.0349526025907565 2.2662700320181814 2.105680603539361 -1.2609931745772927 0.7010387877284249 -1.3039102856557931
Ni 5.87091729485752 6.271179902453998 12.207057336739707 0.8469380934981221 -0.7309036936086574 0.903291018366554
Ni 4.9404183894858775 2.862036496954431 0.6071614942849183 0.2778202949824312 -0.06286810027913044 1.3219267768378715
Ni 4.1869780175608575 7.084431746513817 3.037811316895959 -1.5373209441745974 0.934846424575332 -0.4680189368901359
Ni 6.030202750364165 8.283248875687105 6.717448997138735 1.025057949864422 -0.45367423813268964 0.2286877991218384
Ni 8.902387398556863 0.6775023639930727 2.303377087748309 -0.12326125665520707 -0.8326635858569789 -0.4620750606018752
Ni 8.829508570154273 7.550684963705057 7.320619376408531 0.7302694024587681 1.5403738720683084 -2.295548008188556
Ni 6.726281203901551 -0.10493206798066441 1.5384827498431102 0.5907538887282278 0.8173632080544826 1.5016044646095945
Ni 4.325092329966977 4.302024164039699 8.231670114266473 0.5756599705095828 0.26556924552922 1.0029955707477436
Ni 5.124641407200533 6.782372301172232 8.431469899512463 0.017730841620859784 -1.4731963457805468 0.05525017872255646
Ni 4.054481102845613 4.438978161512948 3.4415603946002475 0.028285220097938383 0.29559407402608445 -0.012784296248861854
P 4.8432558271311 5.214980212688201 1.3068507373872098 -0.17208496302612944 -3.8260912673196885 0.04123303850785802
Ni 1.9896730532590006 -0.23868599053985073 12.983300659750208 -0.4652028075975795 1.2414540761031008 1.3029335235648207
P 3.8283301971202186 8.534512311745312 1.1260994556224875 -1.264652625706751 -0.33767197703274104 -0.1142323136837194
Ni 5.270251722426934 2.716463017122725 11.654024534073134 -0.05585824462020058 0.022176278986723096 -0.608031959082385
P 1.8209761544079741 4.838946085951871 3.579468428796079 -1.004884303130024 -0.960501663249591 -0.7667140184390473
P 8.15875445046919 8.636592399291773 4.944757598980861 0.3137157233274597 -0.45048169933732096 1.6320306144443568
P 0.050726022033462215 3.6661992073734435 7.082973985768793 0.05310407891383113 0.0017648052099066378 -0.20061958013071257
Ni 1.2183122618152247 8.289308298114312 5.708384799308577 -0.04128214657823858 -0.20970714425427756 0.0956856610297836
