# total energy = -340853.17852463556 ev
CRYSTAL
PRIMVEC
9.42765060178659 0.00000000000000 0.00000000000000
0.00000000000000 9.42765060178659 0.00000000000000
0.00000000000000 0.00000000000000 13.79831961723729
PRIMCOORD
 96 1
Ni 8.019178582371637 5.184170870348694 9.766561594679866 -0.8566018418401312 -1.0275514057102368 0.49482551556001875
Ni 1.7269853471477656 6.502731531749772 9.471746699813737 0.32764724580688737 -1.292972812807683 -1.1175713838138108
Ni 0.7905207712467393 9.228369067433965 12.533538436133197 1.2418451408939322 2.356054035993413 -1.7654374441739982
Ni 3.291899950270064 0.3429355098189982 5.428617598323399 -0.8750315093002284 1.0749466071647487 -0.10290943247173244
Ni 5.096597422541553 9.02262001748854 6.579245402463301 0.2817774798579663 -0.6011763696131324 1.2780678706713924
Ni 6.440622168615586 1.72384593944836 12.324480280774887 -1.3254041938635108 -0.09853187222932708 -0.21519207862824874
Ni 7.1748381812942785 8.790643243159494 11.176390400216604 2.464066851129982 2.092629604721338 0.40779290221954284
Ni 3.1579707437302584 7.693660657311353 7.588165245430429 0.8971355402881194 0.752359292379272 0.6239607144974996
Ni 7.739403618745335 4.189968532965778 2.69987553724757 2.3487893840112 0.6423531009617581 -1.6910577437108423
Ni 8.05315583567091 2.95379611145991 0.09957956103594916 1.1011196660156908 -1.3500510458779136 3.1204476338294
Ni 7.891452770024651 3.3300442252003783 5.555686303413181 0.8277039278588584 -0.30475080082468803 1.4013111296044705
Ni 3.098303142140055 8.190026469244392 3.621396343946411 0.016648664300274552 0.533231883252359 0.9992918966439114
Ni 1.085575128441891 1.019242177772169 4.899355884631994 2.5964125865849605 0.9925988008944517 -0.3178685691535687
Ni 3.5161366233342104 5.875396795612103 10.85051610995801 -0.5321263088930062 -0.8513112828651532 2.2593484183395476
Ni 8.072869053386997 7.941494740200162 2.3358899688362817 0.7480161849192279 3.558500106264433 0.9845767019209237
Ni 6.441291531818763 5.206882081002952 5.4114800147919295 -0.07492066056829032 1.020941613703203 -2.327944679351707
Ni 0.49446896860234696 4.302723235923406 12.22722934947393 2.0251026655139577 -0.0224542152384581 0.08051229572345489
Ni 5.785975528258165 5.14564948938842 11.224906033735856 0.9162537491748091 -0.4480916018385896 -0.8017884935446772
Ni 0.5061121172773195 1.1899109392806932 9.685344269007677 -0.5844377167022128 2.58794105877884 1.3262899389025737
Ni 3.8781395567929917 7.986049817639772 9.83769133405066 0.6549175678903301 0.7056649736465267 0.290328454751771
Ni 5.94578363610388 3.6724187897998135 13.570219882260803 -1.9354470127283379 0.19262087819595214 0.22593517607736574
Ni 9.013182939088827 7.735934243269715 13.431201629846708 -0.6784138512400574 -0.6475089341310848 1.328793422050718
Ni 3.5429771450165153 2.8703142640778196 4.068489482005057 -0.007254367569568152 0.11002316069837825 0.048338282094071594
Ni 6.831275732700474 6.986417153425452 13.315019975841828 -0.5654362358990456 0.18448693623490808 0.4253674207681964
P 8.554603151357641 3.157273097574835 8.240742516448453 0.7940134775849487 1.0189788335498773 0.7780132455019504
P 9.134752495496738 8.584375672422874 7.029278082025475 2.0380787660586512 -2.020312957434798 2.468206327219652
P 0.9020263104801298 3.8042362025718504 4.251813921878992 -1.7915570240791856 0.5387777527712527 -1.5159144534743636
P 2.275005257534387 7.69341553839188 1.8878861197152867 -1.0126729459365076 -0.5066734160375402 -2.4084775439004518
P 6.7201802962746635 2.073272386808021 1.9272531609477423 0.4735465515765844 0.7457597847848835 -0.2780000150934051
P 5.118874961261358 5.658240288260429 13.171627293480212 -1.2099446926409099 0.6234529216231456 -0.12585549974494453
P 2.3718272307262636 7.7562979688874805 11.700768590820045 0.23445272663007363 0.13119490967998698 -0.7932799418530339
P 1.7296345170082248 6.223795629040127 6.957995614712545 -0.6414462728767727 -1.517564844593593 1.665771458340228
Ni 9.140314809438626 6.666687805925033 5.196377792538455 -0.8389877283027939 -1.6223041311852122 2.329857580103704
Ni 6.392088622559912 3.2762311947252827 3.914528403153849 -3.6592528974044787 -1.6885380626127822 0.6308682402506103
Ni 3.8375912309216904 6.76705457579852 5.419883822669557 2.679155057190515 0.7354494039978108 0.5650454282185301
Ni 5.952326425723662 4.84980980888588 7.510232513279179 0.10534555271705083 0.284712137006258 1.1363373515674042
Ni 7.38162427282209 1.7980038402397234 9.988686473976243 0.24526601519549374 0.30395324462405715 0.4997100973458297
Ni 1.7070081552107075 7.935734445592543 5.7733547322005245 -0.5661211777812121 1.4954443585454698 -0.7989692789283271
Ni 4.518390174456743 0.8360355835325953 2.0805109370530768 1.6863389980789343 -0.25343106750478933 1.701099958438193
Ni 4.751432273320424 3.2212114249543196 2.1440108786727348 0.5208059987841804 -0.3671345052682322 -1.8932888913030492
Ni 7.793263787474175 3.773784890652691 11.930013231962041 -1.1035061639699963 0.6882627190096792 -2.4176833787694365
Ni 8.373903369452217 1.42699750031568 4.188190478034523 -2.348911511411361 1.4921325205634173 -0.3412632939284252
Ni 2.705584922541144 1.6974579450020053 9.474892706868667 -0.42017636348556026 -0.8866130434902408 -0.49090226924621255
Ni 1.969398530855918 3.0112576427748556 5.744778580015334 2.4942078934897367 -0.6445891893811286 1.0933078832807557
Ni 4.234391623294903 2.773511146187441 10.8243817193168 1.8066275452590626 1.3065505514921176 0.46354804560297586
Ni 5.5450424857176 5.485921687870836 1.4777588002433357 -0.03018500822381253 -1.4229459342654267 0.24214598150927327
Ni 6.450426925394511 7.6938586379770815 4.98911371911767 2.3390065935928237 -1.4835537777554706 -1.1657356022238634
Ni 0.18166988716749222 2.4843933806689127 2.4651524882553493 -2.3221129031612784 1.6414447086694053 0.10485498623387747
Ni 2.527411751036443 1.6242805198885344 11.949344629822795 -1.002300344452932 0.22911177403313446 0.10591350940537887
Ni 9.028220042033427 8.87187188201258 5.115230231481808 -1.7470386299518366 -0.3923886518493307 -3.492521742491095
Ni 4.473863379969379 0.5047158822013977 12.037378146986486 -0.25877176299141236 -0.9204155938619826 -0.7444150978315308
Ni 0.5428026484621438 6.263325768630539 3.137640957655189 0.4730181898769402 -0.209006261532511 -0.8878857395550773
Ni 8.490900515246881 9.217282150153183 8.904428388343984 0.11850805824093782 -1.356322223598606 0.09150556151016499
Ni 2.4751542829349265 4.2474583472329694 7.652548557925265 -1.6000844005550634 -0.7358363550235844 -0.10044965807733024
Ni 3.0024616446260706 4.9225252791126515 -0.2589294850552653 -0.056717507296702316 -0.8462883757292651 -0.3212829941517564
Ni 5.530448482358201 7.646230146393307 1.7688752277206443 0.15023135748614772 2.5432966805965878 0.24631193996150486
P 4.258931798194461 4.974179377566234 4.184864402850288 0.7573060948615861 -0.6822653637756637 0.5649081313097174
P 5.243319951147704 0.9409012283434895 9.99049375462482 -0.16073174279683933 -0.35191537432563263 0.32534122338153004
P 5.374901672651017 6.988453525987229 7.990883374178767 -1.7297780430991758 0.706159396784442 -0.34402105917922043
P 6.454622229977801 1.5834682197962622 5.250715943160268 -0.5895405851464169 0.00477762389430145 0.6449949094599795
P 2.2271599299833866 3.69377241874622 11.06396189397489 1.6421728450846813 -0.04560365677172792 0.6428632078289573
P 7.778490658750546 6.25320047172615 3.6104404710110383 -0.9190205132866688 -0.46448032760925817 0.926025226739276
P 5.494321724688164 3.837364967303715 9.317481107843339 2.5795181248224672 2.689888384447619 3.155118702849024
P 5.496923756294879 9.578775990471518 0.09294626596897697 0.4111512771688145 -1.1884980927313595 0.5407533884403848
Ni 0.25124689245993326 7.1469794733310845 11.107771244240258 -0.940061136007052 -0.1327059470078747 0.29570206035885843
Ni 2.147270017536652 1.7247415662695118 2.2676432050645197 2.897656916918287 -0.7511233630896419 -0.3157016434092369
Ni 0.7036355419442722 3.840560940907615 9.715935110157918 -0.9877299028379246 0.3391282498632934 -1.361455173949797
Ni 3.5920763501171282 7.324784966456577 14.008606584852778 0.46470478491523837 -2.0511525685234737 -1.0426088142639915
Ni 6.780752952336767 2.239151901736071 7.703587973550015 -1.1089471324799096 0.3356577748161897 -0.24934455614024154
Ni 7.961632202199952 6.061338351333951 1.431354960491852 0.23593496760255495 -1.9990967283684988 -2.6146329662477292
Ni 1.1442905373064487 2.24517617056466 -0.12179959108618617 -0.7754999921617934 -0.3603665904167794 0.700821015290664
Ni 0.35398943032216035 2.014868090418179 6.943176290500247 -0.706595455880596 -1.1201805393018835 1.1485698890778542
Ni 0.7969108329243881 -0.09174706879370853 1.2012043221128792 0.20011410124920376 -0.6531129105814235 -1.571246393277449
Ni 5.10272539552838 3.0642033293810464 6.044602385724388 -0.4319137065271465 0.1430410103852956 -1.2281679005171557
Ni 5.409472867947474 7.79978772179246 11.723963439957725 -2.6762869916141003 -1.9982991721678685 0.6050762188881709
Ni 7.234722618851708 7.203375680111398 7.050071708517392 0.3302409746759925 -0.16095311477902605 0.36799633904789525
Ni 7.6721373306514655 0.3374637013242986 0.1736714682720698 0.29244447265350926 -0.08522769892125322 0.37510029708252823
Ni 4.325962395019607 2.7489992542401303 8.18447358295325 0.329746037317445 0.2267612715230869 -0.5773972649156637
Ni 1.6930269491499914 8.754639044949194 9.389273611061787 -0.21226950566481506 0.3031502891067876 0.1987097647025094
Ni 1.0064959939595675 6.264532507926407 0.8558515626418461 0.4936523211875241 -1.212750537520821 -0.8254339008777589
Ni 2.031130787960145 5.644796458292404 4.883542886030754 -0.7648191154091796 -1.8965392799195468 -0.8556222515356813
Ni 3.231977802109638 5.021591033182783 2.2775365817604842 -1.2589576322045029 0.7534358132729024 -0.21391604012930251
Ni 7.376043103578702 0.252452688990726 6.635818849077695 -0.08575760328279425 0.45400693888176 -0.07749536327400201
Ni 9.097645262148808 6.364946416053639 8.182735124155142 1.3635033147280773 0.875736505787053 -0.6811009111539174
Ni 3.3147808586378034 0.052912689828569434 0.43547073021532023 -2.592385210593122 1.6929014817878008 -0.9517262310498061
Ni 6.234260321371479 8.881610645236261 8.744215834281137 -1.1320970882338117 -0.13726297025093778 0.6867892197879462
Ni 0.22953878384536508 4.474617592029296 6.475855184994621 0.11308997254916006 0.6795546497127201 0.7549581634546997
Ni 3.8356019966136587 5.621821273417175 8.594421777060973 1.5508806851369032 0.40260441604006797 0.6609740584970552
P 3.12031670663889 1.412544911717516 7.304623935329913 -2.1774361569447724 -1.534636198253583 -1.2881684494405041
P 7.477154657861358 7.269991460303588 9.803126738109727 0.8552203881115722 -0.867646272579751 -0.11463829087288645
P 4.961536897911872 8.839751875910855 4.392626256230617 -1.0294020857657304 1.278632484925611 -1.6693884862675248
P 1.4594097635906238 3.9070918722430648 1.2669744420328877 0.08283580165030895 0.6585255969565627 0.09798217037344416
P 3.555223663339422 2.6342081787207254 0.10076084567479456 0.13824204633475548 -0.5430804939116647 0.1675654778892211
P 9.741780071921134 0.21561697198436758 3.1233740937767793 -0.38425496699860273 -0.09826936259655979 -0.1861761510118729
P 8.56983823496797 5.664104287026286 13.071285978263747 -0.44151086329727834 0.034405216952747196 0.08587895935200694
P 8.497669568484639 1.5192376352435597 12.123548760362182 1.8054013861614453 -0.3077564204202313 -0.07987749035293341
