# total energy = -340876.4292172924 ev
CRYSTAL
PRIMVEC
9.17216153075700 0.00000000000000 0.00000000000000

0.00000000000000 9.17216153075700 0.00000000000000

0.00000000000000 0.00000000000000 13.42438553655680

PRIMCOORD
 96 1
Ni 7.884784296721527 3.2750944799714055 8.369245018038184 -1.2016348872236338 0.2031588016127985 0.35552777426723925
Ni 3.729776862259261 1.6773773506345573 7.964163849882021 0.1125929783080835 0.20981178815294188 -0.3238852076612938
Ni 6.498623068850615 5.3749507544048996 7.180488881107233 -0.5263330992499968 0.2673836730301395 0.8198188686838268
Ni 6.492578614523016 1.0290247815071931 5.171355371771926 0.382973786293334 0.7880652304213137 0.5927032991451147
Ni 2.367426565244867 -0.06998267386060908 0.20967652560595942 -1.4732092012963531 0.9586604962757941 0.33899172428542906
Ni 5.749101560067093 6.850283734890241 2.194363473303409 0.5604734925771315 -1.3190278580235217 0.15270912960267893
Ni 6.980510081693336 3.3944151269330516 6.0319921119761695 0.0326165004834406 -0.6947311003428422 -0.3735779469007308
Ni 7.558099426029472 6.679186237125422 10.743427797331167 0.07049682046898181 -2.3264961198306384 0.8590384763060819
Ni 1.1317896772377092 5.287741844318703 12.027013993211444 0.39339241052349666 0.900513712731733 0.7429750229508947
Ni 4.063643535285929 8.163462074923977 1.3847386256460095 0.897008784902268 0.8414708997359638 -0.8641009784306538
Ni 4.587566563581431 4.264229531780989 5.8876268784568495 0.5230829677438151 -1.3986425816333719 0.12218422154094441
Ni 2.098379556456646 3.6071358928900423 5.707981843532867 0.9340565816841848 0.21804188937221805 2.06676842068386
Ni 3.375896533173688 6.167553905034748 2.4237592285890392 -0.8174092308010696 -0.35569566730367125 -0.9555869995567928
Ni 7.625432262476965 0.7594916481675873 7.703140647840056 1.1511304507161788 0.29683874506646296 -2.0090605244494304
Ni 1.18884969297669 2.850405065287868 8.144439929506671 0.5067919438932756 0.9466300474738212 -0.15970612974580237
Ni 0.22034099760398432 3.0974480590049076 11.797389851108274 1.0327496620817245 -1.096923368546156 0.3153936252505149
Ni 6.397371579742335 8.41936537650211 -0.26549829956311044 -0.7644288219492963 -0.06290075328927879 1.3820383974177877
Ni 1.2546507784792533 7.814553057288417 2.3337353821854836 0.055572852169297846 -0.675235967732708 -1.059539271470743
Ni 8.403616775469507 6.1827154877411505 8.346719106986367 0.4930110880590993 0.6037775546814054 -0.7771938349244486
Ni 4.661796865361783 6.968081803068305 6.767849852001234 -0.21241220189026644 -0.45356316647612216 0.0013197472526880495
Ni 4.807680091584012 6.415871829179005 11.063639873760724 0.5365699464866566 0.5642586706511766 -0.02823456936566105
Ni 0.6016836949782709 0.8387593009596496 11.92889571441926 0.3710551804788771 -1.5973461756882943 0.20303281755789546
Ni 7.089952310884385 3.6071817536967767 10.784989612042313 -0.3844809669664798 0.19726480472586674 -0.32809436064663494
Ni 4.295662528716769 9.241227721828526 12.214928648805781 0.1550524330238749 -0.8365510938368432 0.5018279150197809
P 9.065929374166831 4.262771158126834 6.940675384963808 0.2784175622467979 0.7060133581248809 -1.0097693991364673
P 4.492983235772337 1.3636343996029585 0.9779193329146111 -0.6066970423210455 -0.569036037435162 -0.3184864052432257
P 1.4550349874246822 6.416825733959081 3.964354888705883 0.12858652552286243 -0.09078179597026301 -0.1783222021850929
P 2.2488672076750125 5.945147336695444 9.838128134664396 -0.9172122564333364 0.3704869666802329 1.5338378707220035
P 7.831466522812075 1.0963667901160337 12.76940964984457 -0.5533965311256921 0.8177465595358303 0.34991891272089415
P 5.240560246350319 8.7958825997918 10.257210607116582 -0.3012399594579522 0.5886982917507796 0.519675227613847
P 8.214661079562298 4.744493072065312 12.082201970819524 -0.37384097075413036 2.1414175727583187 0.7877962930306432
P 3.2392863620731607 3.8058507684703375 7.608793961793713 0.29933040114006515 0.029322917333833368 0.152391341251944
Ni 3.3653485476247678 2.5880537342828744 12.730156468144434 -0.330557734585463 -1.1958753590320372 1.8709244075649198
Ni 1.947543363107098 5.637081953537568 7.699502051433746 -2.0754106697398904 -0.4141304144017965 0.9184893233735472
Ni 0.8509582755510086 4.870105821710922 1.372965239341146 0.42558879275038325 -0.004402499943069837 -0.7476937685828027
Ni 6.443645133737377 7.6987270037999345 8.745047729958952 0.0710820035484905 0.3121401513102237 -0.09641302611411137
Ni 8.468729948871054 7.450812654754939 12.989314052568442 1.6452771950416178 -0.7482306149228791 -0.9839295552552281
Ni 2.7882269835173243 5.817645121812375 5.681321122145871 0.18418174628966347 1.48172880873159 -2.2344781374604294
Ni 1.3692110737018655 8.561102785795546 4.659188302674729 0.3097744792915245 0.07393464250593719 0.3356158658346607
Ni 7.466524567142157 8.852905926885393 11.152253958965265 -0.18901104935750673 1.5218521591150371 -1.6517350348518198
Ni 3.8195631496839333 0.3932655899091043 5.445628678095603 -0.9299893535933468 0.7543673239482362 -0.892336062016947
Ni 6.301926068766634 1.56356917264239 9.674685722759687 0.6455330413516367 -1.7272305940869737 -0.14553138090731713
Ni 2.4652384938480645 9.155073610297222 10.723586577905584 -0.19674518477697084 0.8067797761116816 -0.06926757604757103
Ni 3.4187213545023005 5.043120301197241 12.835605138285048 1.0580200066127392 0.22625810663442322 0.4054154031263018
Ni 3.64585158593525 7.773333364195509 3.94244626411271 -0.9883593088918076 -0.8772038343611988 0.37460715949619355
Ni 5.653454261541761 3.6884379310688438 0.7043476969339711 0.3578039718959257 -1.2253661694023024 -1.5547738495437222
Ni 5.019226820888602 4.47792254684075 2.6701904391442426 0.8634453471245257 1.2458015544385188 1.9731368139696277
Ni 5.729629061527653 8.015579317528127 4.655577222752459 0.7958191633351197 -0.415915017106045 -0.4788088284167883
Ni 5.443228323471122 9.152386167022582 7.038808339214147 -0.3248069481446148 -0.252394655820475 0.558823101457902
Ni 6.613541078365755 1.248129371761617 1.3922029305501058 0.7767742308885267 0.23032147807051948 -0.669859533912143
Ni -0.17934510524794053 0.2010822104239268 0.8590563768041746 0.5313518926208267 -0.04838584750255538 0.6558125689007738
Ni 1.4653444967785827 1.2697573282175756 6.3217847152987785 -0.21900322484422283 -0.5495064520426665 -0.4577710339098826
Ni 5.350020819864062 3.5549371226649114 9.179420195376396 -0.8234160991167818 0.6288247274580202 -1.0379456044603674
Ni 6.827472569620535 5.737792285126382 13.471235919624283 0.318185071952723 -0.18657004401618194 0.07311574614906761
Ni 8.296412553647098 7.6615797503450445 4.04836546613042 0.4906744695061227 0.6812425789381041 -0.05603307963516802
Ni 5.943312904426067 1.8272504670426821 12.118085300440814 -0.001853508268971001 0.3913725518799905 0.8021962705060571
P 6.9177358094352455 8.575695694498442 2.5953905461442486 0.5007110278065182 0.7666057749959572 0.010990951793864943
P 5.376464161027137 2.826254764461516 4.150859783101203 0.252698560214139 -0.46864628606148967 2.0369791052365693
P 8.601047548461237 0.4352392346647262 5.47735059811381 0.658016518530628 -0.37662161882306106 -0.11302338097728278
P 6.3603985973530355 5.5834339818196295 9.387390698971835 -0.6646368520606231 -1.150485103822696 -0.4912717367704894
P 8.637250069297398 8.63103134390421 8.923578347279289 1.1384975924435168 -2.1779843161387586 1.50995283657429
P 1.715102450254301 1.974133458851722 10.102400116255426 0.0816546368580142 -0.5509575826668963 0.7009765670319218
P 3.000103910630402 4.227265721553037 1.425776709944249 0.5090455158141426 -0.69040779037714 -0.06678157640092369
P 1.3825840849456261 1.9950459867226231 0.32428176441917117 -0.5781907073512366 -0.1220448677496027 0.23682225530351472
Ni 1.0759954197645987 2.3076607619085547 2.6401470246525154 0.3033534062565292 1.4830146174225491 -2.5891240233433477
Ni 8.221686955154013 6.633169503648092 1.930265762777968 0.35003615502504876 0.20723142902027536 -0.6466100764658992
Ni 8.908048960902875 4.750849379878704 3.484071169666597 0.09084684488024355 0.20552035986643963 0.9817580015252059
Ni 2.726956945720123 3.7790221965306947 10.675205261233026 -1.074763544619665 1.4933872189061248 -0.7039983845773812
Ni 0.08971657899843533 6.131828336588624 5.607849358108906 0.687150716892423 -1.3815594008988399 1.3175016511869826
Ni 7.372014616623837 2.7524555542644675 3.634316675825406 0.6968718008349288 0.6072490581697735 -1.9730581382128922
Ni 3.503783978833326 7.906696590179238 9.071125403569843 0.8842612554286126 -1.3195410502145146 1.7605772878682198
Ni 5.092741694083897 0.64426912289573 3.195621370765173 0.021381808109885755 0.22146582745210247 -0.3361745665516081
Ni 3.664746238309836 2.6284295885318683 2.965379942203359 -0.6674097868200699 -0.8527521290767378 -1.2236041924058734
Ni 4.088252444179625 1.8062003567515776 10.485370872268787 -0.5917093106629615 -0.914224377449606 -0.5298570532428553
Ni 2.1470745610472664 4.386292654985354 3.4777478816340537 -0.263981589327126 0.19823179662482635 0.32408009728091924
Ni 2.7303781619025114 0.3670139469181805 2.7591136261861724 -0.8503718017700193 1.560937812262589 -0.15861032557846233
Ni 9.412655417401833 2.8274838340819985 4.822696754141135 -2.0398140035822028 -0.5218215845328884 0.6362809266257493
Ni 7.3426637003138016 7.658305288744206 6.2324451121317 0.10042574681793028 1.250216138566447 2.2505806994492463
Ni 2.695248783943936 7.349396066742416 12.078603731923142 0.1536802352666966 -1.4758378971684518 0.5625887391479214
Ni 0.45181241300241537 8.03987637293603 6.88013178234528 0.4484397292066277 0.7963166717968285 1.0671638778955364
Ni 8.758909617402502 1.4971902409749722 9.781222211236043 0.15082296832355963 0.22083230763316158 0.12067832641937926
Ni 8.846384520167756 0.6913819296540125 3.1657118698291105 -1.3402530859508854 -0.7742046703891375 0.90501468592588
Ni 6.991223166146499 5.925885797866983 4.899819955610295 0.14042876957342915 -2.2065883530286965 -1.1238788140890774
Ni 0.7040147474770792 7.276743376713728 10.704497475710442 -0.2623216851261998 1.0996055433640095 -0.9721029949339451
Ni 4.060369073685091 5.473441422947767 8.859355790744523 0.6724288373012162 0.3271358533881076 -0.6009130886494167
Ni 0.23776260086626047 4.714692719849277 9.848089101887114 0.5479290802532176 -0.25204627134212076 0.168051159276388
Ni 1.5724845134715635 0.45594538890532244 8.432943844160041 -0.24446974454644346 -1.0854889014569693 1.5398977037628383
Ni 8.447872453968234 2.9882167895248375 0.8494173524447317 -0.18322915256840702 -0.08436277981779663 0.10531958457512183
P 1.2308673641067769 6.762781315640945 0.3405311654613153 0.08105248449764105 1.2136946466016452 -0.22549654587805032
P 5.9078349843363105 2.01075789910984 7.514232647171851 -0.2581896652356973 1.4007478009018328 -0.26850518822909236
P 4.721186610082873 3.705470634690012 11.481850073668822 1.850638403622374 0.23276119786026367 0.13382180577987274
P 7.32163193434539 4.601260600472332 2.13743095060715 -1.30323639951722 -0.14558048897769768 -1.2130914658000076
P 4.926532958316967 6.759451821072025 13.31711058921574 -1.3263493313855996 0.27475476868323 0.04645829146253934
P 4.9391079915235485 5.897342031755472 4.647119572774495 -1.571337153219042 1.5838442845471177 -1.360662759955489
P 3.1280739057421623 8.543235415491813 7.212156685373493 -0.9982716829095131 1.1709192033073317 -2.11076873752421
P 2.170500261127214 1.8388991119532279 4.387867515088614 0.721137358250513 -0.6453592347779338 -0.011912435166869807
