# total energy = -340857.72761698556 ev
CRYSTAL
PRIMVEC
9.34860991911914 0.00000000000000 0.00000000000000
0.00000000000000 9.34860991911914 0.00000000000000
0.00000000000000 0.00000000000000 13.68263558860485
PRIMCOORD
 96 1
Ni 7.259775019496957 3.068998975613717 7.280516779763051 -2.248100356229554 0.0005052217711926782 0.32904669725757524
Ni 6.295297657468605 4.239884290459068 9.889097664184149 0.22885826326143166 -0.2620769161052454 -1.6628563415759618
Ni 7.853411733291937 1.0168856678163005 8.291964361336603 -1.9736911438112008 -0.44023199658485473 -3.2280022783826277
Ni 0.9354405804055627 5.788640408006672 7.759121656200029 0.116996763802734 1.50687394053865 0.8679437492155115
Ni 1.1311817695935829 8.537440153948076 13.699738672104015 -0.8539299514349229 -0.5047466313284726 -0.8524135147903965
Ni 4.9370381590863595 6.981859551344247 1.0486662663760806 0.12724518100361956 1.9708855560416054 -0.8529241358782278
Ni 7.541140124616446 6.495993609779637 9.286445151227218 -0.4340999155451879 1.023919208274288 -1.654240831992809
Ni 3.9092052693510992 0.13730583474836222 6.540204119751414 1.1263745839277377 1.2916666924017495 -1.1702252625641008
Ni 5.157440980573452 6.291997598256484 9.88911075223768 -1.3986191845946043 -0.7606701262378126 -0.8122019755685174
Ni 6.7871747550484915 1.061693553945739 4.509563633495977 -0.16920558459580534 0.01614627074255929 0.24069330822314677
Ni 8.2141184886473 5.665360292340303 4.197667838929062 -0.6380033086334947 -0.36110526835501683 0.1309506548796648
Ni 5.519465889891729 5.939919609622898 12.405237626505285 2.062214996985223 0.045206678443625366 -0.9029863426419416
Ni 0.6899086961360927 4.026333999857198 3.4293065453363383 -0.1626778107796166 -0.11069473284410614 1.228728401006316
Ni 3.9284540566535218 1.5748948301739152 1.1773797939803645 -2.019483262444651 -0.8474751969485146 1.023307285721902
Ni 8.73678055785753 8.205826271873502 7.434048996308798 -1.0005082855495155 -0.08858838786337 -2.0641363823776513
Ni 3.3942931975540334 6.936032666761208 12.520500374522037 -0.4655473354211918 1.3265048831268573 0.9697031272432008
Ni 3.674302754271942 2.440978075466959 12.712988247546267 -0.3050482774604488 0.4239340307557795 -1.7096547899867396
Ni 4.386788342751577 8.956557022496998 9.069617238076427 1.397201221201155 -0.2422675946888021 1.1597271912462543
Ni 3.4529370259892445 4.084510397809106 2.9024834099637418 0.3590370729720785 -0.5666698511958305 -1.0826861419008516
Ni 0.9772288656128628 1.401665093061774 0.7235449937145862 0.5032985860280365 -0.6422528279384682 -1.2766303668939174
Ni 3.3917597243345305 7.229055488134275 2.9772180653561797 0.36521723364086134 1.8875273062289233 -0.9860995663233534
Ni 5.248935823375208 1.8076471650298775 8.728371483462908 2.243949053065342 -0.5528056916192287 -0.6718855632032364
Ni 2.316071301718696 3.034530651774944 4.935874257182935 -0.33680962903244577 0.6415164639930758 0.3524241956412511
Ni 5.394474978656471 8.537084906780766 13.066410566249834 0.692191107529808 0.691761476191557 -0.4902898324731943
P 3.5434970078243935 5.059317973518459 11.570077712265643 2.5388941806535175 -0.23620981853049644 0.5115438567559641
P 0.9953932141940226 5.002945857232101 5.328223251675019 1.0756279495024896 0.9049540078912736 0.09902500981566172
P 5.186281441393255 5.249459345516508 1.98457053782108 0.2864797704296421 -1.4692409606772245 2.560953474446402
P 1.7878374611474905 8.171900167395359 8.221512304032187 0.7871314057531347 -0.556529420327719 -0.8774827990541986
P 7.17635737544668 5.074313143422824 6.205349074705616 4.45048675536176 -2.4870630549148394 -0.8811653901121081
P 2.0867686038295106 2.4014334565795137 2.382393143272644 -0.14597798152643246 -1.4277243294906765 1.805094653554304
P 1.0450904231788116 3.0598934297989717 12.524769884556527 -0.18773398241729602 0.5633454148082878 3.0541021165246303
P 0.17527708262900896 0.20236093969255914 11.68005849582107 0.4349810325985605 -0.7706814877272276 -0.17073770496961563
Ni 1.634370684869406 2.312079445391287 10.749816677250804 2.357547332709488 -1.6397920035573308 0.26069134861162846
Ni 1.1181872021577557 6.389157698515874 3.0224943168298886 0.8925201530032952 -0.9767078406958084 0.7279821490864882
Ni 8.235050025689613 2.622836579300876 12.272448105086598 0.7798932361334826 -0.8275213795344071 -0.4134207899292816
Ni 4.359013623433705 7.411016826674519 7.5074701720431545 0.14207041894191014 -2.0019141432126366 -1.2134573337798584
Ni 5.819789975413993 0.9727695788021509 11.33552950949283 -1.6115391793592244 -1.5307939416893572 0.15561113374082233
Ni 0.3350831511216508 3.40125791175525 1.3844094293401554 -4.740236454791927 0.5397378026916769 -0.8097473433804377
Ni 7.885823363004176 5.291518740404124 1.7409373561747876 -0.4830863727462197 -0.034785740220617506 -0.6427559928271318
Ni 2.0585544998573333 0.6999762138854756 4.6584178057648264 -0.5192311980978929 0.48837281795613957 2.163021267071023
Ni 5.996787202221557 6.855410257001083 3.4483384448945085 -0.598314474684305 -0.5601019681703256 -0.6418813035316623
Ni 5.936049285221149 1.4407890245142463 2.258893335279123 2.718010596605132 0.06555207486919679 -0.3676795791384248
Ni 3.370183133225258 5.653730621915722 4.477833517428395 0.09988992891911828 -0.589896425823939 -0.4855841994674089
Ni 8.759329404372073 2.5218528976880674 5.374757826009779 -0.5703490998196307 -1.3412187922982644 -2.5640958767301263
Ni 4.146257964653451 3.230739271446267 10.181550220367587 -1.0689289402157591 3.6423808042394885 0.6283858401483888
Ni 8.968364316505236 -0.015853372271709073 5.312721387126754 -0.24226913735069888 0.9266608034407461 -0.45995467182476274
Ni 2.493012436868264 7.864863780132864 5.544436026309783 0.290914409162228 -0.6793325063995849 -0.030059538389541778
Ni 5.893989890333532 3.0834612747671155 11.843907837994283 -0.004658324707617783 2.0072234712406916 1.3690263014288357
Ni 2.4473912216978784 0.9673380365861685 8.147571345600397 -0.7815703667255895 0.7660722710899904 -0.05307322567589569
Ni 5.856417828085626 5.322649610592112 7.68512554097121 -1.0994849586257451 0.11753798101818468 2.3620171955553837
Ni 4.077311968366238 4.859790597415683 0.1713011189380325 -0.2543414951342007 0.029422161915859005 -0.32015145165047443
Ni 4.64985821875458 3.0477028427944264 4.7188126287904915 -0.136793486813687 -1.6983537631516235 1.8495899077532019
Ni 6.240402621509483 4.132982938927641 3.722018992868493 0.8726092730119811 1.019661461439199 -1.063148843198872
Ni 8.952733441143579 3.7656012762707105 9.221521861679312 0.08461526214823492 0.2807225562308907 0.5940510714222608
Ni 1.6514599433389685 4.590700216787735 11.031939019753244 -1.568965824773388 0.13584963484317894 -0.08968779157513586
Ni 2.283631626177458 3.6723395462420694 0.6942857151817433 1.5219586027859144 0.3852795516083752 -2.073776990791209
P 7.388673649572629 2.4170736805508364 9.926081698884058 -0.27860576699820405 -0.7473461554353968 0.2085717450982537
P 0.5093646068212241 1.3204911153313517 6.7424472669621816 0.620660446479673 -0.0009104276294113353 1.202341426372355
P 7.2029448213369625 4.355358317054274 13.086441832181306 0.6966745972224582 1.3201750842540878 0.4964640796047063
P 7.348624205763217 7.022497957562621 13.611855197216261 0.0886351819409054 0.4810528872559587 0.5027069751906246
P 3.813120259203307 1.3002700726236582 10.339611838296541 -1.3048356256835398 -2.5612010716808338 1.1090427775175093
P 5.655983636845242 1.6632111456892094 13.625127418359169 0.7476606013520221 -2.532095155453813 -1.1450487632984732
P 3.8690155963966957 4.8420282390501646 8.539154688960831 -0.2629850297418116 0.870483742028546 -0.06551813630746782
P 1.8001028370293648 5.943172925786687 0.7912298625578467 -0.3497798160398686 -0.153742970183832 0.31910115600908917
Ni 7.815746184947371 5.314563063230968 11.208377199702777 0.09883371974046204 -1.7261450743322788 1.0620283564411839
Ni 0.022733948985931195 7.6585960564608575 1.6428601573071575 -1.2871610912219122 -0.15203807167758332 0.025874039553284475
Ni 3.920760150898353 3.0875185713621867 7.3813303166799376 0.12278791656321433 -0.49848933756485114 -1.8700636022265216
Ni 2.036416992168097 3.538065465608411 8.795608553903163 -0.3881270483594993 0.7063401453366802 -1.181918639741629
Ni 1.888587427518648 9.305970657375756 2.6231525623075886 2.217663122785619 -1.619991681001952 -2.461901468047547
Ni 6.664941683664722 7.840501303343104 5.906616122548516 1.2140330037776705 1.9383143069738038 0.019848659294810975
Ni 3.044543012727297 5.545286749789394 6.550602578282976 -0.5141828370407081 -0.8579357301602063 2.284552685519317
Ni 0.16981469000112853 5.830849380648944 12.896704320120833 -0.2785659148992041 -0.13953608255583066 1.4891073605838483
Ni 9.367400371491454 8.174284062860206 9.452293226147036 1.3040732935962187 -1.0701239889651246 2.705682671167398
Ni 7.094248536749651 8.055687600636535 1.9443163594599808 -0.5395364853141482 1.2770736250789232 -1.797916647748626
Ni 9.473413605104604 1.1033696558370465 3.0745838350282226 -2.4950638137321284 1.457758928179554 0.4165176836870504
Ni 9.250215549327358 3.9681295560762924 6.859255340156734 1.2695824589082008 1.4535798571011997 1.0572543320913081
Ni 2.421271206290899 8.969476801055496 10.322207531681231 -0.9660197648543427 0.6196620871221458 -0.1520866655273316
Ni 0.19175494202641102 7.139093817317755 5.380395037638415 0.3991856201665061 -0.9153392077803397 0.21754438091050923
Ni 6.003312531768469 3.472681289603969 0.9562524552441514 0.6675002896513472 0.9315253306218989 0.8736955640976244
Ni 8.103748802929763 7.55872485939831 11.522407281856456 0.130151298906821 0.5495128798005697 1.5267912482878674
Ni 5.631574417007153 5.978650899469395 5.482686589743505 -4.041586221900336 -0.8568381262206534 -1.2087295892868861
Ni 7.862984709589985 0.5588645601420593 0.28832327529393853 -0.3114942901961087 -0.19587255236403042 -0.3767720283579962
Ni 1.3105628918659933 7.408651628429006 11.603298931574964 -1.2398646201287937 -0.2752188528038421 -0.6154966428905465
Ni 4.250410824943054 0.8556885262053487 3.6194404384466536 -0.7778062716974669 -0.7014784463690048 1.1153077845906147
Ni 7.637440152786557 0.16316128450179174 10.31833533755755 0.1349132390718386 -0.39857524027601676 1.1253847092106424
Ni 0.32675260504822234 1.2130288472199615 9.421862566823036 0.7246803384067648 -0.23624478553348993 -0.058650462653357056
Ni 2.901350358472215 0.1395410873195178 12.720869125494758 1.046816681697752 1.3335561335466841 -1.8456111256111116
Ni 2.7199218906829365 6.412202021342718 9.71374018351201 -0.63006399918176 0.4402991023773643 -0.48235052302145964
P 5.69827674697451 1.5741001983523 6.377777635969375 -0.4243297235323014 1.1274346497611356 -0.1554321849607968
P 7.817877667951233 3.1223888854166004 2.5874960301802594 0.23069994445586073 -0.6144915986647997 0.5885175431985413
P 8.43611992238729 8.16240197997464 3.5643397330748803 0.5707365650660363 -0.23123627657530502 0.7782634138395436
P 4.727984549733866 8.089959603672321 4.787157509476176 -1.314001094232892 0.4605038594600133 -0.3018050879328028
P 3.169253465672573 8.425705571219297 0.7788906326596106 0.9990736099855182 -0.09705888722822639 1.7801418402637086
P 6.014381285613086 7.868369508757637 10.832186342157517 0.42791538400103074 2.1203507247856903 1.40407326573064
P 0.2180067728296816 5.801429306029845 10.002361679454298 0.09067252408590835 1.2995216696697942 -0.5919949602241804
P 6.372863071867926 8.358685388523291 8.028244756961808 1.0640497577465866 -0.29700329566878525 0.13395756002678866
