# total energy = -381166.0145703308 ev
CRYSTAL
PRIMVEC
9.21268267010722 0.00000000000000 0.00000000000000

0.00000000000000 9.21268267010722 0.00000000000000

0.00000000000000 0.00000000000000 13.48369231993710

PRIMCOORD
 96 1
Ni 8.623559150618654 8.39241294512706 7.91774513765775 2.098154134083993 0.5568014430421829 0.2675999028060037
Ni 9.138483617081052 1.7860443430149116 3.345398655093682 0.623787679254745 -0.7340059866830648 0.1175300105983847
Ni 2.707137558290119 6.735327732621169 10.378991592015094 -0.37366716418042745 -0.918622763627618 -2.0898551272999946
Ni 1.2414918894317084 3.3829246749752646 4.83301380805874 0.875670685546124 -0.8126058958751554 0.8063601720757597
Ni 0.5673805597046705 6.951706007965172 13.368191088514635 0.9058610930865755 0.608157686026972 -0.42595106118580833
Ni 4.9226495243182455 3.89318752406107 10.777839021995531 -2.3491837912361415 2.8722983835488405 -1.1587923381368108
Ni 2.3920453892895823 2.1302670142778797 2.85362105356941 -0.04114896343448397 -0.9084779618841321 0.0884541762783509
Ni 2.830946799246736 3.1034855874913663 7.4107988542944225 -0.05959071507943932 0.2921935329849677 -0.3361925642737371
Ni 6.497916902987118 4.407448677378973 12.14265832908584 0.19144845515440578 0.8276015979530392 2.0222914213174072
Ni 4.372901117769827 2.9864937316309548 13.057392029588197 -0.0507368642332352 -0.44182993719959396 -0.630771823882062
Ni 8.236847587377715 3.614881596532352 11.117129223014569 2.293002616058883 0.6673653067353797 -0.24532643611978394
Ni 4.748456122427651 6.514416817456445 2.775374976761848 0.2301237602374166 -0.2207045238060457 -0.8554764699864364
Ni 1.954175799779422 2.5180288233309347 12.572140692391155 -1.414636643068783 -0.891827754921961 1.2255973115765022
Ni 7.878271556682468 0.4658144195268062 1.5953233886073006 -1.2247221080604005 1.3510604609790344 -0.6117304909798948
Ni 2.8504224101837314 7.097607261706518 3.8826288685762584 -1.3789970394883027 0.8047336922159303 -2.207476412060605
Ni 4.328155118564061 5.097423325210276 5.430098820149483 -3.536789454060219 0.8790827965514666 2.5072367016492367
Ni 7.656052440593879 5.9773358494313795 0.19069608016469225 -0.2187178323933201 -1.031466424493927 -0.8569414845677371
Ni 7.955602814111581 2.378898891272982 12.978849304402122 3.597660835624294 -1.4973472319951373 -0.9196054392558615
Ni 6.714626834903369 7.648286149193742 5.7458727276596395 1.8041613431067574 1.8127753100280135 0.8728396438552324
Ni 3.0008563037457967 4.6937972767847 3.377651335476524 0.9015059014416732 0.13159445911125078 0.06681422941107203
Ni 6.4758709536152015 3.2026509025934597 0.6893629257091556 -2.8906558030101057 1.191111876205123 2.0620807854002035
Ni 4.5351272450118145 2.5051771311563322 4.983869642482166 -1.180294730984961 0.7648515113090117 -0.004694834372508044
Ni 5.235936007536544 0.5472213677215416 6.090435346909162 0.5760119545323628 0.003749953960735477 -0.8336586027803965
Ni 7.847620961797234 4.107198139986526 4.176816539574365 1.2355338539639238 0.35123506042915636 0.07854231648127763
P 5.554169701290872 8.45311531053097 7.646965971782545 -0.18296741426658814 -0.4359544522554234 0.3929918326509684
Ni 6.651685787636786 2.1449980936952198 3.5249335703339795 -0.3976195612309668 -0.7500949218251276 -0.003913990342425517
P 2.637204084958645 1.746743039203547 5.819049065253092 -0.4850614941947195 -0.7862826845995942 -1.1025664257645464
Ni 0.06013302162155142 7.106672541347957 4.35562365289223 -0.7075501064843814 -0.9762005620420865 0.8712597009626221
P 1.1081659473880923 8.907696706209395 9.816829095713787 -0.7222280202115303 -0.18005898237054152 -0.6305270548611076
P 8.253725221832104 2.146757716064646 5.241165126158984 0.19385963569905967 -0.09541158143279051 1.1709058335708933
P 6.474553540008773 5.161350129511039 1.8687585708652572 0.5180834576466948 -0.9246124055521495 1.6400437145568205
Ni 6.944197671676784 7.474295426319521 1.805034445580867 -0.8776450356636755 2.4734477781242497 -3.127644922908788
Ni 0.7754508379138663 0.18311035734278003 0.9253761913984851 0.6672375229082638 -0.41522621856913655 -0.3900245224925283
Ni 2.9941586835229037 0.40313961878627785 0.06836731729585933 -0.16556695940195354 2.197621887864028 -1.0047927718574825
Ni 4.4140449580936805 2.9947851459371497 1.9902471370843955 0.5442891695077852 0.7285619328493581 1.044869071053078
Ni 1.1028133788193153 4.889400952950404 11.460248214906557 0.45717042421140625 0.07248299766107516 -1.0675968516678969
Ni 7.525683769652805 1.2790612089213345 7.339712874374388 0.4032106821654991 0.2817170589336761 -0.9195141650936358
Ni 3.439730075655263 0.8088090402042014 7.725306017952245 -0.7777507358691831 -1.2145803916407083 0.3328182484848655
Ni 5.180245341446601 2.1957231238840085 7.7370098098795665 0.8230006088459181 1.4663880646094616 -0.5852105903124953
Ni 7.864627573807496 7.872872924700879 10.304939128309952 1.0908761339108115 1.3963566138126726 2.1930759203645587
Ni 0.9652680281621019 4.047896102332107 2.7102763192391417 1.1766098259342057 1.6319257134353766 0.3755353277374177
Ni 6.310908659652169 0.876251404170792 13.237277948034121 0.40302736251009946 -0.5807044749120258 -0.10882168419110937
Ni 1.6948295729642036 5.928757374279639 5.2802950740746875 0.263897514253752 -2.177670898663398 1.0036635433490457
Ni 6.086248182684533 2.1715858955704186 11.198233073953 1.0868934951139797 -2.649256726969186 2.344044413127047
Ni 0.009146351247989376 6.114862774723469 9.39764835404979 0.5741355634452564 -0.11638227014718666 0.48566030412098293
Ni 6.155481492141262 0.6737363735467468 9.23040960622558 0.5641900221967703 0.4874695894155798 -0.9435732629253686
Ni 4.722264465902637 6.507433604074117 8.77754637584505 -1.28407371054584 -0.3487891699918251 -0.48952570061366013
Ni 8.869325883336836 6.071388125711319 2.1970055292967 1.0776840607005698 -0.49122622824453466 -0.0022147482631316696
Ni 3.106534985419534 4.615480262321407 9.1058605868592 0.5909690900628275 0.177856575402584 1.6541071346284222
Ni 6.932976624315733 7.101974073241113 8.456620736245979 -0.3910192823056298 -1.2930286057462828 -1.587440743649124
Ni 5.490906210134605 8.288466247775062 10.43784773583349 -0.18740616676423208 -2.546365806440215 0.04194729096606324
Ni 8.413537626242732 3.3711048032476554 1.8887685173908744 -3.555801733496663 -0.7058614059280489 -0.7516018453879573
Ni 5.451042932686931 4.300959279639742 3.8843553252884595 2.0430721055081844 -0.49316046915277 -3.0750105845425235
Ni 6.467478199800818 5.4469156508989585 5.7516168352373205 1.2799447759791311 0.7136096824149 0.7243463521061139
Ni 8.38282254257956 1.3519151026251015 9.816343587342747 2.4855993258851194 -2.5050440648732923 0.7092604043072688
Ni 1.6625299079002929 1.9541850124619846 9.624079508605927 0.3729313144556674 -0.5751766031152611 -0.07659213473344229
P 8.530612396246207 6.113536148434477 11.6010585402639 -0.7351285303232823 -0.39357547306858026 -0.15128808088543622
Ni 2.7590694498945867 6.495669008441882 1.0961093097186283 2.2511756527207685 -1.4087007372003224 -0.7986219228912376
P 0.20970368682751628 3.5204516002673527 9.305837523437294 -0.6322905745194336 0.8863816442057251 -1.0726045892951335
Ni 0.8966436770227505 1.1821990644598515 7.38865893556037 0.6721915244794294 -1.0762835808086173 0.3846815130130601
P 0.8145531477818821 2.3446000740930213 0.8915674889308467 0.15218745277125403 0.6520191632966125 1.3199205450411202
P 5.882122775148574 8.33699865951399 3.549096594158744 -1.8936789276526158 0.7547951555142742 0.3610253070467008
P 9.059779669950137 6.5971006434543344 6.69352057915282 -0.9513629341731163 0.011862041544908603 -0.3333617796931614
Ni 6.53324754061407 3.289250118680385 6.199639722199545 0.691003772089926 -1.215598034271945 -0.6863019957388825
Ni 2.586285588436045 3.9439954683929206 0.9603152900165347 -0.34632013962604224 0.2548955678654578 0.1690060669904896
Ni 1.38496099497657 0.05001104729019976 11.954115252835988 -1.7226496595845107 0.24248536712656307 -0.5787411805380678
Ni 4.018424730814865 0.40581406053415386 4.033120802038467 0.13743780526590524 0.16360906434463438 0.26778039424792593
Ni 5.213705804513379 5.601283359915185 0.28720169381100885 -1.3890436250910272 0.2774649685255415 0.21032935121930874
Ni 7.036407411444235 2.9373532828429054 9.39705505729277 -2.1936572467893254 2.5639871190664034 -3.956452625354786
Ni 4.744623646481676 8.138207395181682 0.2602665738032061 0.3728117581586676 -1.1040216701538341 1.1805744670089087
Ni 2.2228636867129534 8.762007344166985 5.942748675287215 0.2023753864795547 0.14151968864476272 -1.354936398994673
Ni 0.3395398647164807 3.343328565321902 6.980709375208241 -1.0863229673224906 -0.07776095823056285 0.23385828757918437
Ni 4.552290472625638 0.3257107069220036 11.936667353330986 -0.36105281785052656 1.3656226750639253 -0.3237142293010683
Ni 1.2015456978409733 8.891104664914442 3.5437707423693983 0.9795052009352874 1.8506376322914257 0.09460682614330804
Ni 7.960540811965047 4.840675074877665 7.877509667834555 -0.6539629172865447 0.06481391115159162 -0.6379331175171916
Ni 0.17450479056120585 4.467137647701016 0.12764632324387268 1.0220068217429237 -0.5431000342956905 -0.6688627172165126
Ni 5.026983154337867 6.309241164108368 11.529446516169548 -0.531828060926297 0.12754908539728355 -0.21868389383159112
Ni 4.224927010451933 2.0431795260151446 9.747010780914344 -0.9557767469700958 -0.5721128765882728 0.16041806821116245
Ni 6.686067518959808 7.75109968659056 12.674428185613658 0.7127550477240886 0.5744186419033139 -1.392990525553917
Ni 7.053404810771935 6.432875364096298 3.636767245227682 -0.10741811897536338 -2.1451027349193894 3.080803794185533
Ni 5.278295921958638 0.94932087464652 1.7159072693988078 0.48882147545778387 -0.4115528834826074 1.0901086596171679
Ni 6.715059830983803 5.405569131558733 10.043556898648434 0.4235817896226834 0.30162742470435794 -0.17006896103736516
Ni 8.97582449375863 9.179489267166467 5.570665930687176 0.5637202816492034 0.8999773806122887 1.6327926894213622
Ni 3.3906449029625882 8.923809688011099 2.0074389240141626 -1.5989911674908848 -1.8561462208144806 1.6534458468953395
Ni 3.1070693210081552 5.226668048878731 12.492384656911609 0.4285933839046619 -0.8542557102054578 -0.42085384916855906
Ni 7.897387872999529 8.860131626139523 3.7225106031045576 -1.1692708690706315 0.36136880642904856 -1.1090435488484578
Ni 1.4560552663109112 5.317901244294564 7.560238699408001 0.07612753639219792 0.3355150785907383 0.5504950412081809
Ni 2.933861676151741 7.586128179944966 12.282672678669787 0.5635685865626875 0.5260585054323714 1.8756938039291051
P 8.241564480849684 0.1451872708427564 12.173967630774289 -0.11413024088821634 0.2716918134871901 0.19862106164344503
Ni 4.476986005360263 7.56800683334465 5.24109787357628 0.4766866398674629 0.009353159080125828 1.0719006212495734
P 1.3482392422826885 7.509064090310165 2.007209528218358 -1.7459801067803349 0.5039927838815836 0.9061367153454652
Ni 3.324654457767838 9.201756320919882 10.035817324027729 -1.1504761049616314 -1.0196072111624956 -0.2670813112983723
P 5.460955779124116 4.294335360877349 7.920725440466699 0.394240874566721 1.4057198001951274 0.5380349610679572
P 3.18183945268491 6.574852015066045 6.830177827211014 0.4685259584335415 -0.43931642674912086 -0.27570299152911226
P 2.845880557680449 3.202208693830462 10.970008210101955 1.5638094773834295 2.1708497619765064 -1.6079442629191145
Ni 2.2437396253994404 7.966261887836322 8.158038615665589 -0.7975587717340457 -0.6251555061365491 0.988122767400969
