# total energy = -381167.9626708535 ev
CRYSTAL
PRIMVEC
9.26112967125718 0.00000000000000 0.00000000000000

0.00000000000000 9.26112967125718 0.00000000000000

0.00000000000000 0.00000000000000 13.55459940321347

PRIMCOORD
 96 1
Ni 6.296558796920752 0.32667246179635284 11.239026506030346 -1.3378892137043992 0.8103955184873979 0.16867927977869016
Ni 5.127322638141125 5.224758984706094 11.244339616193287 -0.5547129359442705 0.5333213576423719 -1.526292454274578
Ni 7.524714263451194 7.04368192080971 10.654999286721402 -0.7543824934568879 0.12831167459492096 0.5162492326514335
Ni 0.2709010120625919 6.616234475157572 1.9797572727878838 0.48284726015222007 -0.9518604426348253 -1.6785356999844319
Ni 4.4511027239567005 0.13221003671629902 6.249415941816263 0.21996944541223407 -0.7021361345576618 -0.6530638025110431
Ni 7.409496547681325 7.739035329148989 2.012640766348214 0.5871309472636598 -0.32410400854031923 -1.6241864358095899
Ni 2.503709395347691 5.14443720600084 1.3158611440206256 0.21220728496831195 0.6991143170122024 2.2541514475196403
Ni 2.676225721154387 7.282563502721771 2.4820503910979537 -0.41031515442076427 1.1036943687214023 -1.171555294229434
Ni 2.385018755904992 8.57093483517422 12.300853007569607 -0.6671868721759865 0.6992457003837442 -0.18356956662696128
Ni 1.9138124719751743 3.9763864718348745 12.888092912804165 0.881091085230747 -1.213456305338594 -2.440133480242836
Ni 7.753723481002619 0.07907060007005487 9.453235261765546 0.9643287503051651 -0.7838223959845598 0.5288458383695214
Ni 3.6780762200333146 7.172559803026049 10.114754058514627 0.17096550470970556 -0.1701242397553328 2.2333360534361857
Ni 0.6205670069120295 1.7031773359354774 0.8550958578208091 -1.676456705968216 -0.4464545804557988 0.07687958406687405
Ni 0.07274617453358331 7.197657464768381 5.570181529883821 0.17631519905739312 -0.5817894804460884 0.938659627673835
Ni 2.7231240824323075 0.29664787900349765 1.2989864394225807 -1.5636279575002425 -0.5532746608358471 0.01491574076956786
Ni 8.52573126064864 1.4976265601528063 3.883474187174381 -0.9416187103021588 0.08566607201025248 0.6950766566077191
Ni 8.161648465048543 6.173728432460036 3.7864369953035433 -1.3776019589129886 -0.9963616103709938 -0.05656735487208322
Ni 2.2843595361716353 2.783163986888223 10.552865695124808 1.1437747816820558 0.08569512547597499 -0.41085045809894405
Ni 3.9406107274398097 1.5989525812313468 2.9208538341037613 1.2584830065609296 2.0695482974218424 -0.26313389661485004
Ni 1.2078828534108983 0.021346904175672768 10.077356690292595 0.273820944015051 0.3037627258798059 -0.7537733991179792
Ni 0.02217299695331702 3.5981434087794177 3.2319453711343216 1.240859122831579 1.001203254734011 0.06446526956292123
Ni 2.7666050868161616 5.250588275702169 11.170996098787976 -0.39831530174641083 -0.05376228132312031 -1.2471665531068457
Ni 4.81771380799062 3.51017193686414 4.357952428260496 -0.5000857355176936 0.07106580559857438 0.8990924069041741
Ni 4.236939097465407 7.209215354751564 12.837032599796721 0.4079443401957426 -0.18522741394535844 -0.006181446220363548
P 0.7501070599086554 9.171528363459059 4.946019352385677 0.595107023490601 0.6860058046547025 -0.03272191571305332
Ni 1.868118057570502 6.323860607554106 13.107243657689644 -0.7171860869122488 1.128798619988198 -0.3637877002831864
P 9.177085041335589 4.861204073504268 5.293626598081859 0.20876869160040817 0.10475548454153573 -0.5045777098507761
Ni 1.835296613579793 8.055117689025654 7.327427193783903 0.4026908051062872 -0.22052968879107826 0.020953719433531658
P 8.09555178170721 0.2789433771758909 1.2246001188024411 0.15627653523896312 1.6312541412896486 -0.5443675881542044
P 7.870413716409766 2.1140566203857585 10.373836942846816 0.9604880364028361 -0.8901136004443314 0.47236795788745095
P 2.7045184726757228 3.5572833041273273 2.981998591344128 0.6259432921451672 1.569852598253716 4.2683204968402295
Ni 0.5714830190026734 8.296823915524952 0.3607024832252073 0.9125277064734735 1.6066345429687556 -0.5559470654616877
Ni 6.886798382095654 4.111691578128401 7.3684428854165365 -1.040236200266757 -1.1359709693669209 -0.4759425626125867
Ni 0.5084610307530191 8.911411010928855 2.5685150771957126 -1.6251667974449882 -2.0145346601901237 -0.007411461972722719
Ni 1.2657371312353787 5.811757174453021 3.854440545269507 0.588062972159626 -0.7685063344527796 -2.087933484797249
Ni 7.146860167847094 3.8142796559168803 12.906947646952213 -0.3375997290339089 0.5983520127904598 -0.7259121539313369
Ni 0.33476205867160236 4.634528660660985 7.450150129139005 0.37446394905010993 1.1651961847806256 -1.113764865583527
Ni 2.740053427696138 7.53309558591496 4.929577142549021 -0.9529395346316167 1.0255212626540855 0.5570588104686277
Ni 1.9105525542876096 5.800143717691071 5.9067282082667685 1.3822553985246002 -2.2132161427578594 3.5572706047327056
Ni 0.43220766636636543 3.65852597503772 9.493288722012558 -0.0065627408191822455 -0.5670061514893268 0.21032600878519905
Ni 5.8576645948429595 1.0822556277523294 1.3910003944930347 1.4857183895069574 0.2282136876988973 1.354688544649925
Ni 7.9795746532942164 5.299598174573171 8.953043493805783 0.5917692173666196 0.48014914449476664 1.1667018227918744
Ni 4.4309227221351 0.4918873128732864 13.385071994838313 -0.5502543859522846 0.05320563748870192 -3.2801452789347705
Ni 3.909030274841526 8.893824125449635 8.733282440466862 -0.05752766190282351 -0.8236145882808332 -2.278812183491114
Ni 4.36191804403838 7.025391189466128 6.951761503150178 -0.7926855028021446 1.0305539399819865 0.992764894158671
Ni 8.841683964708187 4.789004305628543 11.299723950701651 -0.23689013242697268 1.6078455325577212 1.0615992393235651
Ni 6.795789259607874 8.508014719352301 13.231024214067247 -0.11137890339532432 -0.6318123493314345 0.5419234974890861
Ni 5.200476302385654 6.27655475656524 1.4228809076966513 -1.2105465878909667 0.9807820107651819 0.06119816877587525
Ni 8.720539125870019 9.250738806589007 11.743176480864156 0.28658467143862254 0.10820179121892334 0.4820394195389441
Ni 3.8131961037309567 5.71321875344254 3.706993171702781 -0.48318638865919367 -1.0798934096470627 -0.8560639670587902
Ni 0.035334914616859815 2.9460950433579027 6.186414328052156 -0.6261433239711152 -2.8193012625265186 -1.2344568188496612
Ni 7.784433387400246 2.5608042605290464 1.7991152316997419 -0.4261968586480273 0.08547940992074311 -0.4688216352970893
Ni 6.48508761614165 6.020345600808196 12.702557290732758 0.004476290603798743 1.1454192592640144 1.1318147811067023
Ni 5.866481190407057 6.070281612658619 8.941427258704895 -1.1501781141052385 0.984765420892962 1.0987113136845141
Ni 2.8569844524779358 5.9467474023335445 8.431855818489549 -0.8266752294840279 -0.8846294374013087 -0.8660257062571923
Ni 2.518712425614325 2.8874813528902963 1.1954794222775018 0.9171976011453171 -2.7384930328292 -2.339739872214422
P 5.651687807089755 7.9869650348700025 9.95832061070857 0.24452939413978536 0.41349380925906204 -0.24967134335204097
Ni 6.9879854862272825 6.499849857033633 7.08383725348446 2.3190234656026774 -0.6494418894877396 -0.8731443195798447
P 1.8838527170908788 1.4767612347264327 12.723485591841733 1.1943910611770268 -0.8621366556154312 -0.5106699387914431
Ni 4.549854150952449 2.407060244815231 6.755964549266776 1.104977092088568 1.017042535759113 -1.8039474273237384
P 6.144796662982899 5.200161423972651 3.488181384167769 -0.31614644425613936 -1.03540381187512 -2.2956621651689173
P 6.004472024340906 1.7164763183199747 4.180807389782651 0.5605832786821184 -0.22793266612336874 0.510203797788302
P 0.7985418426194367 5.935245079129126 8.995564119029977 0.9969311097212187 0.8321871604411927 2.2604493647132102
Ni 4.154626175854396 4.724296791756341 13.209892168102801 0.36478734519229433 -0.7145851589542919 0.8424420053999814
Ni 6.261329459183545 8.54304957336383 7.826100136457413 -0.1901845008403176 1.163595673062725 -0.1689191637036381
Ni 2.5562107401511143 3.2795512827285203 7.553165380292011 -0.9594814495151928 1.0685317047773406 1.238384178928525
Ni 6.681673618283518 3.8457860194768103 10.253674709879817 -0.13592599660706914 -0.04710235280444146 -0.15733685818267742
Ni 0.5391366709704078 7.28258202498136 11.071356529444964 1.407160903517028 -1.4771663861718882 -0.8070034620867135
Ni 0.012637737717190047 1.4971820259226838 8.378748795797584 0.8614303735770261 1.059877114426136 0.06739427028425812
Ni 1.6565938530705604 1.1988717741211241 3.287722377545959 1.5091128571714978 3.1185807558239906 2.144622452848861
Ni 4.97518079788171 3.4986973970491038 1.957988987206574 0.32726980786281057 0.9981580401497844 -1.156565505688821
Ni 8.911651800303504 7.623641651913031 8.418965251928977 -0.08818832421147393 -1.3604125916178957 1.075728993856728
Ni 3.470988096704803 0.7199092939886483 10.71431497082741 0.2528242871587259 -1.316775057433603 1.8912098972868334
Ni 2.3643201308149147 3.240385964828772 5.172448419176432 -0.04432453294898817 0.4440670540602287 -1.1203623162953866
Ni 7.512628489069739 1.6731620142724164 12.963822097244465 -0.1762473219339352 -1.4006999783830327 0.4009398838534514
Ni 4.604911567579076 2.6652975879972094 11.128556971505972 1.233016743969025 1.3335309367357033 1.1521275245221254
Ni 6.942698561533555 1.6446562567658132 6.412599827129325 0.3402183976036786 -0.17437581594283516 -1.867552148658577
Ni 0.35246378216027086 2.601951460204757 11.71633865283349 -2.0664015242627447 -0.919928626923235 0.5416969833005767
Ni 6.58457067239114 1.8406958522498222 8.593236561831677 0.19975363258599146 0.8427176276588713 0.0804521319094808
Ni 7.255206125309652 3.8151409409877424 4.869557612578652 0.16933876773955997 -0.418396388767002 -0.3212400567289629
Ni 8.589021821662328 6.7810177575860955 13.016468841785658 -0.34136999470961854 -1.639336918297783 -0.1587507078110685
Ni 5.375057860136461 5.759394746596512 5.414927023900569 1.5936568997621652 -0.9401125580702777 -1.285392943577896
Ni 8.790099471754392 9.092642059871908 6.838661807764247 -0.9368166609278255 1.8236541617240463 -1.5149981123076812
Ni 3.8672347960802194 8.96813543091844 3.8294993966206983 1.3104578569663237 -0.83427335354626 -0.16220524201857225
Ni 6.979993131214871 4.9132145784285965 1.300113518918537 1.4166984106938183 0.20078258807113808 1.5401203612966057
Ni 1.8446503546719535 1.2296187250379282 6.544567222245015 -0.012691736535055563 -0.8415763149655765 -0.3765249453441967
Ni 4.480997650932437 4.360010251300771 9.092520739071604 -0.6820835867821607 -1.7764834175755149 -0.1727727331217734
Ni 4.37625427295983 1.85843091580575 8.866660305650214 1.3168663315958287 1.9107628797180962 1.1217705094968227
P 6.219543241552033 7.707649360276384 5.595379211827929 -0.22782185157711732 2.9321225547953245 0.4370631119385699
Ni 7.906754389722279 8.554922341760017 4.245137975672228 -0.6529380755664562 0.05480769186849916 0.6567569350919141
P 4.603957671210271 8.486704859695806 1.6316480738568542 0.11336508058741766 -1.2039223977062299 0.41124975041989176
Ni 5.856979271238188 7.413580705920576 3.5177984772496784 -1.8178601807500885 -0.275926420393828 0.6783660287212575
P 2.459848684642275 1.3051247162501884 8.76296713979627 -3.2268141716117977 -0.40966775064475247 -0.7667618409578473
P 5.1676178138757685 2.6678907043395905 13.368941885075722 0.7233081406495866 0.2993067469909813 -0.1084542735493616
P 4.316658902734036 4.685640835995275 6.757306486973958 -1.5084302292821763 -1.5913339080559434 1.9577179083113962
Ni 0.23170142798260487 4.344062585795128 0.5558113351648976 -2.354495433257042 0.5417558615629702 1.2525892667843137
