# total energy = -381173.6268259852 ev
CRYSTAL
PRIMVEC
9.19778049426711 0.00000000000000 0.00000000000000

0.00000000000000 9.19778049426711 0.00000000000000

0.00000000000000 0.00000000000000 13.46188147925623

PRIMCOORD
 96 1
Ni 0.8094690599333767 2.3029678506630007 7.574475177072357 -0.9800690438585572 0.6386849080815516 0.860884528375885
Ni 2.513035957288819 1.397004876520969 8.722087756632204 1.9946237801988098 -0.993764796178095 0.785142400347564
Ni 3.5327110905540597 1.2543289069084775 3.753253629502899 0.33291929283910404 -0.5227754638057255 0.07756606861093737
Ni 8.098424898177417 3.3065744615640704 3.485428980614015 -1.6348171760505588 1.6147399456847094 0.6972415254695218
Ni 4.6053470433802035 4.370684071956564 10.873080681695203 -0.12704154963324574 -0.6159321877660683 1.002740517314144
Ni 0.9631363771275423 2.485801329515315 2.751527964694258 0.5150184455681259 -0.19075631418338762 0.2119342338125834
Ni 4.463002193862223 5.7104419632487975 8.93669680744302 -0.00660027892533702 0.5601649601977773 -0.0399207474543377
Ni 6.045673465599654 8.848522285608947 2.74178107680112 -0.2770232530024326 0.007246911370400422 -1.1138093456682172
Ni 2.325318457042471 0.275341994812317 13.252993484098164 -1.6291525215656137 -0.02285247911814129 0.18534182803603563
Ni 7.753894439839051 6.175849651644367 13.204463235357423 0.5718272270270539 2.107200817667294 2.722441635793292
Ni 1.7994629558378965 3.55900754472645 9.882084227726748 1.5446053936511526 -0.14931141677503962 -0.4386487112581349
Ni 0.5994579795460575 0.7349587606661105 4.951158752528717 1.3454896517594763 0.4418451067082455 0.681466264913136
Ni 4.4764033599095026 0.3818191798704686 12.401852040492578 0.11435161287040306 0.7144170088075438 -0.9584560935744719
Ni 7.865564691712779 3.8993898041030275 7.318659150277727 0.30723731469196763 -0.19368480068409225 2.5206609454749427
Ni 5.282469241093742 1.6864682235861264 6.49500803274085 -1.257326267248667 0.6234737475587521 1.0378612722766771
Ni 6.752366527309076 3.5444474583483827 0.9883649689951353 0.679208836337527 0.07741025975936346 0.8072014370301325
Ni 5.119631736837711 2.1805913824000944 2.197894246894358 0.8854107956520236 0.8231787862949952 0.4720722810239031
Ni 3.376394812603809 7.308022837019612 13.76113865913662 0.09809529891254075 1.1724217559947874 -1.270770565679031
Ni 0.5491212867341517 8.145811862814055 9.545483175873875 2.355435685683124 0.8976297063157185 0.22722278454053768
Ni 5.222932008544641 5.47464766483558 13.375523555293801 0.47216741184087074 -0.34550869946834045 -0.5360534118615542
Ni 5.072483914491551 0.8166626439866213 9.294756280976266 -1.6680386571078498 -0.11466014524975737 0.18729740910050968
Ni 1.7689539182408984 9.212036962699257 2.939711792407041 -0.8428796071580322 -0.8036857105673901 -0.7641598845586258
Ni 7.581859155179946 1.4601660345488816 6.411571287592401 1.39305608868453 -1.0643750022964895 -1.3033922083687939
Ni 0.4044733130032411 -0.14479697777344047 11.703113219275735 1.7491801017748714 0.17322036218215328 0.4001934926057301
P 8.048885652926456 3.2064290285353954 10.635747594620552 -0.11485606331064736 0.04829997265696843 -0.6473878351721883
Ni 4.808240881291624 3.3026929982339728 8.73915699750423 0.8813399680167595 -0.7893636375177631 1.1002861143708018
P 5.656165861090255 8.278728987418884 10.932488225540622 0.4353263317531212 1.792625831663332 -0.6941338330784755
Ni 2.863351819500717 8.418388085059169 5.106293115697173 0.1810318878067721 0.059541607009058736 0.17489286478856977
P 3.5335388907903362 1.981284678845873 10.66365458014152 0.007713309483857683 0.30351127199063216 0.26627167091288334
P 1.514046632150092 4.7500465246813715 7.9479758843462855 0.30578515562647335 -0.0985239018095271 -0.06797174005428293
P 6.491443892834659 1.80384109930976 4.346545417066736 -0.5188342197697904 1.12424391073798 -0.17356334734386883
Ni 2.0978573476744393 6.751143222515467 3.223717176581014 2.40077246194671 1.9682748578916358 1.7602088487852072
Ni 0.04016026857394415 2.831113599187941 0.3149706316789635 0.29647159153503133 -1.789776020919363 0.6193059893343077
Ni 2.943731222443185 4.276480405068275 3.171726722852635 1.6343528348196303 -0.4110096093846276 0.04123843782449672
Ni 2.7642457356575894 6.939366600683984 7.122277340891684 -1.175702483628588 -0.817510018044992 -0.7984116066526443
Ni 4.35661146793986 5.157581778780796 6.721691929664822 1.1577998923165544 -0.7249503042386999 -1.0114411304119355
Ni 6.304416226118542 6.822186878348814 4.467998428177173 0.07321113407635133 -0.4991830211977661 0.29298517564832766
Ni 0.45322614802973743 4.760890707776596 12.590964844026072 1.0071594723174462 -0.3188319615081025 -0.6657848496221372
Ni 6.572825853841062 4.806631269721086 9.528198706940417 1.4900949213080983 -0.5011404020344531 -0.7064291055060608
Ni 6.893101765256518 2.0977561720900053 8.383938718337493 0.1141117289454551 0.40655388760611916 2.028960348697151
Ni 0.42417127951446537 6.633457622258129 7.621242211309831 0.23409020108433234 0.040787980550639424 0.31457575733490983
Ni 6.586834073394945 6.493936491323892 2.1012384517506093 1.3541774093414614 -0.32715436533086883 -0.8673464819511449
Ni 1.0020613837933534 7.412647589104584 13.856448819007397 -0.9892036591699738 0.4498306960168834 -0.9561279596619275
Ni 6.396191678980419 3.8966120744212986 5.636906628704257 0.42034811317673415 -0.3456894480205788 -0.5514859443665405
Ni 2.0311918353129554 5.641559785810173 1.448646734372071 -0.6579908074990152 -2.2398872242911425 -2.3473138279069383
Ni 1.883962964400942 5.290590881189656 5.573124620499137 0.45212746247086005 -0.913854395704697 1.5950108426868983
Ni 0.017551204565146746 7.236261754314825 2.63465176911239 -1.5100158286017413 -0.16454957388103275 -0.014858405169071184
Ni 5.874557958980856 2.0902875744027085 11.067416904719604 0.5964753645930372 1.164779408958181 -0.050350170317777804
Ni 5.733022514138345 -0.18596256374544065 5.130376583904582 -1.0690140437303977 0.7528436882148584 -0.5705740713462432
Ni 4.292567322993253 6.1813499243254055 1.931066637401167 0.48173345826275105 0.27870346891833286 2.196300855059759
Ni 9.209461584186396 3.0480524477748556 5.669968970141149 0.7993379751216556 1.05419060556432 -2.411781668573021
Ni 4.123162603529427 6.805115797920708 11.329828659841278 -1.2411236893468756 -0.02688988241230853 -0.3626705559596076
Ni 2.559963032905305 1.365254138569556 6.121952498038431 1.0966765426426726 0.7205290352425526 0.28358547960098257
Ni 7.804702978785635 7.267037527543512 9.265745561806929 -0.8557667475333456 -2.561994514116407 0.7395500564297457
Ni 5.443292431441499 4.405396495197768 3.4639034151367 1.6003322548998118 1.5272152231991634 -1.869449108570974
Ni 7.602388601039609 8.333336209671938 12.240619548916884 -0.9351379876738217 -0.07455453547812321 -2.1710580213325708
P 2.201838255131196 2.7883807114352566 4.588092007344036 -1.7262108945732078 0.6536430720532808 -0.1455997722514073
Ni 6.374632081715612 6.338402024707903 11.31903230520415 0.710906424551124 -0.146954743617405 -0.29292372628277297
P 3.9243341845561655 9.201183581823628 7.139185620606655 0.20440450109444153 0.2306282106776609 0.16273514638011327
Ni 9.209277628578334 6.669457734755762 11.357547090863985 0.5048350772772209 1.383843054726694 0.5986775144506785
P 4.087668368953962 4.112723122771937 1.35150529642304 0.4559069841179504 -0.8665707801273851 -0.7664409672833188
P 7.933186773236183 5.678194545155619 3.688434111668313 0.6081427736286364 -0.8170119953626509 -0.368759699576481
P 4.146120263415501 7.961644705803295 3.3016748039433526 -0.4272967765804254 1.016804708716694 -0.0637672150546321
Ni 3.223408131159471 3.381398405143081 7.306113377807934 -2.6620477080862672 -0.31076049735387773 -0.6808319737632468
Ni 0.6416739520400888 7.278387588560906 5.023489177840453 -0.5444274948578623 0.8652520613159614 0.23027416977235182
Ni 1.5250931664141842 2.3167553234872087 11.900046895485964 0.7705858426896277 -0.1680663287850396 0.5337247637283776
Ni 7.836315750031003 1.4205419965724366 2.2441765581045883 -0.3839389784200807 0.06222686715070573 -2.3514756725941113
Ni 8.177369447377004 1.5498351956984548 12.155460059498939 -1.2858994509006694 0.9794365524808809 0.22246778635405556
Ni 4.912644886646923 2.9496086041207494 13.077625843599026 -0.252166598970069 -0.7527421296399874 0.07629517231831377
Ni 4.32750049296413 3.2128582770371445 4.834282556946849 -1.0316718556365134 -0.751021547404455 1.8369369948758818
Ni 2.601031122405032 8.901749840801537 10.76241022855129 0.19035856452433667 0.6327088930037748 0.4457287580333678
Ni 1.1391175095795665 9.076811195213255 7.247930978312206 1.8274231418481754 -1.6820475697924322 -1.6076190183692118
Ni 7.203931556198017 4.378520580859984 12.306758028461271 -0.4944997567894839 -3.2254975096829033 -1.857328156937724
Ni 9.260325309815396 5.07998930330046 9.827469647249375 -1.6777360869012716 -1.1556283385865322 -1.1476892862451138
Ni 8.07187090615374 8.408003790984097 0.928130544691481 -0.05873325217515046 1.0058623507725775 1.5512624939563542
Ni 7.550899426343197 7.990755680779026 6.195965197385891 1.5460842921895244 0.167907177499356 0.6235907327525905
Ni 7.916327241757347 9.380908210899705 4.103868419577897 -0.4826294877144592 -1.6799765461960166 0.6061586533190723
Ni 8.988494107782934 4.687989100301828 1.4154225120000854 -0.943290441577627 1.6326412514451623 1.1522355108548994
Ni 7.408232654511108 0.4389475137320045 10.110276560636825 -0.061719331386667894 -0.8129938753421934 0.036050465865654045
Ni 2.5797106674307058 2.4453310957417873 0.8541619946899559 0.3081122610977532 0.3285059942627568 0.1073435569836861
Ni 5.029548675569999 7.3587485959425685 6.653978790115429 0.4693283997301788 -0.35675084804106305 -0.45320038382006467
Ni 6.287437123494467 8.418075360525464 8.207277869913682 -0.284534216667497 1.5181412859223533 -0.3411367956528899
Ni 3.9768994995597358 6.313466842035168 4.69780589132603 0.05549134819908507 -1.0986982010583917 -0.28966742412900437
Ni 3.6329301058259595 7.969186885733816 8.870235485806484 0.927866650823389 1.0405691581261434 1.2627849763703929
Ni 0.8860387422328913 4.859674869305616 3.5866625110643735 -3.2895475460852768 -0.29172507798898145 0.19531693697087654
Ni 2.9580337709699656 4.428326561742632 12.721599079534858 -0.1925792263247393 0.13226885947045608 -0.018400099773742504
Ni 2.15598731982187 6.22833218662431 9.631195451894046 0.08985285639809042 -0.09888874134811355 0.41104509060825334
Ni 5.764469725336457 8.005895227322485 0.06074398133798455 -0.44860350847800157 -0.9135705459156912 1.1503897158954122
P 8.695673570870655 0.25866273982938176 8.228359182597528 -3.5593094895396056 1.3203424630698875 0.4954790899836176
Ni 0.3415761312728967 1.6113683465950233 9.906840973459664 -0.5658154736153352 0.11588424746484559 0.1736978160392041
P 0.6029227834238956 0.8245911306940715 1.2088256476983876 0.17310414831926316 -0.4452973269229041 -0.334012783013599
Ni 3.9610057350232233 0.3259123112464609 1.5112440684612751 -0.1515539329523132 -1.2460401528118863 -0.2510880211939095
P 6.287437123494467 0.9744404492429207 0.4588846225337088 -0.16742021056060846 0.3601421331107991 0.3721777241190945
P 2.151443616302751 6.403172794306354 12.18242335275055 -1.3385520440993786 -0.12767429812123818 -0.3009386261674495
P 6.861553378473974 6.204537528721556 7.500300596789804 -0.6805995460374665 -0.5691615072694327 0.6867997613109076
Ni 8.32990543758159 5.62734001730702 6.0305596728413216 -0.02012145334022341 0.14887484345825328 -2.5873831293928404
