# total energy = -340862.03668139194 ev
CRYSTAL
PRIMVEC
9.29486437243739 0.00000000000000 0.00000000000000

0.00000000000000 9.29486437243739 0.00000000000000

0.00000000000000 0.00000000000000 13.60397354834681

PRIMCOORD
 96 1
Ni 6.2399398483528925 4.608207828639774 7.616605919559816 -0.5331586068122625 -1.0354922578238683 -0.09985727590896995
Ni 6.842535196568926 2.350754838302184 11.25479892013231 -0.03660556703817566 0.6473652094643689 -0.3482027013607358
Ni 1.4472382579827723 7.866225077579135 5.289224876543202 0.27686924392307155 1.8320205314108706 -0.9526695687996818
Ni 1.4018886150041658 3.3706059403515063 4.528953309110018 0.28380890846569834 -0.6727967621635961 0.9652664316280861
Ni 7.990274336688067 6.955607220925299 8.739015624942127 1.4299881858241887 0.8224827886692352 -0.7223601749140205
Ni 0.22060709804204484 8.248569321056276 13.092872280141304 -0.6137158968410398 -0.3219427392229423 -0.917752959428155
Ni 8.263636296106148 4.4505669299070085 9.299295173891014 0.9258586192544248 -0.6841996046838991 -0.085911098141523
Ni 2.7767663543174463 7.651355699276934 10.141286258869517 -0.030350844377715465 1.3747107534081227 -0.326788754461334
Ni 2.8980457438613807 5.656798651142028 8.664887223080477 -0.19889102747538004 -3.965604209947067 2.770372140925984
Ni 9.082411598492385 1.406870662275437 7.671525554834132 1.8306017966864732 1.4239250103492445 0.04604614362578521
Ni 8.794103497260492 4.0618557043760966 11.866950318347586 -0.2085756017529956 -0.4063109183573777 -0.24190018404705435
Ni 2.1681014597056283 7.960298399281631 1.2123533188709514 -0.0681774283071858 -1.0869652288921796 -0.7846520909747067
Ni 9.138292322736572 1.8652561906896512 13.228667459281404 -0.7644460483404769 0.8684726251357882 -0.7499275430093277
Ni 8.007943873745319 0.4489614654882029 11.773381707777238 -0.5292790692521981 -0.7157627242021608 0.17466300816595082
Ni 5.1627580232267 2.1863472783502287 7.543743478217472 -0.11581225657632957 0.08300112358357964 -0.027535229305791286
Ni 5.062503616756676 6.533164932805874 4.2934549089536 -1.8901182068845512 -2.310918834217672 -0.12165663117224855
Ni 6.681696864512808 7.994419846171253 0.2592235413129852 0.653191586338159 -0.3419281812059337 -0.4974328712758788
Ni 8.623505557676696 7.428046584179368 1.7082919580788045 0.5589434290858502 2.1182354782149 1.2173839225277745
Ni 4.2351491546103945 8.18232482310413 5.623909703260188 -1.318736037814716 -3.5848521138954004 0.9873660917406027
Ni 4.254463882650883 3.3022979825220786 5.013921219970331 -0.6245862638966405 -0.6400321661380655 0.06846976273662402
Ni 2.3253984484588472 0.27837932717373737 12.74020282046689 -0.5737180162918636 -0.33657951529951063 0.8842113760272836
Ni 1.7503995523853597 2.320230503901335 8.921131760381444 0.5295158678533526 0.8140850515238431 -0.39632938166463355
Ni 4.209792764767058 0.25684126758980075 11.46318420109041 0.4203671393401276 -0.9662907591275423 0.3034631923615161
Ni 5.18252819961848 4.0674883921492135 11.574505073010389 1.3445956791902973 0.9105865235867027 -1.6886802446176015
P 0.5726779684547629 0.3538796510078476 0.9393594360796294 0.6176178029986072 0.8457060208632339 1.8882742116972768
P 2.65825683433851 7.190107352654601 7.657636239092601 -0.3677891081330956 5.343340637555391 -3.2158725849986287
P 4.502794772476549 4.473376526928837 9.327917779053612 1.7228502056310908 -0.8811121682766696 0.9154394808036299
P 6.1123678356696844 0.7302184826529583 12.845688376571747 0.7964061461868414 0.4281642667870433 -1.5019662188243874
P 7.498687552951127 2.4211913200590764 8.859614630418417 -1.5556004592100758 -0.5230721691105379 -0.2616768524533493
P 8.070647028394568 2.6227132732091407 3.9625112651222247 1.7074868358011435 0.7984303757057216 -0.7751580354413424
P 0.9566367298629114 4.055934875809307 10.231194551873772 0.9214594617454647 0.8329232672762686 -0.8041567366665376
P 3.400368095878766 7.019146913362633 13.112829283305757 -0.0798512651006883 0.2126140334884274 0.22563667100034043
Ni 6.402692922457298 8.12858191765172 4.4582807377995985 1.1563742156136216 2.911155208515038 -0.4810785982875714
Ni 6.575716821626545 4.088076516600457 4.957600848644184 0.000415233160547672 0.14928519152279449 0.8183109166797325
Ni 2.0113063936252615 5.379049515768649 1.1047987259702245 -0.13108178114089036 0.3747195167043417 -0.5277469488783878
Ni 4.935944744283484 9.097348445441888 7.703848445479368 0.40648498204139677 0.17735855272024292 1.3130256176935
Ni 0.8084580029998365 6.375152239500625 9.586910807731657 -0.4282575978317979 -0.7389630735780242 0.019932734368185025
Ni 7.017799158037383 7.321174234319148 6.561944621175346 -2.189672036889332 1.594448799535841 -1.0858043758148592
Ni 0.7435240809156913 6.474718826011555 6.894589225175831 -0.7255172324857635 -0.8281441007200705 1.716336315771973
Ni 2.0443775208476187 2.301817377699117 0.3879992389246068 0.1486015351922086 1.781143027834713 -0.1738240572044232
Ni 8.684600700799953 0.04155547936641797 3.6847314566966163 1.0935827342086972 -1.8561184529003387 0.2831170246049963
Ni 2.745879520208426 3.143978558694532 2.7808430818047216 1.1865980474951694 -0.6023235958436981 -1.8921303522185737
Ni 5.607619524066848 1.0110674552744134 9.762157108957924 1.074795426298865 -0.6156118283121721 -1.2291814293833345
Ni 6.548334151363178 5.808472246986443 9.837182465225686 -3.356379258997846 -1.1724585227699937 1.4290762155328807
Ni 4.807303822204387 0.13051476672441054 0.730141335279168 -1.6268899507836818 -0.4676021610676915 0.8802978999054905
Ni 7.600968239841183 7.353836387511774 11.408632642442852 -0.10605774829272703 -0.6869082618643139 0.4696482449634428
Ni 6.601472890635301 3.370819722230684 13.43782793192313 0.772547851512005 -0.9177904975343096 0.7791627857253614
Ni 2.705353911807786 5.674347354963222 5.5401230078918635 -0.12303782779049134 0.24315102573501995 -0.47661182076546954
Ni 3.18471794897435 8.274910966516693 3.535740358692666 -0.14267437107449624 -1.158028720497909 -0.19249720813389426
Ni 3.8842680268296217 2.5081168911055873 10.36028255692628 -0.3360475540554406 -0.09664931049463354 -0.6767806865120087
Ni 2.6277139102090366 0.8389321451334004 1.9262546672240646 -1.3329359834641819 -1.0133566022670935 -0.2710022436193333
Ni 7.097214478719739 3.919978895516608 2.6440682239661295 -0.8198363521853236 -0.8942268512817567 -0.9477664750711096
Ni 3.9865580085839896 1.2893185133206442 3.587068458396798 1.9638628448668696 -0.14791042266245494 2.275664381890752
Ni 9.278180030633276 4.009683630992429 7.064747517677666 0.696550155829452 -0.8990944637867032 -0.5655529639825679
Ni 2.7309240835303 0.6048939681604095 7.063006589592015 -0.409296740458579 0.6115147754246629 0.22320929250577043
Ni 5.147793291684262 6.78136569453117 7.6939178124483485 -2.101714854852058 -1.5185696317090234 0.2658764923569937
P 3.3673899172995294 0.35291205563296074 9.327768131738189 0.4788286259111302 0.8693288024884965 -0.22864743280220623
P 4.518865592872124 0.7735399862386702 5.825643579316567 1.6784598524411738 5.022224765109118 -0.9623649417105749
P 8.503332256985898 8.699314471005966 6.684189747121305 2.894608874120583 1.2496975470588156 -1.0946338011810308
P 0.5702891883265601 4.059290321825965 0.09497027610861045 0.5297220703268877 -0.828389126851341 1.1959375797285403
P 0.029585553105329787 8.304803250144321 10.789923717455407 2.445218608075227 -0.06599404750262183 -1.0793807316767023
P 2.6351498016586947 5.143090090342353 3.1633183828686633 0.15475058551273993 1.5368746006657985 1.8073708511829905
P 7.054774128270812 5.320333857909281 12.048195525000862 -0.9123050489397062 -0.009675061195918822 -0.24854828549119132
P 2.0280557391156178 0.6170693109227945 4.185207848661624 -1.5030316839744242 0.38315710594873365 0.018414240841129578
Ni 5.07664110537534 5.005656226624035 2.5543904435968137 -0.8877019056790453 -0.006724206097711 0.6621359400156402
Ni 5.261515956542481 7.051706823047827 11.658292697865143 -0.1386508517373999 1.1885592849865982 0.2849851881619866
Ni 4.316479217341037 2.0747159579622263 12.999875303726148 0.6701287284131298 -0.6776389207472459 -0.3061433102968405
Ni 8.801465029795654 6.019205410669772 0.002601632520949358 -0.6107984660839287 -1.6817570351352067 -1.0904701567216446
Ni 6.890282914540047 1.138165429877706 4.685902669937964 -2.592472628100606 -0.7423160492106571 -0.40121807721550257
Ni 9.181810877445699 1.9046664153728425 10.190001572215525 -3.5430724588554527 2.144867478980132 0.21763616929336713
Ni 1.2793544187781016 6.459754094469117 11.867643715225267 -0.3596428248768774 0.08957286326382638 0.8563647861286607
Ni 1.5351955589679231 0.6592354628745156 10.433445222385904 1.7132337655872494 -4.92634678556287 0.530080739217887
Ni 0.9652716588088276 8.742284628720682 8.204719869177639 -0.14072650331950604 -1.5680741661970543 0.47470354799916303
Ni 7.247800575439641 2.2728452856383843 6.5590474119692725 0.06931822677984836 1.2186152238317143 0.8594292839865973
Ni 7.584767291345239 -0.00560108523445546 8.465044851911605 -2.021786713766847 0.007242283384710107 1.657215855460733
Ni 5.809587630703892 1.9769339853992138 2.1418639167255074 -1.339130285200352 2.2784465726215792 -0.5883036274155223
Ni 0.11785423204493528 1.5857317362326666 5.358931711451598 0.2222459001512366 -0.7323558526741516 -0.1494803382527361
Ni 3.4247392301050223 5.766375806517062 11.338503820694688 -0.2604350096264483 -1.3182773530107423 -1.1137080442036627
Ni 0.052901720232166036 2.727401329956024 1.9416274433098029 0.22389037773319506 0.4055051346266307 0.5954572077411681
Ni 3.219452856908568 3.5186545391142126 7.604635063812296 1.3392097322880356 1.0900258700953744 -0.7434434779468809
Ni 7.772365537755818 0.8981199820998218 1.7724748551265341 0.34396860867473017 -1.1159089085097234 -1.04536503685289
Ni 3.4073020646555725 4.069830697955856 12.883030493945503 -2.661831478310403 1.2862491209306042 1.1516899227640747
Ni 7.511542350294725 6.197360074939284 4.1762838494356025 -0.4326297587575646 -0.6190427083705919 0.142953849988128
Ni 1.7831453593567945 2.496702797730361 11.58209618869406 0.13881411678814157 1.9263378513382179 1.4098531056372106
Ni 4.56439183827266 7.317121673479084 2.017414978451156 0.9294383661858832 0.03400695307306401 -1.3279323596020034
Ni 5.474191746867033 5.437449148241408 13.65158750342647 -0.7448750681870849 1.8441011167244887 -0.27713329621773564
Ni 0.4887481321760333 5.392118094991425 4.6735228401607145 -0.10390419228483395 -0.9261758933845275 1.9061660043760336
Ni 8.846349929558656 5.184219864923278 2.526162870167478 2.2112104251817404 0.28129359824301237 -1.990201225651082
P 0.18203527011980247 7.063641428824529 3.6556599095877442 -0.23014278640081007 2.876861320329174 -0.7367866347519956
P 1.6153358790666204 2.530824244619983 6.706622902138495 -0.4464417249399924 -0.11355457089040442 -0.7768724470292879
P 5.8246824903466985 9.265381002475552 2.6978994306295028 -0.06974323013240892 -1.3304057608431603 0.02776122927366832
P 4.689602955420602 5.181013136735612 5.953329918830814 1.7969612258138923 -0.48881376214830013 0.9204767861172213
P 6.851597689273198 6.059247686126184 1.6013099288197015 0.30532030017491285 0.4393719625774046 0.5423592994749239
P 5.9199362598168275 8.001604776284486 9.350391831473775 0.8751490087146993 -0.2074101206899847 1.3656725544652544
P 7.984139726242098 5.626711175363847 6.830799500888502 0.9802621337059699 -1.8594742567464493 -0.16612745989111388
P 4.625421917345735 3.6755890281592607 1.0051010818724935 -0.18198036776297047 -2.0652283298902496 -0.1796902861772131
