# total energy = -381166.0819100704 ev
CRYSTAL
PRIMVEC
9.29922543341008 0.00000000000000 0.00000000000000

0.00000000000000 9.29922543341008 0.00000000000000

0.00000000000000 0.00000000000000 13.61035640191630

PRIMCOORD
 96 1
Ni 5.554799217673043 2.520341124934329 0.10056833143497616 -0.0424064899906689 0.9011516034260479 -1.3194569751411405
Ni 5.856717164236459 7.28403665116551 2.280116098600408 1.4673913090629955 -1.773968364463145 -1.2080207361453195
Ni 5.498120439704521 5.400887740370826 3.6034367698955365 -2.276031021201551 -0.3904994052464178 -1.6586345901851307
Ni 7.283199720891981 6.28227760987608 6.575503570587621 1.9561333374330958 1.0953902197310812 -0.5283948668750319
Ni 7.9020352643655265 -0.039566343642406784 12.059986696446229 0.8750186537844219 0.97163248305543 -0.15961074181851867
Ni 1.3865051872565592 1.4483822321462307 11.912477735736518 0.8720665131346337 0.27342447990758073 0.6568541227914106
Ni 3.5724368725639746 3.3488741980535157 11.083416466622483 0.3811246488997372 0.10302101834893225 0.6961341513379559
Ni 1.8068859644255544 8.19205020259429 4.82703533925448 1.655788378985587 0.3992144165219125 -1.1485092110432478
Ni 2.2899807167577513 7.128144438882605 2.190355326764286 0.8107968676908746 2.303267745430317 0.9143503615045092
Ni 6.994458776524037 7.277378405878315 12.56705392157991 0.4126630858276506 -0.840429860065959 -0.8189130690401059
Ni 5.050474334068961 6.854254357257193 13.691882629669443 -0.06013964560437384 -0.5391546764946973 -0.7096715237027584
Ni 2.3830287647237953 0.45682909058123866 2.602722031602966 -0.9141670418491095 -0.26836274911395713 -0.04588622100915324
Ni 2.3517647693948085 7.196763422086827 11.070513791572223 -0.5452692740328674 -0.6306278421050301 -0.5048258213058402
Ni 3.2283748371156786 6.0984319264572635 7.19910217724008 0.062378305126905474 0.2435392623123741 -1.6730551364858346
Ni 2.5220986785087423 3.973549654991251 0.8188470000868633 -0.46600987687990714 -0.5733230948462901 0.628590242849711
Ni 8.347700635020397 6.251794749469055 8.677908684674188 1.0203029516779396 0.5616651988923876 0.3787425218208058
Ni 8.81862270148536 5.546011449800975 12.644197504581301 0.8797556542487752 1.6298374634477801 -0.8067337533650945
Ni 3.8847885498707346 3.42258915670101 2.8968825644532816 0.6799724539764289 2.0029132739011115 0.906646050881716
Ni 0.10578333696159592 1.1862091743502419 10.043109346856772 -0.308759664873765 -0.9361088362275233 0.9000182611525531
Ni 1.9923590122651245 5.084537396201643 2.8947595513260937 0.2045996478243831 -0.7019240185468556 -0.37685147544568
Ni 8.844297862432217 3.9136905419833132 3.270772794850197 0.8967190215759913 -0.47326553000105587 -1.0863995861966969
Ni 3.4375051140203716 5.234161930658334 9.590414691826775 -0.39377833310800575 0.4457485555277097 -0.8110583488823774
Ni 6.5229508588676035 4.979623536801993 13.030337604415122 -0.41035500651976425 -0.6067775178499937 -1.3021755623528735
Ni 4.082843449489043 8.215037887440587 3.7951793554063737 -0.2079449101475322 0.01685718076665484 -0.011589761720128428
P 0.3545404024728947 5.978546314386683 6.5753538530609115 -0.08614712541172904 -0.6818385606508902 2.9260647786370186
Ni 7.274114377811547 4.777588568771786 4.682670446605664 1.474470327396964 -0.5455796061844346 0.19872699109369002
P 6.001608393035072 9.200904552758205 3.1033244353348897 0.32866128889369844 1.2062248205871613 -0.04207096102812109
Ni 8.014834866786885 7.7019345351897 1.083087275658472 0.3579322699436739 -0.9090346057185507 0.02861432130258298
P 7.163202518118262 8.552850843513191 6.620988871108939 0.25987810868171374 0.09680306246367844 -0.35270701698899254
P 0.4496073122431985 5.417049793875222 10.545984481242595 0.031754409593461444 0.4291117183019771 0.3090558559579452
P 5.409396531485051 6.705522548425601 9.610858108641539 -0.47542602798748446 1.0469573210406742 0.20337143184423684
Ni 5.017294698336117 8.492340784736951 11.011336311775949 0.3483718799487484 -1.33995458087386 -0.20138165510771766
Ni 3.8894009656004127 8.260436705166974 6.137154830368457 0.138011161270872 0.3132968906224862 -0.09805853213733434
Ni 7.888105024923878 0.5666222534755707 1.8487901332986891 -1.3517425746477236 1.1983518455969877 0.4119794294970647
Ni 6.253245428609842 3.4750739840766194 11.209121533861675 -1.9953123216254023 0.04123201006659351 0.10791819854023349
Ni 1.432675840679646 6.121122036095196 8.611530814757977 -0.8502555879071292 0.43503014066894113 1.3022246704232543
Ni 0.5830437553647609 0.4172264799603122 6.545506129739244 -2.7071464001971184 2.029031825365035 -1.599987212855567
Ni 1.075157826278036 8.336355580201431 13.047894541708734 -0.18880150444986193 -0.29118900297985334 0.05103948307531855
Ni 0.5546439214163001 6.200444427575342 1.1400431705397855 0.05060496664106124 -0.7529488463341549 -1.2641749147393841
Ni 1.5446478120527352 5.066217922436592 5.093961231081595 0.033315326322678106 -0.2426918267104143 -0.029415477047639662
Ni 0.36872544068670665 1.3309237178688875 0.4059753473164869 0.003355546735794221 -0.006533173132827458 -0.7551160291888028
Ni 2.9901565835931785 0.38566118973285485 10.473332424042484 -0.342306647591275 0.48655993311711687 -0.31947550862937235
Ni 0.3492621622144971 2.393936755955473 8.22849479631643 -0.005144777425733075 -0.9811766751004393 -1.7647807844266057
Ni 1.7741619907305208 2.793375677835688 3.585824967172881 -0.7601955005942391 -0.3036614244152512 0.5892863030437658
Ni 6.313169636194609 7.444810956710676 4.518407071742404 0.8750592772143703 0.5237666240744011 1.9373354880003024
Ni 4.918815902817388 1.998970761426014 7.199470426560434 0.12191502703995778 -0.39991041414767253 -0.5875497799686332
Ni 6.8986767563311275 1.091329179007693 10.232075183704541 -0.27310823421874253 2.522661520844739 -0.136373625667449
Ni 9.082516115954718 7.301407603953896 5.148131078074578 -1.6556644518132129 0.7363282070583382 -1.4133274373390563
Ni 3.2588669967479653 1.063794173008547 4.756247776719289 0.30680974023624574 0.2123744066737955 -0.5485803406839713
Ni 7.697842876074663 0.7867209665761407 4.458520990981208 0.8131178025145673 -0.8231530752633823 -0.8766466763061483
Ni 8.943539194422385 3.8463362534146492 0.35446414882575084 1.7692892138199205 -3.4591359679417972 0.15277674961582077
Ni 5.030499598207372 0.36544374409194186 8.784219287708108 -0.10916235535997973 -0.09995394938783429 0.4152660706681364
Ni 4.198311929560437 8.46566130746186 1.4875301106518724 -1.6673524296741027 1.457215396971258 -1.4847773657499266
Ni 5.027635436826847 1.4665808159828835 11.666211932672761 -0.5667858079484044 -0.7306504399472706 -0.09635260518982115
Ni 8.55644034446411 4.180308629454275 7.377465967367274 0.23573390733534244 1.0210012632965448 -0.38836667517413115
Ni 2.7915902265854906 6.336120124139861 13.577868548428938 -0.7491346147943873 0.35584530550765814 -0.5929192718106627
P 5.821872967181815 2.8515423318460424 4.3387637082192345 -0.13984487204550108 0.5019461857652001 0.4600364329052916
Ni 1.3612112945454222 3.8670921241982 12.318814822915675 0.05824448546419002 0.4574822990248702 -0.42681598028926493
P 9.71006503349824 1.5698580117365193 2.4894425891581173 -0.4104069428036222 -0.125056657992733 1.2551865951978447
Ni 4.203891464717305 4.135337576089914 7.516795329537016 0.480563863434682 -0.9484467889675858 0.9661879150010908
P 8.903087564535086 6.125529868869122 2.9984161554703963 -0.3877760927779838 0.42581993492458275 1.0795087726141346
P 5.1556485717759335 2.757276085370749 9.314519697234992 1.0305372278114382 -0.06950360331777707 0.6466126475690607
P 1.729218835041945 0.27130675684778277 8.639377344803382 -1.2815365459462833 0.8948326031865557 1.7735230493956102
Ni 9.02883168852038 8.622985600435028 8.611231379704558 -0.3229161588798051 -0.11600406087216149 -1.0509103921511513
Ni 5.059503881797826 5.52105232919925 11.239268692236763 -0.5923867963459605 0.17848135347077648 1.668406324859914
Ni 3.4472600013196297 8.66347442722337 12.562195076380805 -0.20621841437472868 0.2645004379450735 1.963602135006315
Ni 7.570610876047538 5.077497882678728 1.3134169963916864 -0.6026912635957621 2.356997630853605 3.2352160225222475
Ni 3.088514489183509 2.3267405542162534 8.868658112927104 0.04469888556927141 0.38209112657806454 0.7983347306681219
Ni 7.723164666461584 3.453518379920584 9.559206491849356 1.0141541584677243 -0.30629860492778216 -1.321685350251027
Ni 5.215405393305994 4.717217998374468 1.2939193107860096 -1.5424220128465889 0.6416745868374949 -0.1307889324908199
Ni 8.602722588590334 2.6912980821407793 5.42593148392243 1.318756092419374 0.16255542626913938 0.40943712269118515
Ni 2.7994666703819364 1.106226537876532 7.027298990534838 0.7552628391793121 -1.0507152454212096 -0.541199474838868
Ni 5.2939373506389185 7.100339755350878 7.548099311534626 0.3445759032414259 1.8613388207590138 -0.155452496675771
Ni 9.019811440016776 7.758882990690805 10.842907813918085 1.2032608528628308 -1.2609939459082413 -0.1932222592253769
Ni 5.657611452163607 0.544409194093551 5.422897146719619 -0.7766875847119914 0.10045634294554957 0.3151689108342185
Ni 6.583572508346979 3.3947286778177133 6.5636758859775854 -0.5184313279044168 0.076849502159887 -0.7530380636138514
Ni 4.357375177657496 1.6714706461683562 1.846013384635621 0.19750571709207923 -2.4497720317738647 -0.6961606337005172
Ni 3.2330523474221873 8.0172433661296 8.711212930025537 2.0348358336413215 -0.9877895524312664 1.843347783498232
Ni 7.247741774970081 1.1812247896101058 7.7418151926459435 0.4913046468909539 -0.26302359628923083 -0.4326467280384291
Ni 6.343057346184901 5.221040723814431 8.350280240107924 -0.4878303151891082 -2.3121969295991467 1.0053319321904042
Ni 8.185801123218598 2.497492928466952 11.799185274376304 2.1530101626919245 0.5046162763981954 0.16895155960347033
Ni 6.897123785712465 8.325893951782303 9.705259193883123 1.228073798141453 -2.429182123437655 -1.0291979401747242
Ni 1.7713164278005178 8.0321500242237 7.125865198771025 -1.362630425204821 -2.6461996853104166 -0.6666567107041294
Ni 6.205391615414432 -0.2670951377268732 0.14113713156056698 -1.3288389305766726 0.8105567266556105 0.5760718612360207
Ni 1.7093463906582318 4.128902512208993 7.339466543181421 0.6337892705521472 -0.748126485244847 -0.43056207759525844
Ni 6.441424551000492 3.0243684333300442 2.1506950609467386 1.0078025052180837 -0.5088251722732204 1.8556973062025202
Ni 7.463065335898898 5.875259819407785 10.805057177336417 -0.809306142077961 -1.0809725016438545 -1.0470308545910871
Ni 3.526210423789319 3.546631522463458 5.220428834792228 0.4622298410121846 -0.030054910403851463 0.6462853461366289
P 7.393200256509643 1.4928139304454269 13.40850082881967 0.11492188355157627 0.5433597157149803 1.632634566576943
Ni 0.2740918748135863 8.582952435684497 3.0631880491839563 -0.17337719947499172 -0.4619665600484689 -0.3860195150981932
P 3.97765991255681 4.558257041755285 13.041946757231512 0.5529468451827833 -0.04295079252991312 -0.7989314837118563
Ni 1.4006865057802667 3.4643147804491248 9.945604180222917 -0.8748972977152092 1.1285625927179919 0.7313837185688694
P 2.774395959077074 0.7487485101435459 0.4623779382947444 -0.2957455120022842 0.10639970501317805 -0.393762906489038
P 3.413968774883648 6.3156804270152005 4.701412105197586 0.2718003140405964 -0.41007192806170667 0.22210397525673364
P 1.564259878129128 2.2934307293297485 5.787558825967074 -0.7514545211768155 1.1673034609316155 -0.4522619311661953
Ni 5.363160783485133 5.390788781736894 5.8471454716748505 -2.447319456468314 -0.07527547280454777 0.6601685318766243
