# total energy = -340854.1696279991 ev
CRYSTAL
PRIMVEC
9.40977157378593 0.00000000000000 0.00000000000000

0.00000000000000 9.40977157378593 0.00000000000000

0.00000000000000 0.00000000000000 13.77215185251828

PRIMCOORD
 96 1
Ni 2.5459171702063492 2.6876000987577555 5.459267095548204 -0.12040501815333457 -2.2074946668930497 -0.29067143991348654
Ni 6.046098081546736 6.187404619240597 4.189240595225306 -0.9949909552757122 -1.6274723056497133 0.261732131171317
Ni 7.233103109443773 5.792899951676162 8.545950656652431 0.19257742655252638 0.9350027476475381 -0.717892368950654
Ni 0.5864235428952392 1.765753020229788 6.46789861410034 -0.2648627063804987 0.9441715586309998 0.19440728067241358
Ni 6.2743885464192655 3.6782514260449632 4.1293182297269855 -1.396922770728788 0.07020731425302103 -0.42634701107264644
Ni 5.175769501645251 2.9743064247212803 1.1068996436400054 -0.1608142752083166 -0.3362676404860467 0.02614966181217432
Ni 5.5014416911361295 8.293640809205662 5.245151510370823 -0.7487072974489815 0.7362577588317191 0.11248344931341274
Ni 8.480838802205708 0.5327530295407427 7.689364106959917 -0.6246230306718469 3.99608540925506 0.20681825274225668
Ni 1.4868568045603237 2.745281997676539 2.469291519427322 -0.11207181569729086 -0.7729240039045011 0.11152031406919502
Ni 9.296411922105822 6.229833278657366 5.693131909020975 -1.0069139319655434 -0.07961086695510806 1.2974565596106493
Ni 2.478458518762833 0.32867296560265724 7.050308889477005 0.8114201030971703 0.6056467466796601 0.04280989607667466
Ni 6.658147255000789 2.2969722570260345 11.076583535111018 0.7816045623976345 1.2916345536122336 -1.4176080669922813
Ni 7.355185484088518 8.210063219287777 0.8464512848759691 -0.4969333059316409 2.4403517669012293 -0.36088286793156554
Ni 2.852261689162289 4.549511573318872 3.3227935460422544 0.40105892592981895 0.4332357677726797 0.4663526049313066
Ni 3.6895243322284386 8.476209194657903 11.991302711774226 0.8391605064352321 -0.37886747743444427 0.5878002054165425
Ni 3.5067112927187942 6.037403452737445 11.848443561792992 0.94371595915082 0.16535561472209587 1.7246062690902493
Ni 1.5405395506176902 8.164952775011 8.849653852765547 0.05786833307169388 -2.0904796482578707 -1.9641250973893205
Ni 5.091194475954873 0.4050125593299501 2.631968589035449 0.07911875781003792 -0.76513587531865 -0.9270878636758357
Ni 9.398630269243627 7.0594928264011045 1.5970602837409469 0.24067042540501135 -0.4046828958356514 0.4483525688094601
Ni 1.4466488512030704 1.0310286565303561 9.127217644799304 -0.23821270789313817 0.04562679670017949 0.8611233838595687
Ni 5.283821907075005 1.2150837858698995 4.804235968116791 0.4053387842520954 0.5196636576496211 1.0822927631171746
Ni 1.1552470492916707 2.4806227661937172 13.769603662217422 -1.4100680498614941 -1.5259265862947269 0.6528470585145466
Ni 2.5446280315192573 1.394349341547182 11.740580292769154 -0.2631907179947145 -0.24725142105663872 -0.09304128142840105
Ni 5.793012868933426 4.125704877494552 9.561261230971704 0.057248697209823986 -1.5117299830793707 -0.027353195201972245
P 2.4100871194897695 5.521286899100194 8.545193170051622 0.34423291807971035 2.976039567893249 1.0841591269019524
P 7.187719781795275 2.82881253873723 8.377517629855296 0.5142062340794757 -0.8341026322963506 2.2869867488821063
P 4.972668994913927 9.402535324390657 0.491672790371129 -0.5348683904145175 0.8929554407685009 -0.9073816434961599
P 8.6108253848589 0.10154648945708672 9.797329812915402 0.155750487532164 1.1326930699465974 0.9296278564888698
P 2.1250463230708814 0.43510689034496686 2.928717023078277 -0.29484125502046 0.07772701966883389 -0.6829227948540045
P 4.3420919814972185 2.4881788126589344 10.781997466544787 -0.3908704154325913 -0.6207632906061245 -2.1628963114573843
P 7.549262020010199 1.1973840057938423 4.325681340108253 0.7036227464055173 -0.46913376722086947 0.4115827082792783
P 5.593215191977059 5.863821399009093 13.192247375080445 0.39110515715121674 -0.8814296995170884 -0.5425454473438012
Ni 2.1643132992842715 6.435446194362805 5.890996818923848 1.3493434782879277 -0.8550149569689856 -0.07131468838458686
Ni 5.9563194522507965 7.998719752776217 8.085905990040814 2.387274684570592 -1.5856975357057723 1.7416210584806908
Ni 0.8815751387249319 3.119263953733329 9.908250316679649 2.6883179546367058 -1.3737723007542533 0.7858049736322272
Ni 4.952061595463333 1.125201649088135 12.226833995768779 0.8845646456016443 -1.193659582327641 1.876799635398774
Ni 8.427080777976832 3.1546729236568822 4.181569749548537 3.228734271452646 0.32618994453507044 0.42517895890647417
Ni 5.687199989106065 4.91069624021913 6.460654031069741 1.6941731494113728 1.3754160070052637 0.36271169361018823
Ni 6.740689770060424 5.054326991458331 11.50763763689737 0.11341598843001112 0.7738439446156092 -2.341005112080091
Ni 0.6969827114362429 0.31107481105813717 4.5907536605572306 -0.5761713629283625 0.45585710471662133 0.9575814042790023
Ni 4.890728705226364 3.8200378620821946 12.309934510274726 -1.3370507769635038 0.3648516227713265 1.6226154917780444
Ni 1.4379165833080247 6.936413015983865 10.979738167464669 -0.14163358851480767 -1.9047254152747646 0.7680124255354968
Ni 0.0875701559392941 0.30001174277774345 0.4173553565259971 -0.5239597139218137 2.1099058753032827 1.7166196513403467
Ni 8.632044419453004 7.965550308455057 8.283811361960874 -0.7984082642185346 -2.468734688919297 -0.8520088231528101
Ni 7.912573295255587 7.596423794460598 3.7944752769920207 1.887925055887974 0.24149626374041636 1.0141225338988407
Ni 7.831526933854693 6.324702594301604 12.953534647362494 0.8517861656190426 1.0790297760951868 0.9544158620668272
Ni 2.0216423447318097 3.738699797766703 12.267185918629043 1.1539188120945933 1.715429744797304 -1.6717238192689208
Ni 4.672713710764815 7.285007408699239 0.5985405055767592 -0.34326155530537655 1.271408713483662 0.37834734326491615
Ni 7.385400260177951 7.1335477276231 6.262514355840861 -1.549486633002854 -2.4593234229077257 1.0794727771698764
Ni 0.7714347050129471 7.391083762126881 4.09070052774286 1.782458404212027 0.3192713630383663 -1.6968357838452004
Ni 0.9634947269153304 4.348057776589308 5.336185403176676 0.28033431965353656 -0.9956792395919883 -1.18680322152744
Ni 2.4660282106924063 5.648459960093239 0.6994301929874298 -1.1014212564165096 -0.5296382523638298 -0.41766568124856457
Ni 7.029212181911604 6.151694536631008 1.561128130525406 -0.6723303640501389 -0.915911535344042 0.16199646844187585
Ni 8.504918407317154 7.605410126184488 10.793661819220109 0.019014079208657577 -1.2978247415833455 -1.4176322353619972
Ni 0.24926672736351593 4.8311272129341 13.682632908718771 -0.5097317432478898 -0.6960526473677432 -0.6610810163885646
Ni 2.2614785991595334 8.07388500702797 0.8420484528198354 -1.079079912606832 1.0655358553738101 -1.754947343275952
P 1.1915969963590867 8.18826077886448 6.394837384742265 -1.5129705403546911 0.8819287506406941 -0.11855690920100227
P 7.043035136154947 4.136836637106448 2.051829832484069 -1.062120659044674 -0.8608035386263045 -0.5103269536297276
P 0.7704353872861649 6.844686564000129 13.302369930226696 0.8661725162477019 -0.2625309729235285 0.732924323583112
P 3.9922743184948226 6.988411412953718 4.606756858842903 -1.4736655721074814 -1.3474532032437503 0.8870411321665949
P 7.529341533874627 4.953595388207829 5.282474427804994 1.6172498565907565 0.46883371948194746 0.8924162804355792
P 6.1941043765048995 7.760793681950535 2.8499817015427094 -1.9400060928539298 2.122131470835197 -2.4775571723069327
P 7.505384255791882 1.2538802735113586 12.673988216486618 0.9140125185491162 -0.10830180713189735 1.2447785124906434
P 2.278689071120782 2.5671550243433305 7.73152082398211 -0.5782030486464107 -2.300695613827767 -0.5854851841301207
Ni 3.24967397610126 7.904132730275139 2.810166135654447 0.6124614556086484 -0.6361562281224269 -0.09066378233515998
Ni 0.33103481823375264 8.65571940439259 12.439200304435717 0.7112558374707427 -0.29621422410858667 -2.381799263278318
Ni 2.9900960211952965 9.08589651548086 4.856528890932673 0.7610398508724054 -0.2754641360454288 0.020468295156680874
Ni 4.424164007984922 5.288263319194036 1.7087241594488456 1.7894152951458342 -0.847619692946179 0.5703411293998307
Ni 6.034580521305857 0.5608204957878792 9.469579945890874 1.3290608167794917 0.1286999111722751 0.5725967582032269
Ni 8.470939722652272 3.6960453038354073 6.971380667626946 -0.9728668696831633 0.6598144909713153 -1.3483476900335616
Ni 3.8551927681769045 3.9980519181581395 7.933875135838351 0.12891485539655864 0.47338894295279754 -0.20306444212677935
Ni 3.5303015897154317 4.426121240444157 10.320658015383216 -1.2549197146897033 0.11274415917396712 -0.9459829008081257
Ni 3.8027803412637526 9.022248821469988 8.973272843086223 -0.07863076243002587 -2.3899054373252198 1.4806980534742307
Ni 4.125987170637711 1.7652260730292249 8.517167106798816 0.25183929753763723 1.7559233340359757 0.8846610619701927
Ni 7.1825820465897845 2.002709884597292 2.5187059931601277 -1.9238153420266804 -1.1501207785047418 -1.5932372957262433
Ni 1.0541108258693082 4.185494565215588 7.870468331976307 -1.0574862455964562 0.4568611205011035 -1.262902990005496
Ni 7.51821918403417 9.18212083821226 5.773465009746822 0.776680899843772 1.7535268087793414 -0.0718924152649278
Ni 2.9559479606445196 1.2336963137755037 0.8898086887337304 0.806620624825998 -1.0083519499636504 0.37904694043510206
Ni 8.741084850883814 3.061252712814193 1.2956521308817113 0.8018797677069028 0.15806088083289552 -0.1628487891398421
Ni 0.12834175460572086 6.154018750176348 9.109259096008683 1.2439369904259543 -1.5034096361391334 0.4203673964504438
Ni 3.6644284718016205 4.60017378274444 5.742078717113281 -0.7897886408703237 1.6464470469800032 -1.6026233649268333
Ni 9.46303074496959 1.530226441120955 11.558456989505961 -0.5897447307374231 -0.23030605145155175 -0.5069701213423526
Ni 8.873743808625576 0.11266978027468766 2.5824713093139837 -0.0578981578683648 -0.015800200257050204 0.585387739320308
Ni 8.466884111162223 4.143348198941978 9.700497618949067 -3.4416455244665176 0.1148743181430925 -0.4579726083977274
Ni 6.74215769440485 8.328739256671742 11.87746141495543 0.5334370572846296 2.239937617913104 4.2968414870980585
Ni 4.128847741155054 7.245966267000377 7.053270144548741 -1.5772103241703677 -1.0331893207223044 -0.6597892941603347
Ni 5.956310042479358 2.6996069671134433 6.780443231457191 -0.8907049541714274 -1.4685791587235095 -0.8041950461036409
Ni 7.048191690903314 3.6103034664866382 13.134638872378883 1.4119544682509297 -1.3196477509957079 2.2374300209999016
P 5.1727866040992065 0.30484366041147837 7.364602783344297 -0.39139389203622915 1.1513122277096817 -2.6625405885622855
P 4.311359667978663 3.0799499286627454 4.290410693824847 -1.4861158820556921 -0.056685111396870116 -0.28814430261625856
P 2.0665175447226214 8.885628349952562 10.721440882451503 0.5694574412432967 2.263076260813096 0.700746967519619
P 0.4518807489114633 4.7926130184358 11.12181160153078 0.42910323366154485 1.3291047826435496 1.5769262172710454
P 5.7013052364925665 7.790011022267471 10.391556879264694 -2.8158390150095314 -0.2430476673879362 -3.2816953970307092
P 3.066409267562561 3.435168800470913 0.4383843137370406 0.8479624209975783 0.7502273336379338 0.610641114570458
P 0.7481445797252015 4.869820193089734 2.9337851259751213 -0.2830892566908544 0.1530433730136461 0.21184835896699644
P 5.08545451537731 5.755213817064461 8.417525155080908 0.227531316919892 1.4027617460080681 -0.33120256725831343
