# total energy = -340892.18531781534 ev
CRYSTAL
PRIMVEC
9.03460860208950 0.00000000000000 0.00000000000000

0.00000000000000 9.03460860208950 0.00000000000000

0.00000000000000 0.00000000000000 13.22306292139411

PRIMCOORD
 96 1
Ni 6.5348588927690985 2.0172022375939362 11.193653300202547 -0.12839317856513374 -0.3357382503451379 1.319517910286063
Ni 4.640834508975883 0.3026142154213812 5.949121726543446 0.006150850092744246 -0.9405316478855673 0.9249103964085426
Ni 2.80011431598685 1.5227290737119357 4.875990915743277 -0.042762330668190865 0.7911042743579536 -0.22967021763976572
Ni 3.373197609392106 4.37388892835025 4.988017352135589 -0.6203845671104671 0.046127390485681846 -0.21656864726080122
Ni 4.977111676081397 4.621617896460543 2.757180952407093 -0.013831249456137472 -0.7327129789032542 -1.419411438749607
Ni 7.270221826042958 6.14126616863617 2.527998228853212 0.6012342194342613 -1.1329249834517459 -0.13880228971359967
Ni 5.017622861092578 4.563895782045639 11.439813860257992 -0.10410808076552394 -0.5901262824465577 0.042726592334249
Ni 5.729035046938997 7.917262425536867 12.610253730023352 0.19636131907499085 -0.035606950570332224 -1.0075597930796585
Ni 1.7360181137975592 6.649869460385585 0.4559613377564083 1.4453494987716073 -0.5538050794180205 -0.6371188491460124
Ni 2.9819448488893943 1.5394973072937264 0.3069327583373813 -1.2874469978934473 -0.9015213280606409 1.0902742386607545
Ni 0.5608919925457365 -0.25814135453433096 4.6100490801343135 -0.5172681608342511 1.1915597623758187 -0.2524802735557458
Ni 8.626099747929185 2.3221564166455355 1.4817236956097404 -0.23133783515017578 0.24444069108072095 0.08159807258846592
Ni 6.9168692486628816 0.9595477113442024 4.75406164485258 -0.7270994893712187 -0.08146566077565968 -0.8187359200322932
Ni 0.9890186046328886 7.487775201392916 2.5242298936016145 -1.1845481069446762 -0.6407235357781352 0.48523504365810627
Ni 7.407069042671937 4.017572999345806 3.8376234719560465 1.0819119827389885 -0.3417456328814824 -0.01798332395129806
Ni 7.460038952957518 3.6978924082584745 12.820896533246849 0.354611433100557 0.0226151662963546 -1.0758657765449084
Ni 7.2531102773339535 8.940639646716926 6.687035129828156 1.0234119296205666 -0.984707313961517 1.0466557306398554
Ni 6.877153109209459 0.7596723546631502 0.5945594615341758 0.5769056699912258 0.36602018915813095 -1.5794248153231831
Ni 1.9139727996060367 6.4797297110255165 9.29570789627221 -0.5166269277058264 0.7397323476438808 -0.8674560109458157
Ni 0.04403739275200593 4.702974547001506 1.214662471993889 0.12225132733345398 0.19449546951084568 1.6126141575909583
Ni 6.289632511244019 2.1139357919906145 6.953307632112278 0.06441256194811487 0.17410302189742274 0.624005708802822
Ni 3.445573858973855 4.0570271351495135 0.4258607322475438 0.1897985782558086 1.0883523390476932 -0.046030459896501376
Ni 5.644796356251165 5.515384622508939 4.739687582552673 1.1824536863094923 0.729435079482931 0.8160979681888137
Ni 5.308736019752311 2.849623971174465 9.28869884691189 0.12675075786570428 0.09514110138022323 -0.2841359527878139
P 0.3753220351391496 5.460833655716452 12.416297848904145 -0.7226154854579362 0.22454780881153585 -1.2488172013363912
P 3.823310844994692 6.000588277956178 12.568203951165739 0.48833913650472666 0.6103886322400197 0.923995340793441
P 2.5782152938950587 8.493489762738708 1.4261997014698633 -0.17161213715476895 1.0515863351722532 -0.9235518254981191
P 5.934436873707323 7.339535343305619 5.861796813554137 1.1072283500165898 1.4085331012742064 -0.4300527420590078
P 4.80336711788559 1.1468170786304956 12.449473835184156 0.6285015397906466 -2.0588036573108286 -1.863002581614682
P 3.9552793729737976 6.097927151129785 8.301068861622491 -1.258008638027672 0.40971634449450084 0.9546639735218913
P 4.801840269030351 1.0546460015823114 3.931203044486667 -0.015180821505496437 -0.22854690266859995 -0.7938792659999296
P 0.21035730959139365 5.358878097542687 3.3875237882663765 0.21219725766598294 1.2385397306697832 0.1399472019513203
Ni 1.489328125677517 1.1515963865856504 2.3916686952976356 0.015894559743069397 -1.431915741864205 1.012901774117862
Ni 1.6791091141576344 6.390955646815023 4.7010104230895005 1.2849314305604451 0.9055512751556405 -0.055566167301078495
Ni 5.902951262698412 5.563069286757156 9.313835838449936 0.31205710467811415 0.5724998276140463 0.01625194308248814
Ni 8.65832619684419 2.0358496697667903 9.945859111510842 -0.12817566323768892 0.9687998987026413 -0.3102125952702077
Ni 2.2609921163498865 5.36693696842359 7.054702141091307 -1.7443389716324864 -1.0856187421666141 0.213301032253123
Ni 0.7047401273872858 9.017740996602166 9.165380956677701 1.2061885680325872 0.6323491956715109 0.03250928548161498
Ni 1.3977985058407052 1.2009072803838263 11.501089286239553 0.6327880829811424 -0.46915227916363067 -0.2746557812115205
Ni 4.034720686489254 6.796591504226254 1.617564456839468 1.0446371575479299 1.2354240678589368 -0.8323483686094052
Ni 5.602171072825039 7.626790724088506 8.06647802135414 -0.9671626202095343 0.5590573289558952 0.002531251062285963
Ni 5.29382891554436 2.9972043028331683 4.819436072760898 -0.2850672063528316 -0.29742495658723617 0.2081487986282222
Ni 0.5484983164533331 7.628100742337083 6.852310645912127 0.44349086984178454 -0.1063066310787395 -0.39747737922614773
Ni 5.156069203445683 4.8322778654404015 7.110648954914174 -0.22198313340815318 -1.4243037338449018 -0.29031199969153876
Ni 8.100710153380758 7.570143728098297 8.745839933153466 -0.7842409715792171 0.3231046207415274 1.1322215296268179
Ni 4.917031528819054 -0.05785944046578921 10.360414838003594 -1.9738089003359878 1.4204313953736891 1.3777968485326142
Ni 7.9224392562709 7.207223500199301 4.621460694270714 0.32341058201772044 -0.8328006256554755 0.6906613011488427
Ni 7.421054616801577 6.202114257630437 6.954524593892163 -0.9659976533671557 0.13131009510161257 -1.3917972765767643
Ni 2.51026600253264 5.257311027539188 2.448355443565733 -1.9651052019144029 -1.2549839922687354 0.6322998304908143
Ni 2.2330571065250497 5.224533467498921 11.206347828761693 0.2249591853173416 -0.9050802490564929 1.2375357148853008
Ni 1.1774444018213743 3.2254817586042397 3.753287207495216 -0.6368684236981031 0.6177766971739748 0.372392668343378
Ni 3.6304851934127087 2.5845756583571173 2.7127641060934304 0.5532798030421697 0.061919363212615944 0.23438356395503504
Ni 1.1206438174847801 3.2605360400144487 8.225048954387976 -1.0575885755022754 0.7380444184184967 -0.8722102378013495
Ni 3.6820005317119393 2.664712636735611 7.161267156578344 0.37451922776807756 0.5564443168130804 -0.8994508186848573
Ni 3.9093654920133116 6.673088404515543 6.108116382721133 -0.5547874979359477 1.7854717371170539 -0.6050710766818482
Ni 0.9930209362475079 7.550755458019352 11.552275764785348 0.45382696166047 -0.6854087945006518 -0.594239533283983
P 0.12802853516390064 5.836438474105123 8.097142386440321 1.9118334870744556 -1.5495105442622539 0.25410161120925273
P 8.391380616218557 1.49059297088304 7.799715843283307 0.059806687744987326 -0.22545900777189556 0.971946671861739
P 1.621368930525509 3.1371684594329006 10.34263021095308 0.3062155582956726 0.5981638080390537 0.7336455180198527
P 3.911082067649379 6.305036518925568 3.758139695780119 -1.147752021162249 -0.018621985976561478 0.17791468233402907
P 6.912207390619669 4.062375623447153 10.411059240032737 0.572709115411375 -1.529624346861288 -0.07084314806480702
P 6.625439878701768 7.62589629783603 10.31172823566043 -0.580223164400233 -0.02151319148142747 0.3698519041993953
P 2.2879694576619705 8.501937121789881 5.7936324985067795 1.0599743021256327 -0.38033352045700947 1.0357509108018936
P 6.724404981425334 4.004093363298375 1.572169162413247 0.5826140332299128 0.3087118423549651 0.5916681730123811
Ni 5.257762757969732 2.4906518672384226 0.6344716519944547 0.01375257369940212 2.3691190967074878 0.39690967964813584
Ni 1.6333849599779777 1.2261499768426214 6.982411720291362 -0.9322570665816009 -1.0793807316767023 0.6125308753940031
Ni 6.642162939240505 0.5869902664399816 9.194074873625851 2.314017270637337 0.9955514557648724 -1.6689138606239515
Ni 2.7594947156723393 1.6975397157238272 9.252480907912599 0.3919417941198992 -1.8026662466184697 0.31228464730788796
Ni 6.351456337968262 2.1607892722466313 2.677855281881856 0.34477490662610943 -0.5541364946155101 0.3169846238867186
Ni 4.090599740747538 6.816711577602681 10.461769594704737 0.06672064125600123 -0.9193485860500489 0.21137193355121017
Ni 8.296056460765177 6.902802363055744 0.38267801347012703 -0.3181642460171165 0.8165908486648324 0.03011250311466427
Ni 7.6233575728163725 4.1432534397317395 7.953672801699569 0.8288580960679597 -1.4438389756643522 1.6221411232447869
Ni 3.366123510849788 8.369543967206063 12.372450182932969 -0.5267141367384994 -0.32239731026185764 0.764389998291561
Ni 9.038583838667464 4.69571975628697 10.221044255189597 -0.026956216873869704 -0.02693950470332134 -0.3713932805445862
Ni 8.779796509617453 2.352828912879468 5.815370670285414 -0.8244046882822964 0.28197288369822404 -0.009670690320544635
Ni 3.4703557903934956 2.695972382529251 11.512157585248742 0.39433523405274024 0.5003431029441383 -0.5446275266838104
Ni 1.2010970071646547 3.396868283952608 12.747177740825522 -0.30019840556731525 -0.4808001478152042 -0.6589714262447296
Ni 3.0533001876981136 8.54017158543112 8.062498276261046 0.15807913566534063 -1.2661469508640906 -0.4682446797476968
Ni 5.913277820340646 7.774931201481084 3.609684814007883 -1.8202988720985684 1.0998318004422027 -0.09681360398663971
Ni 2.9369886364416615 8.506138214793939 3.687911876126037 1.6762713294302876 -1.184156270822896 -0.5839368658063944
Ni 3.3425883554184495 4.093761853761346 9.123516387296611 -0.20471663301822166 1.35770599132001 0.477136840031004
Ni 7.288760842912481 5.949244597220554 11.504011982125173 0.27818462030038543 0.2555861661745792 0.18177802194417725
Ni 0.43980474717757395 -0.06802427861388882 0.33178244932160306 0.552656567635874 0.7295602922068855 0.3240692986476419
Ni 4.804577755439447 0.33869934567409177 1.823420724420922 -0.7229019063501034 -0.8180427506200104 -0.0038890506417610447
Ni 5.950003504343868 5.6680875772500094 0.39506446187564165 -0.6282557423284276 -0.12683046206370416 0.07034692515467884
Ni 8.268419593024499 8.940585439065261 11.228601876692009 -1.4120066616451037 -0.10347764627037664 0.003981353245251207
Ni 0.1255349831872981 4.8888706537789455 5.5369457159588 -0.7651446170693983 -0.6568276404288496 1.0980718803283025
Ni 8.04531896798746 8.957028426737061 2.5214264545496583 0.34875008922377354 -0.6483082901039287 0.259074896054128
P 8.64011242588466 1.5741359967078352 3.7088839130944695 0.22762079130990473 0.9298533422361148 -0.40996317039798424
P 1.83360092140366 3.0825000427284737 1.6600632557450412 0.07067062704268474 1.3014574532399263 -1.4513453113437262
P 4.623379645139664 0.9722865094855414 8.241921989429654 1.4759353419782646 0.5826795963605255 -0.542897174256265
P 8.53094725003941 1.7356205910186806 12.475086950595996 -0.4242178805447855 -0.5749557453537065 0.19335492814849925
P 6.5382288017809564 7.822724281032633 1.4038797008966877 -1.174822909237112 -0.47260012850291505 -0.15350411470014852
P 1.7577553821153336 3.1852054734169424 6.00653666426558 1.001847058965597 1.2209875807186328 0.06353015934316156
P 6.816729646819902 4.079387791461438 5.997267155830818 1.310524705648517 -0.6283467593803372 -0.829492644328165
P 2.6495164250521133 8.508171001731386 10.290240322540317 -1.5905638626591383 0.4034811622180664 -0.059732639973942285
