# total energy = -340892.09580311086 ev
CRYSTAL
PRIMVEC
9.04055087386889 0.00000000000000 0.00000000000000

0.00000000000000 9.04055087386889 0.00000000000000

0.00000000000000 0.00000000000000 13.23176003679629

PRIMCOORD
 96 1
Ni 6.447160274871022 2.119231661576884 11.403832070601737 0.28406987543656886 -0.4306358682559874 0.7459302489244767
Ni 4.546782265650454 0.4663622343436847 6.1578228727117175 0.28394491982293035 0.5218910043182431 -1.4428979519073215
Ni 2.3306720623249624 1.363152321942741 4.655912561764281 1.5541801818237813 -0.13885448310777376 -0.022738065027464064
Ni 3.42701965077714 4.04318742713194 4.725445245629238 0.17477330849156997 0.30269160430281417 -0.168812977143077
Ni 5.032196556627305 4.407449297618583 2.59517145537638 0.12074208977777916 0.4626257908990226 0.38902307781120743
Ni 7.488062165624039 6.238007133460607 2.6295743671690404 -0.7745427704548467 -0.881878614129049 -0.5979794599423895
Ni 5.257685973228065 4.417393903434509 11.778462548734092 0.4042362952165361 0.9200083311212349 -1.0400724209953829
Ni 5.451542502783438 7.892364635345897 12.514121996407843 0.10746028506720848 -0.12580279213013817 -0.2146135804169594
Ni 1.5395786696680172 6.3246608123202925 0.3389655054561482 1.147626294217662 1.422572095865776 0.016319820205946085
Ni 2.567950357092967 1.5931710544651188 0.40392999903129867 1.0142567454838596 0.17000982566465558 1.8794920946292728
Ni 0.40090051047773784 8.967475970105701 4.984867465384089 -0.06040935432599274 0.8705387636361974 -1.0866764940071671
Ni 8.58221290024597 2.1966187759262747 1.4493015380710372 -0.14321224585583722 0.33918841367726743 -0.3296262239101291
Ni 6.897135606940209 0.8051541612255912 4.780899079824067 0.03662536453251757 -0.3710202134758836 1.0139885794241374
Ni 0.7874708439747257 7.385958185546699 2.6036930785055548 0.13145176288579943 -0.07191375542116646 -0.4579047312742695
Ni 7.716932748202214 3.7809300906644774 3.6234644900098765 0.6282950802067954 0.0874254779035204 0.39347597137623846
Ni 7.527478966858075 3.9385159306439435 12.726902206775849 0.6890538474524068 -0.6030661304366776 -0.44691686480419807
Ni 7.913121739848958 -0.2644252605353347 7.069451216243211 0.03876323681112679 1.5409837377381654 0.4917584465989208
Ni 6.711026829370517 0.5572089206373949 0.49767327778266607 0.5947588961225628 2.097890081789329 -1.4168968998578695
Ni 2.124357653847457 6.48741784732404 9.106388552528081 -0.15615697894196331 0.1517961308701063 -0.797095201834066
Ni 9.108535683329245 4.811227415397419 1.3938205822239838 -0.44672788872184355 -1.028703774147125 0.21431044735424382
Ni 6.313595178212388 1.942425610720454 7.205540434668941 0.8678455330747505 0.18796023949548918 -0.5104231128879596
Ni 3.3510428623434625 4.487720347654592 0.3408405156799874 -0.9731334930809886 0.4910477936851414 0.877739909370327
Ni 6.040127558825154 5.565977794072525 4.561847439406508 -0.7871689438592895 1.2162557224606019 0.09246818253375041
Ni 5.46369300298035 2.8294573278488637 9.290005754313345 -0.9565915295619075 -0.0032388186522718412 -0.3917384198598415
P 0.23660748590296607 5.2621610458452315 12.235037482844758 -0.6003641581244822 1.212388783306028 0.8277890313734969
P 4.11204930213186 6.207667045171289 12.405092050407248 -0.22669262306868057 -0.7525258998641233 0.999613284539072
P 2.3668071436397424 8.424283519338317 1.1998067470857048 0.7965449857575506 -0.653853388291874 0.2714071923672358
P 6.221779344879163 8.04492392911295 5.867743241336515 0.5594671627998042 -0.9747234632759278 -0.4554359580188027
P 4.765934256181246 1.3810164502084417 12.619275354250373 0.2099213171476127 -2.1343727500963956 0.8461307671054783
P 4.157306299145066 6.119178134511028 8.074218025681448 -1.4317812731688697 1.284797218975426 0.3130590635800673
P 4.5614098767506075 1.0218896125431138 3.86170198721158 0.3352818795340097 -0.5772391420712446 -0.41110653997380814
P 0.32721550165709407 5.488690125781293 3.5680495301832376 -0.25465311283734854 0.5933473604870169 0.6893934901800126
Ni 1.3426483528604491 0.8363449653397074 2.4646005891234144 0.2536791789598534 0.876904043732593 0.45800166186345
Ni 2.1190327694605653 6.55591810029429 4.639385530953286 -1.5810078435395867 -0.7763942218412887 1.237677639779804
Ni 6.040398775347406 5.6590954667125635 9.038006730772548 0.7618906289084749 -0.6895045618365803 0.38215514704678055
Ni 9.015282402428083 2.4452881646288853 10.444224620228695 -1.088001383466178 0.16657611739275827 -0.47496605763193034
Ni 2.6221122965867987 5.0479090338164685 6.6710296247788605 -1.6058485567323506 0.4923284601697779 1.4420443456577747
Ni 0.5490389749320742 0.03180194534425847 9.271454544191272 -1.2847625090827488 0.004973541955191434 -0.5456148302977442
Ni 1.8122145583870104 1.2615184505039732 11.597782621884823 -0.9782674718734442 -1.206132003763039 -1.9950235867403898
Ni 4.134704922290688 6.736358452548903 1.5487512124505982 -0.5141537835749854 0.42453978266057857 -0.4531322495862906
Ni 5.810759745956182 7.999929108071254 8.061344281425193 -1.3506444564875384 0.044720482835826206 0.14621786545138044
Ni 5.318239582096315 2.809694683927396 4.898026647124048 0.5883997866737544 -0.06201089448515773 0.591452200346833
Ni 0.5873564451959129 7.359207195901858 6.547259964848915 1.491038001947658 -1.0057559071017002 1.4726541001238316
Ni 5.019458420632177 4.657700782701 6.890108386848645 1.7686770341572184 -0.716690635333069 -1.1282144653499537
Ni 8.202003498250878 6.938116423452567 9.01428161346097 0.13865805082625152 0.9184710685411019 0.29432883416041566
Ni 4.544458844109823 0.3530045767030138 10.660974536427405 0.09032619649008315 0.4790322572815041 -0.9448834970963598
Ni 7.921077424501699 7.265854468942534 4.627437539092987 -0.13754322049551795 0.09974954668651208 0.7655611357815267
Ni 7.30424064739201 6.2816458718910395 6.899542201547662 -0.9312355672956221 -0.40826521387027104 -0.6426688324299641
Ni 2.33587037900147 5.194827023920668 2.6872910512145283 -0.06028954091867682 -0.28572103788674663 -1.76188160850194
Ni 2.39575498711483 5.416293395441349 11.329151697144425 -0.2475393846107027 -0.4893266972289767 0.42430658360384993
Ni 1.2591679073111177 3.4296142888400225 3.9399949647452943 -1.6480136201361746 -0.42225587172240825 -0.3762940602803132
Ni 3.5939805418758026 2.555582883678251 2.730108907637611 -0.7288501535137383 -0.09379050088959977 -0.5961701746477925
Ni 1.3114584528014073 3.382060991938411 8.343828946122251 -0.813828969648979 0.9234340689733322 -0.646683610016312
Ni 3.712936108535766 2.816854800114863 7.330937393732402 -0.5786789598415647 -0.841439532277396 -0.25920216566061166
Ni 4.112419964712272 6.950140355939096 5.953325614933304 1.0821577802012072 0.34127460678233484 -0.02696624417619872
Ni 0.5161982703075886 7.187066069228172 11.162179957384874 0.8648748804822008 0.6159638123349521 0.23883568618911774
P 0.5078203919352077 5.4952897278227715 7.8339690059397045 0.11716877060422402 0.5982648523932922 0.23565060359291673
P 8.529488408320077 1.834291583298367 8.27670376091982 -0.4114770359393494 -0.534007585076119 -0.7839134130364693
P 2.0367999199135958 3.3197083134725522 10.452984009842378 -1.0593654648970399 0.2778593757504828 -0.06254054173638261
P 4.0380523943106255 5.951087174569646 3.7478561398308545 0.33651369505858175 1.5330518844855985 0.34554932289828877
P 6.889369773853043 3.9950464944321142 10.3010837722244 1.3389220258442878 1.050683620852326 0.46840485947464494
P 6.335428108253718 7.718686615046114 10.18652281728 0.7918097850654104 0.37334629050589896 0.618441070230851
P 2.45413886380506 8.51726558371723 5.652581749903131 -0.5047394322396211 -0.7500309013564115 0.732306744603771
P 6.877770747251377 3.905635447596194 1.550656056491885 1.4725877656622703 -0.21728932747690965 1.3075890200589608
Ni 5.167488398477612 3.1130594046176014 0.6416955794842831 -0.009528765426041653 -1.7383812113871546 -0.4135640003753652
Ni 1.2718698811032785 1.2252839231310342 7.09833667991818 -0.030365242555418677 -0.6956718669895567 -0.29634200793570253
Ni 6.9879479391411 0.7769187131489537 9.493218349831357 0.01359779328909271 -0.6708530081736639 -0.6088120317815192
Ni 2.5301246927894794 1.5643588192511575 9.233942586998523 1.3916026440674552 -0.9841157031241051 0.16752665423148566
Ni 6.377493790855087 1.9458338983500945 2.8118418147285618 -0.48450819279441076 -0.18105554195585594 -1.5972430744515265
Ni 4.342483899988357 6.81908853238667 10.240720918976802 -0.8233117123284337 0.8521700313210228 0.5624306163035023
Ni 8.01989064410904 6.862826716875262 0.3647364994005844 1.1767563788143993 1.1683599272205878 -0.4138733040856679
Ni 7.796959703368196 3.9730598750281754 8.06790681720863 -0.11521138976753706 -0.04374809162022788 -0.012678366798616872
Ni 2.941370305481003 8.194978990324538 12.166325680987152 0.39257994192453033 -0.7705830144761503 1.7664820833884285
Ni 0.25557908163453114 5.085725657569213 10.073550287100929 -0.5166099584249618 -1.7339200902920073 -0.5875322964671366
Ni 8.511398266285832 2.598688229614921 5.852262202246341 0.4060000719851782 -0.5642008208300476 -0.03112963152526897
Ni 3.5880137783862467 2.901438192854688 11.806686244094767 -0.3978111084164826 0.18560150945532553 -0.7885709664131387
Ni 0.9555681323016265 3.2400791425392073 12.650052101140519 0.16209879834769503 0.236740751333302 0.6188426765446439
Ni 3.1119383763256248 8.572738403068616 7.7871552260887675 -0.6539037819138351 -1.1376948940365632 1.1332103759026484
Ni 5.6294605413811025 8.073175650180923 3.4765790458883465 -0.5695438303095159 -0.30173823925060933 1.5204784186959621
Ni 3.1124536877179043 8.120023784124678 3.301085682999619 0.519543330021673 1.294678225534564 0.13356161013995063
Ni 3.6827406690583167 4.366459440555483 9.412491656037965 -0.08426379234608715 0.282864542274558 -0.14774767183234555
Ni 7.141790991113482 6.07923698133397 11.483169231746123 0.25363855552990516 -0.44088582811876975 -1.0276992441420107
Ni 0.5763215489605312 -0.07741966033206123 0.19370193613768869 -1.1365893196772103 -0.2660644399980837 -0.25932249328855983
Ni 4.554132233403497 0.3583529665218338 1.4156526082102392 -1.092690304301415 -0.16571634049562428 0.45982663088733067
Ni 6.05621069859473 5.656229612127428 0.5633528789214891 -0.912918514153989 0.233583693761559 -0.27463341261401736
Ni 7.772333243147666 8.577792070933254 11.648314780255843 -0.32504014720134344 0.20871726953718248 -0.3020686260068346
Ni -0.0175232995027365 5.081214422749079 5.7678695651271665 0.45814512941984964 -0.7639657662699488 -0.8888221353264176
Ni 7.85164599480505 8.742375297186836 2.364224258292824 1.2765496342546532 0.5950900542097365 1.1414121949871505
P 8.694812959734483 1.4810049414122106 3.6692991782154807 -1.1075116855849636 1.0613439287796493 -0.037143441819516676
P 1.6720860218898657 3.258711717617957 1.7424775580752894 0.725170390669306 -0.9510793414944266 -1.5599782765627972
P 4.627451099919099 1.0339406666818682 8.337424619976794 0.17870169701169866 0.10952462379540492 0.3925202923311885
P 8.332449604903609 1.475038177922655 12.395803788575172 1.0459471346086051 0.9151499745876691 0.3524614766370897
P 6.18594260173886 7.79408480823232 1.4801578418077086 -0.14894966256024672 -1.6198541269828233 -1.3202748430567455
P 1.8368862213612498 3.018748379279652 6.014760677498875 0.2764884635448851 0.7258710162807563 0.6827003944305533
P 6.910985730676571 4.135871153336375 5.771045510602743 0.6882640045612598 -0.9671201970073732 1.6224260014750573
P 2.2630397022259214 8.413326371839315 10.221362387673487 0.7033530376838985 0.2788045132725715 -0.7204300477708431
