# total energy = -381176.3877129926 ev
CRYSTAL
PRIMVEC
9.17763687751556 0.00000000000000 0.00000000000000
0.00000000000000 9.17763687751556 0.00000000000000
0.00000000000000 0.00000000000000 13.43239925999602
PRIMCOORD
 96 1
Ni 4.60249305047841 2.368169852372525 5.982306682201448 0.2773024748057482 2.254836903622439 -0.842033457107653
Ni 3.3039859381930436 7.2983137122292465 1.2206128381889125 0.7419059582564319 -0.7469160098765135 -0.5970435783916814
Ni 6.539754502471939 1.1866959638397772 11.002155516879784 -0.3598863083462512 0.3820703006424581 0.6553004051510456
Ni 1.1815656649001822 8.76992940876978 10.975008985156299 2.1251345193275792 -1.1380792739591756 1.0221261209296073
Ni 3.248222617339773 8.307275562895152 3.4719128287428527 -0.3643430585660241 1.7478027618113705 -0.28527186616447
Ni 7.524056043208164 3.247754557865856 2.613595460875144 1.3844981718121898 0.5632320291588752 -0.6326011637813169
Ni 2.0684833021515394 5.311245225628952 11.095094690889793 -1.0271485138448633 -0.7215343365786154 -0.7181427943985632
Ni 8.625666136799312 1.8156210545956935 8.30792533957659 1.520550666694794 1.5843471923254648 0.09200666951629961
Ni 2.588277114390957 5.370808088094016 8.675583303046997 1.9484537094006507 -0.5528730545220543 1.396443259989208
Ni 7.254738292971291 2.5698208868998567 4.87456409173832 -0.5054256596733683 0.19427538308023962 -0.11876105479200838
Ni 0.33338316128827794 2.4216295864031867 4.0044938422569345 -0.5707026265043074 0.38094364323718266 -0.15315187356705237
Ni 4.851950394802431 6.593296835233292 8.697196637577848 0.9068265423236382 -0.9782353330839282 0.8953180274634065
Ni 5.288603995782833 2.8963887351424398 2.956296676749058 -1.2435292134645746 -0.2349517777536792 -0.3962460779222079
Ni 3.6766805887082636 6.3009432167703325 4.348645124736316 0.5325240585520571 -1.803324963248391 -0.2280843612098846
Ni 8.2884705852078 7.738087709702425 10.949366668095069 -0.057363625521133464 -1.015909193485618 0.26473723654622794
Ni 2.8672956266656677 8.878234699979368 12.788906479571573 -1.093350563593233 0.09867456845477844 0.4831537356490453
Ni 3.5066465127621558 6.513148533552645 6.880289796074396 -0.8081995392773434 -0.6982236868771329 -0.6165898759547253
Ni 7.728001486921361 5.902698025561316 9.210394482289741 -1.0828357801048383 2.176133378972949 0.4575974844464958
Ni 6.489084770011289 5.498276284823951 2.5391262808113497 0.4824086299529046 0.17529318555078197 0.6562103185598247
Ni 0.35729457605969206 4.53747867178773 8.787932261005754 -0.6992978937779183 0.4202190437980376 -0.11231838449045818
Ni 4.458367443059093 1.4108780965723065 12.312392566686968 0.3350296543138875 0.23871792966433084 -0.16706668387593163
Ni 8.510202288929825 1.1170285233201622 1.6778812468224775 -1.4251848508982745 -0.08459752153642204 -0.1317736650015924
Ni 7.420578188925638 9.06740414853559 12.760993615180007 -1.6914038141963517 -0.3112366656593479 0.20843650507197006
Ni 2.6625976167395065 3.578342211002076 6.932125088401467 -1.696919344697942 0.012242307702462787 -1.0626893870639504
P 1.1254535938506598 4.198640323219139 12.645139717748924 -0.9202556712453505 -0.12257657188335665 -1.039523233360132
Ni 4.906392135964644 8.050852392282843 12.093564667230574 0.6379765691606174 0.6062285873250591 -1.535472321001633
P 6.45398030946755 1.0493067417901614 2.6049051566427606 0.7599175643425041 -0.2977535435712485 -1.3440986849492207
Ni 1.9082509422474483 2.1374532422786507 12.85449721384974 -0.6534052450108618 0.057846478694822956 0.8944109422681048
P 8.02918399193153 5.142183979177651 7.302026984055651 0.08203953100125871 -0.3705193625800651 -1.0337577916312646
P 3.287704810610143 0.353415189008231 1.5457196066619372 -0.7013833155520373 -0.2682912724460734 0.0348854990232754
P 3.501708944194174 4.062416661035942 4.968819338857342 0.7271200581965089 -0.10785109274772393 0.11869806276455688
Ni 4.596389922044008 3.8325719264326974 8.00489078747159 1.305139530077204 1.655244076446343 1.198854239154703
Ni 6.153706390494983 8.279109395729469 9.925186460181155 -0.18081745780312086 -1.2041471121225262 0.08647057018941881
Ni 7.29835042277622 3.557967857431592 9.605481648695331 -0.5133189463785159 -0.9123523572378739 0.019769469317443375
Ni 0.1751597860673307 3.45723411653536 6.5753472132904305 -0.3491450106693471 -0.853992429241742 -0.761288990768734
Ni 1.0643855989596682 6.970873988496034 9.411477421102653 -0.5464823205043621 0.5337265635005904 -0.44531892418945884
Ni 6.033497704429127 5.65031301511613 6.5943540989861384 -0.20888696234582735 0.5344744974102086 -0.28564724722601775
Ni 8.136342078548186 2.341178422710005 12.44290131447001 1.877544741094915 0.028162835587461178 0.5473210143555736
Ni 7.490832998196834 0.855049211423362 6.522678591547055 -0.626028909880438 -0.18242105484481486 -0.6367177570528518
Ni 1.0835760373902459 0.12186800278907398 4.171793900217165 -0.17571484646923285 -0.11433412936890633 -0.2482963173813853
Ni 6.006864202599601 6.652318217130492 0.18397949497779703 0.07143784422601246 0.3258387318432388 0.6580098336624086
Ni 3.734628187106478 2.487864590780747 1.1821291717962306 0.09841848657991438 -0.9510425747192203 -0.813309092589767
Ni 8.477502369212873 8.579612755620623 8.533132614333363 1.334733698794553 -0.2276387890320338 0.47107829254175
Ni 6.724849080314067 3.394973028867719 7.041411468978929 0.6710880070026055 -0.8315292151422196 0.29545626289663957
Ni 3.3465885279561913 8.595031185349637 8.402664248151991 1.4743417722388996 -2.3642378573557865 -0.5877197298875942
Ni 6.225558108559542 3.3898977957485847 12.04536922563596 -1.5673380593619781 1.4627635804829968 -1.2193148210019
Ni 3.5019842732964777 1.6836558158614634 8.18335360500289 -0.22360575661324072 0.7536222182520955 -0.1881636137555469
Ni 8.80514400095444 1.0586220430847746 10.568155170681917 -0.8654451511633742 -0.25759574040544025 -0.20710441652410783
Ni 8.461689301103888 7.903890895109797 5.803790634377033 0.38301389550265 -0.600487571076224 1.0027351179975053
Ni 5.561354182161759 7.5949532870514025 2.6255098688955054 -0.6657092591891954 1.0178915140229696 1.0577878359972752
Ni 2.7374871325661507 3.810123426958191 2.9372494094516783 -0.9254181892828964 0.8892417393623394 -0.006081944528021783
Ni 3.6726791390881144 3.6842062508379017 12.140980927465666 0.6991670246270087 -0.6084474493532489 -0.5547255343497608
Ni 5.388869677205148 4.468554619844335 0.7954946088313672 -2.0916731543453397 -1.21350438496771 -0.8532411528980144
Ni 1.6664385693307298 7.264741917021665 5.291693188310683 0.30933610620252533 2.156498892571473 -0.739308629842901
Ni 1.533463790554719 5.036879775183177 4.96564938312615 2.2209399937646785 -2.058639363818822 -2.170259179580359
Ni 6.2368466017539985 6.206101518663404 11.203574357197505 -0.1763383389858447 -0.8268834888400921 0.07336745714855751
P 4.991404585119326 0.6256367435107341 6.922843744362804 1.516691183739388 -2.618936735829406 0.5493966659376796
Ni 3.8512392395688972 5.904496842363034 12.542368541495645 0.9542631385390468 1.274363682346928 0.29547631750129755
P 6.710678809182163 6.9407896952509684 4.604438709468023 0.2927401495170571 -0.27205973834957015 -0.1483894191814025
Ni 2.992561190577171 0.3209281904637266 5.809203604528327 0.09064167084797294 -0.8706935440465069 1.2237790274208409
P 4.210846580087942 5.384831517038025 2.394096676172803 0.16899346858499928 0.9616319201992923 -0.5514561195698696
P 1.283281412927964 1.7030756952106274 5.725613689068882 0.4409069111646922 0.24181353787051904 0.7590369615097637
P 0.3829882878866863 4.404687445746588 3.158534162264297 -0.22779974008993023 1.1274924995822646 0.49507362701508284
Ni 4.791322926475126 2.51603075794643 10.005686265349079 1.1803019300738125 2.241972388954945 0.5466723250279811
Ni 6.697655742643191 7.75246906647943 7.505379552435221 -1.4883265165537656 0.43138071684181195 -0.15694579339184583
Ni 7.719200133284382 7.811710711658472 1.5951512759258941 -0.6767369777582668 1.8571854607122722 -0.6102557062065813
Ni 3.3324182568242864 7.139467175473418 10.573971039086247 -0.12622573860016972 0.9007248003012747 -0.6901169986095986
Ni 7.605571812763587 4.4519247420651835 0.31908623876931397 0.18942473985615763 -0.12246112935141491 -0.9810285795583491
Ni 1.169845822778782 6.879868542547872 12.83931832043973 -0.0675315671930708 0.07661064667620356 0.3044795494411724
Ni 2.6071371578987703 1.6997350354360075 10.705420494635495 0.16286858663418402 -0.30055784578926303 -0.7731122086559072
Ni 5.632095406180359 4.482614759335318 4.526638047266354 -0.030726225439263212 0.4876652503661537 1.1561991234883378
Ni 6.2831936673084785 2.1695933261542524 0.58920519669389 -0.08369120767206877 -0.7308183329837027 0.9696139099635043
Ni 5.245202951623005 9.08569517856531 0.6083368982493096 0.3005943554541533 0.5051207268384398 1.8602633283066479
Ni 7.8673822561443085 0.27534837534100043 4.171969193078965 -0.6445917604842898 0.3930252569920651 -0.9659786272037623
Ni 2.947710079811876 1.8008634147122076 3.992337144626546 0.35719770577049453 -0.07858293991122596 0.3415404588492118
Ni 6.6256663600274806 0.9447183934616763 8.681171566060092 -1.8392784985248647 0.7904203609170516 -0.6134832120049434
Ni 1.5215145075147323 0.5323873653787955 8.93109513433068 -1.982172956029967 0.8787719501792672 -0.5723010813396788
Ni 1.631031246774456 6.345886103903063 2.6395874458963005 1.3566040165050828 -0.8555127225410106 0.7379120066056905
Ni 1.4840146837809496 1.5750109520923683 2.1147165650104 1.6139958684298332 0.0562901899512966 -0.7893235283084471
Ni 2.644260698526071 4.600088509651623 0.7057235550252006 1.1018565441817152 1.2033063613887858 0.10487658350043227
Ni 1.0566580288216738 8.482871286707796 1.5970051585480736 0.5143234763836304 -0.9491404726005008 0.5478509187171144
Ni 1.177600925827007 5.857764316065329 6.928216332912426 -2.0362594534617258 0.5005801586556088 2.3345935521267926
Ni 8.531420985080707 5.263099343272755 5.018814515017348 -2.935702815947415 0.549711368964621 0.10508664262870934
Ni 8.456981173454492 4.886550085325281 11.309690782043777 -0.06105624388137227 0.9466765844410406 1.1980988490459172
Ni 0.584413552550129 3.1322356441759087 10.558470010626543 -0.11426856623829353 -0.7378305026354777 1.967071581612154
Ni 5.306638051983735 0.8672132511631456 4.3336139912778755 -0.34528089972825055 -1.3368000944052785 0.579423294206757
Ni 4.912219935296742 7.77384378245495 5.719407771102953 1.3267468239343343 1.6133818889949183 -0.6598849391979346
Ni 8.704722299707486 5.834939533484341 1.7440354879966953 1.0093238269586164 -0.539585850494845 -0.5242715887352778
P 4.704254686689908 4.9147162524909636 10.245790680067838 -0.4483350853079633 -0.08282423168608316 0.1868875752566007
Ni 8.928381307145639 7.341659690568614 3.5540783749797127 -0.42833061716157844 0.024831971442015297 0.566079011689367
P 4.450061681806261 0.48252985376994195 10.038125540182516 -0.21270453631970465 -1.4892989077693641 0.9406859140752444
Ni 0.3464502804836182 0.2441590946320215 13.08987331011827 1.410044138602094 0.3242539038546222 -0.5600590307475322
P 8.107276502981643 6.831116936166605 13.041825628475227 0.22965710501364317 -0.30951402654128635 -0.38094672856097617
P 1.241348790647089 8.185194638933629 7.335553808843189 -0.05246104601319352 -0.8969771603333843 0.1305225662033107
P 2.003505634007833 3.2844926377499313 9.061442355707038 1.804732899339511 -1.4641098100982461 -0.44841041863058906
Ni 0.607532019506908 3.6210916429531186 1.2120978268183291 -1.1107199081096162 -1.3217082330691623 -0.3337070788477221
