# total energy = -381171.8301281058 ev
CRYSTAL
PRIMVEC
9.18015139474226 0.00000000000000 0.00000000000000
0.00000000000000 9.18015139474226 0.00000000000000
0.00000000000000 0.00000000000000 13.43607951012591
PRIMCOORD
 96 1
Ni 1.7578888300491364 2.4870498949364546 13.00869130354127 -0.292743749061483 -0.20737103992193318 -1.9203911468364798
Ni 4.014158899103002 7.4342518412262475 3.676594634195437 -1.3451793196079092 0.5314606502845491 -0.8875959762288005
Ni 7.355045495002651 8.747233814138115 6.364496143456352 0.21564613544653183 -0.9290534720426388 0.4610646170594898
Ni 7.417929532048506 8.296919847830042 10.684235660011772 -0.7874849324378115 0.28068218991125854 1.1910062038651938
Ni 4.463554850271719 7.791552513614817 8.476862749340539 -0.5075205945291841 4.4678956948668285 -0.5733056113447933
Ni 5.075402760500793 5.033678972417084 0.3831189301678049 0.337404068083335 -0.5011522291089949 0.23148953023669164
Ni 4.035401769427689 6.356465347017268 6.766611560902841 -1.219798445506538 -0.32736982377578455 -1.6769711837107892
Ni 5.428425482339967 0.8575096795357557 6.91240613525959 -1.3203563470269584 0.28874259832188987 -1.627719902884145
Ni 9.179811727953838 3.7400762990970122 1.0827153174921782 0.12782727875933467 -0.3050721887198488 -1.5881434261431038
Ni 0.5989204210366692 7.342734911983894 6.2304980636403196 -0.41768033653658393 -1.352065505204781 -1.0025795662562476
Ni 5.203768817436878 5.99976138446928 9.135741493173937 1.7003581951761622 -3.391506698828598 0.9221927403670633
Ni 0.8599424196550479 5.2805699639953625 9.912844062683819 0.0010513240826498023 0.33817694169361756 -0.9453375539146429
Ni 6.886004019851725 6.465259321182295 0.5767760598451348 0.32983345482492876 1.9070363227961282 1.3482720996006199
Ni 8.142785105932246 2.3399838696116975 11.835640542291088 2.0571779487819475 -2.1572481120326716 1.0415857723161157
Ni 3.509461715939507 0.6873473113199522 1.2543006091739828 1.1405408481257906 -1.0617573621679843 -0.1650203428698642
Ni 8.472150577630227 0.02773782743562764 3.511532758093893 1.1888575329533075 1.1620735799912436 -0.07144889996960598
Ni 6.0087395725321775 3.1769107317079626 11.844279982767564 -3.6552031528151367 0.5075211087498163 2.4510066755119144
Ni 5.6613534636486476 6.83809280972876 5.152535310524585 2.349972348575708 -0.27794756458891484 1.3833604586633206
Ni 3.913718862706112 8.667577640496235 5.6486215116809255 -2.2003043197921976 -0.224682020396555 1.671779612207521
Ni 1.5480122088896728 8.99462971404304 5.050957853370035 0.6272625251772229 -0.20035681338762915 -0.36454848970861087
Ni 3.746291261590449 1.9471835517842488 11.311781629123823 0.4802561023862761 -0.03308135593500109 0.15809430517399223
Ni 2.3996915742753817 0.342059785044989 9.878703079651187 0.572167383975292 -0.8496179543231303 -0.4815524526001964
Ni -0.33961786477430334 1.2852395554005431 5.578324502384776 0.7607901967554447 -2.295541837540969 1.3929054220392785
Ni 1.9042020829596225 9.023170804725602 2.687954754138997 -0.5297665504115779 -0.8317978954225739 -0.6901121135135921
P 3.0757271030481945 0.07719405703812865 7.653849324696346 -0.6167194595540539 0.2368813906762243 0.116800845741844
Ni 3.200338478064316 7.34084380079682 1.308769201437365 -0.7942520759583159 0.0035676627466003073 -0.6612838764279901
P 3.7655603993655222 3.33404738311145 7.432059621073466 0.08033771781880358 0.05967967524881979 1.8014606563461426
Ni 5.710035806488673 9.141998684363784 4.607124155930672 0.3341817044912954 -0.6911588096105516 -0.5209358394938254
P 5.162990584946706 8.265946017028185 1.7662666362108952 -0.5296477654455266 0.7855900294079439 -0.28508391852338
P 3.931675238831907 5.822152995458164 12.152907492467502 4.469665642283056 0.15162566673051306 -0.4205237195226499
P 1.1691840814832157 1.8729344873131728 10.921275431129628 0.07573544316010182 0.1338961106612339 0.943422082059485
Ni 8.983797135398644 6.872949844570089 12.706890154417577 -1.7538168292159344 -0.7503625736642173 -0.9335978968802114
Ni 6.455583441613487 4.307290313250619 4.460039770303127 2.187777905190413 -1.0354110109639716 -0.10990103329821717
Ni 2.236808148099528 7.175646976469792 8.178595040488227 -1.8750129758119967 2.079189420056032 -0.2529960368498998
Ni 2.8338668344335844 4.4906913777910695 0.017600186251724412 -0.8805668372961608 -0.07283061080848102 2.51786847033147
Ni 5.519354881893133 5.789471656497106 2.836370261718607 1.1654080436811154 -0.34737326348090497 -2.6539644168575
Ni 6.048278484584221 6.129880850321534 11.231997851377574 -0.35566635672763264 0.38719270947068807 1.6473890991782982
Ni -0.2551797502715201 3.208848478406142 9.406048296911758 0.7423726134802053 -1.7229119121069616 0.8448339026709256
Ni 5.0315950780507475 7.636325333701188 13.130274146612656 -0.20614333816241914 0.4159317292765934 -1.1461913615433486
Ni 2.616040202167302 4.407776250404477 11.245971877828845 0.2107168164657145 -1.9071957311921284 -1.9246535216572596
Ni 7.486275759173526 4.62258261286228 13.029477002326558 -0.8027133193517918 -0.7932449748500403 0.4548734006471134
Ni 4.8027614442635915 3.058642841304788 2.4098953125493185 0.40368865024318223 2.518540299587514 1.871350439358745
Ni 4.884630034391318 3.747190916427017 9.753532633415197 -0.3810935385514856 -0.7032697339414726 -0.340807180227613
Ni 6.567618009220437 1.8363332237070673 4.980969297160708 1.087275818154063 2.580859983562342 0.30077767510955294
Ni 9.170916161253484 0.10965874442629796 12.23285192286314 -0.20877743335115656 0.6193540689634236 0.3858408234284839
Ni 8.139397630068025 5.811999748016892 2.6454699315047616 -0.3899180788216511 -1.2567922491220678 1.080499675772494
Ni 6.870452843391043 1.9869795080753114 10.1377641979319 -1.232091146830962 -1.7182384178906924 -2.457957910018767
Ni 3.09040616512649 5.1241677247033595 8.583974919770265 0.09672464381725923 -2.4285791997463337 -0.05912508829693044
Ni 0.6249810348126943 0.030535019565243973 7.416837094032672 0.3995440319471893 1.0106795696555626 1.4175383900966103
Ni 0.9077985488696523 7.633378505103858 10.560704788814672 0.010856997319161945 0.31743071028520176 0.17511397966044037
Ni 2.2318600464984018 1.698190305536846 6.486616943399401 1.450168774537122 -0.9008893509035968 0.3822415361129997
Ni 7.368889163304133 4.258497808593872 10.62221547521205 0.14791325087593235 2.7734991165907394 -2.2845735114549237
Ni 2.2862891641107916 2.8387873955805296 9.331062066283778 0.33788717836734067 0.4689954418707923 -0.6884807485577562
Ni 1.1138920296398316 1.692645494095138 3.808120499241184 0.44794967694408655 1.4402821115510294 -0.8957944528791928
Ni 4.93666313248999 8.597349482335536 10.58361293860215 0.23040709580579027 0.7734564793692034 1.5031473836166822
Ni 6.749137142725207 7.7811973028428865 3.1288866057228564 -0.9366374550374837 -0.5306306981840861 -2.0051519334236434
P 8.04702694674607 7.522647518994792 4.740464018891785 1.2290731859402446 -1.8708650150818942 1.025568056731621
Ni 4.357560822281728 4.996563620332939 4.4728708679058995 -3.1957876413232964 -0.04994830689366882 1.3340510709052313
P 5.942881166434811 1.0619048322981273 11.975133860731301 -0.48899373936959006 -1.0593901474873884 0.32256006109196705
Ni 1.0326660501096534 5.3790546281454255 7.404207041745418 0.041587593633799345 -0.6206974703651955 0.1518066723930676
P 2.3341544734767896 6.0304965313349035 5.012987829191149 0.1636100927858989 0.16111252317502578 1.212758765050937
P 1.121998103320341 8.225011721964322 0.3755049126019901 1.6039333419875086 0.13447049510746517 0.3164783736742614
P 7.007797088390025 4.1498139962455705 1.8013210443071865 -0.8363412918188823 -0.10161153959591533 -0.15356813516886456
Ni 8.108185115329936 2.3674233421270343 2.710554450839651 -0.19940627654890175 0.6088773378018159 0.9618653763663368
Ni 7.164777677219822 2.0412158425084366 0.4443973587349266 -0.8720346314554337 2.5324520245726 0.018930518355915783
Ni 5.637934897443688 4.643999906063445 6.713041705460887 0.14524418868420147 0.5308099040744277 0.3403310119221429
Ni 4.34643447879274 2.6898486193714874 13.75545530872573 1.0014315686947335 -0.8926988446730045 -2.8382042700786085
Ni 2.9065460930163622 5.348392922490951 2.5701743297748205 0.6966288315861873 -1.1639350586800148 -0.13426789217835583
Ni 2.1241126095922422 6.452462190139678 12.389972968009259 -3.450458494772458 2.558309609065652 1.0589214353810859
Ni 8.648207521055832 7.057525968488915 8.488592228776085 -0.3088727934128616 0.8072050365745581 -0.4822667050584017
Ni 7.18976604931308 9.161892072433618 0.8572921099477284 -1.193921577739776 -1.9825200549567406 -0.15179638798042244
Ni 8.702205171552725 7.739354172791061 1.6329267732497816 1.2699418991301483 0.5665158421164694 0.3244451939298219
Ni 3.116542056143942 6.6570969448534205 10.273495490331035 0.6433092942274404 1.0801003834515464 0.6757527594681265
Ni 0.5379238231173297 3.1445965988026474 7.30057414869385 -1.9559099085683798 -1.3809803884669183 0.7227818358324712
Ni 7.774963980046662 4.800558207929138 8.030812045339633 -0.02208886147923938 0.8481033174508169 -0.042406747100985034
Ni 8.771093027609965 5.268084958100128 5.547918004939041 -0.7118443629843612 0.06438119448954718 -1.0883258566851322
Ni 4.606370465501261 1.3415047032916443 8.982099725405975 -0.9827887567825654 0.5128648895602328 0.43189570880501743
Ni 0.12117616236465256 4.122365343578839 11.881095143901138 3.6093004767457515 1.8387938455789623 0.3688250055967777
Ni 6.494378761402651 2.7673749978900624 7.821330170690092 -1.0873866327003143 0.3774549133576338 0.22374922416964046
Ni 0.7609207166484626 4.270487086313856 3.115397291265166 0.3839261229042743 -0.21403148266124428 1.3580970561108416
Ni 9.054778065973613 0.5090283785909747 9.794297095678282 -0.15803774090444395 0.9578338866094408 -0.9764599863510601
Ni 9.730042462029369 1.2873877108266352 1.1566559288764307 -0.7148556390068592 -1.0966603446927565 0.4148114996292211
Ni 3.7079182287653873 1.154578460616069 3.7780105206854615 -0.5288026438364118 0.3769982854361894 0.1663848273175586
Ni 2.4629887181339463 9.310693146371758 12.514901976263596 0.43302647997535104 -0.44378346138153896 -0.31584022586963023
Ni 6.655517958813729 9.204937802318 8.626635083296117 0.2437557491985544 -1.284663264500723 0.8878836826725482
Ni 2.586388313166118 2.6997448225737397 1.6955528480414772 -1.991754171960499 0.9112832925434112 2.046870910428985
Ni 1.1943193359987703 6.798627338887864 3.408370806808814 -0.5606069328312022 0.5474917356054829 0.4571850794994255
Ni 4.4046641790820615 2.909832587215255 5.499091533722138 -0.09631609552493091 -1.0115668573565224 -0.822562492867235
P 6.22535442481451 6.912883503132056 7.541872592043175 1.5539865777557365 0.003332406807342648 -1.3642353077980958
Ni 1.061620247604927 5.914284994843886 1.1146062454182502 0.09400081712819294 -0.052651564757444806 0.030246457589367264
P 8.070831079309558 1.4794272978284204 7.948878276137012 2.0853505545614213 -0.6790198602551725 -0.08154793607682084
Ni 5.995556875131032 1.2793091776003065 2.673900860370603 0.4030111645601833 -2.105674096610122 -0.7448822672759365
P 8.470332907654303 3.15433673943121 5.254756296291824 -0.8744884923125649 3.478515915130306 -1.4940760174430332
P 2.743414802752883 3.3202496155669365 3.8397360226254493 2.2683675911190226 -0.5362920102349216 -2.2610759425536155
P 8.21212278940777 6.395104604232744 10.522143562886042 0.21330540312849713 -1.409732006678314 0.44639647352435374
Ni 1.590773354080854 3.5938823881546424 5.4568490670846925 -0.38075775247862165 2.6240835701376675 -0.40724808545966645
