# total energy = -381162.2960724115 ev
CRYSTAL
PRIMVEC
9.35169225472804 0.00000000000000 0.00000000000000
0.00000000000000 9.35169225472804 0.00000000000000
0.00000000000000 0.00000000000000 13.68714689834260
PRIMCOORD
 96 1
Ni 2.274303469310513 7.291149632545236 7.450256516823447 0.05315704363895361 0.31105797398963847 -0.06782158762966384
Ni 5.519340636096072 8.882452267630436 12.242591931408013 1.5230006708971835 -0.7407407343037372 1.30479577358454
Ni 0.65116580389917 4.062889401428878 3.3389384425648414 0.3099009775670598 1.7798428209660506 1.7221588359910212
Ni 6.0266418787088005 1.855244793573257 5.233335030381512 0.49019470165622664 0.17356000490975915 -0.4109440462540148
Ni 6.7766569386896895 7.066045051445249 8.774282180009422 0.391599580289132 -1.037930692062032 0.6932509162528899
Ni 2.693109649360439 1.0018093704007778 13.361324573257216 0.33477280110807506 -1.3395005240555768 -0.19863211738703856
Ni 4.090420783039876 0.9195659140224044 11.25963557232781 -1.0120990757109085 1.9761267498358872 -0.874580537805739
Ni 5.114178574854043 7.540764998700395 4.136488153608472 -1.378522670955045 0.1345378580102909 0.7525837496852522
Ni 0.5784030929953994 1.873620868595544 0.2587912464665422 -0.8545668136879735 -0.08048709891247428 -1.4142003268623127
Ni 5.682854972871997 0.11514177409893525 2.9992503833856805 0.07485869698210333 -0.8170325641879412 -0.40057427298391657
Ni 8.417691872486605 6.816934676664749 6.893230456852702 0.10306267022014508 -0.017622083957137394 0.06167587974324216
Ni 3.1677734864628446 8.414082119327011 12.050519397225951 -1.3153023295428186 -2.0346815674516443 0.11944882488765235
Ni 3.378728957380276 3.0219899579527003 0.3697116667410193 -0.7223486049497947 0.9365024721215163 -1.036773438529137
Ni 4.110265073725523 3.9174705889115424 2.2576396891160018 -0.6211368718954593 0.9913027077908475 1.2498171033558152
Ni 5.44596725969665 7.86036842870634 7.072285435599128 -2.096191096820351 -0.4526038878866463 0.004275744557218442
Ni 3.968456014367781 0.3062389267925362 4.626419563271379 -0.573695133473728 -0.5068791042904431 -0.7106999649672728
Ni 1.4882095811179266 5.630775399437332 10.964609324391114 -1.8641161263938346 0.4247863514537458 1.5912783722276593
Ni 6.8324304305130585 0.0060243600658307144 0.8405506617649945 -0.7073822134479494 -0.12102876778026254 -0.05008174714773956
Ni 1.4732936321812609 0.7072114299633271 3.6236722181506336 -0.40881542994678627 0.5090177479000008 0.1313913419615092
Ni 1.301306662341626 5.632692496322608 6.164718677740131 -0.408413052302045 -0.7344335611387868 0.5690139259479748
Ni 6.13859098511684 2.3504075398099387 2.54322259834659 -0.13108512357500005 1.1687666757407031 -0.14324746996914683
Ni 1.7764287323580732 7.298462655785657 4.832726308034317 0.04479170239339383 1.0315476713538236 0.24760546196194774
Ni 8.615414699049566 2.8591582947017775 1.9742207614427458 -0.55648751134619 0.8569623105033434 0.7439831525004349
Ni 1.2072286395812148 0.8415756072217083 11.630611587843902 -0.1041412479963045 0.2112678038731781 -0.1383420622477295
P 7.040655207330485 8.989482383981619 10.37860704637632 4.6557919138936015 -0.6328837280187424 1.9581588525035563
Ni 0.683968734360074 5.6645911181551885 8.699591150189827 -0.5730986375403098 -0.9825943813835724 -1.0263046777873293
P 1.7762791052841005 2.548953315279749 4.978097426921823 0.42570629216485395 0.8578706812502257 -0.9317186775796277
Ni 2.126153962693173 3.587383912035375 7.467365437563027 -2.7916999558694826 1.7188529115462396 -1.0088972809441592
P 5.17538539980105 2.515492960862577 10.07947447042828 -0.8947469854512847 -0.05980745907593571 -0.33825870277414644
P 5.157570426306161 6.770129457587625 13.063683592202842 0.2682686467382541 0.020414816210926133 -0.2192042851114354
P 4.841090461469397 0.5714856463317934 6.419504594470264 -0.07711869666087363 -1.9272395372168807 1.6816745027237296
Ni 5.439570702284313 4.832758103787536 9.679358582255983 0.2022902829649161 -1.6041943089583792 -1.3791371646105925
Ni 1.8960181712308508 6.381435726174729 0.10565541760905839 0.4441616706565641 0.1676446678665887 -0.3291405425229622
Ni 6.307379676250306 7.202037358302298 1.4073127684053084 -1.5932758622736625 -0.6955294278744215 -2.2918679882338076
Ni 7.092566450306932 8.865357374429042 5.9764784669902 -0.08149908511675641 -0.03501636817418485 -2.74575922747331
Ni 9.128270846783535 5.5435895737717935 12.646102483821068 0.7497161983294701 -1.3634410940315744 -0.40458596524647095
Ni 8.825266670296449 0.6010248362416653 2.1237524481559094 0.12208626251049941 -0.9963685523495293 -0.2156026838031061
Ni 3.659822119222467 2.38210977610793 3.777324260413324 -0.9896816272476567 -0.7594383107132404 0.45858016007473923
Ni 3.33851668125008 7.62185352110154 9.550028420867575 0.041728747197353935 -0.1807714350565338 0.47095307981779533
Ni 5.098458380394773 2.954975732197123 12.186350854978478 0.0030169324494528685 -1.106800518450552 0.009588929240015745
Ni 3.0110391264763146 3.073480374783597 10.998046299577977 -1.1171733770444436 1.1594040035788806 0.8614550561673744
Ni 8.949279459543547 2.5175596848218267 4.889075864092481 0.3704604843176717 -1.3166241336780358 -0.41524833005632356
Ni 7.424794664679335 7.067083089270935 12.104337450226339 -0.46772634535038154 0.8556142811158812 1.1443422241497518
Ni 8.48007701064115 2.9575942059916476 8.556958206756022 -1.078122433789569 1.5167197229844784 3.1842711560432644
Ni 0.12158789547952685 9.157681918511317 6.467875286808828 -1.3935883070389161 -1.1375277723310795 1.7195275690157614
Ni 3.239912439501991 0.17039344150182414 8.054734932966248 0.5971459082975007 -0.04016320248244696 -0.014398949034149395
Ni 2.8649002336654843 5.341424693450265 9.381525891513082 1.5349233904766983 -1.375926370982779 -2.813263026752239
Ni 8.830924444031044 8.747021062300785 4.317377934349489 1.6931727331713162 0.6302066954072114 0.7226034012730781
Ni 3.606966355341568 1.1016573872012663 1.8528975188503083 0.9626511054924259 -1.0585709940202026 -0.11178488058449135
Ni 7.545702692141497 7.574590069110375 3.1092272179249165 -0.24416995391783758 -0.8493772990672339 0.24020017063681212
Ni 2.766838390060547 4.502577909990136 4.693910725325244 -0.5025941037618441 0.192054721279837 0.7346788443803735
Ni 8.264052922592889 5.780701727558098 10.421886677522957 0.0029796514536142233 -1.0128899470433201 -1.2419179031133967
Ni 7.312396677049376 2.1347855745229802 0.22110766788648725 -1.2137329560387484 0.0012554696736559023 -0.13414910721230444
Ni 0.5829049975835566 7.6881383148715 12.112851230735393 0.7863497903921038 0.40598335981462985 -0.45149265710033853
Ni 4.967618855897665 3.916357737548869 4.756611950673555 1.2532590391578287 1.6654001910437382 0.32723072709475903
Ni 4.3895907657564095 4.869369978450261 7.481120841507192 -0.4041517059225298 0.10628554803281694 -0.9093307968027307
P 8.343495547180334 3.0746399846068866 12.45073160782712 1.8535661187921302 1.1358223596041988 -1.032825766735299
Ni 5.2540518339422615 8.974014685209678 9.73501050208175 -2.9081254205497786 0.21276932811936905 -2.4722010502013423
P 7.49358571193834 1.0703292185882067 3.809913037124604 0.37664141631740294 -0.1939311123669434 0.042498021263210686
Ni 0.9592591712397569 6.818814366781533 2.5698983001283073 -3.9846727965427435 0.9466133353032729 -1.021297197270409
P 8.578466163470404 7.778494364166837 0.7151435352223113 0.07014432222556952 0.2662559871835995 -0.040999325230497125
P 1.600691733976995 8.699766962001744 10.097267935031285 -0.25636212510865525 -0.002620982562614841 0.48602051567387905
P 4.987201299203858 1.4176978225082346 -0.010172770691727184 0.42659332275549755 -1.0867024621490962 0.681609989579852
Ni 7.412469134460823 9.177760001500046 8.121186186856002 0.10563454471237936 0.15596234643265397 2.12266985983717
Ni 6.514154940788622 3.547368021439769 7.253256576061618 -1.6161458248933005 0.14841410177175085 -1.6301243985605798
Ni 1.7254900653624512 2.551010687546875 2.098978880552072 0.7569505112943802 -0.10319662469484808 0.07628591634693314
Ni 7.228960879925282 3.143973430009043 10.63061551054583 -0.03158008879912626 -0.09458651442833388 -0.4382100810588194
Ni 5.53664126652418 5.633365818155486 2.964580855176966 0.02999886035493543 -0.2663935412027283 0.15920065086429355
Ni 9.317006697216001 0.8225280807049682 9.555886320813611 -0.303449051294129 0.6644831000915782 -0.29599028102323865
Ni 7.834857012593974 1.6327306311914251 6.877571983561447 -0.46646753324261603 -0.1641595375314657 -1.7708706993744276
Ni 3.687877195592371 5.8825603581650965 11.434324246021868 -0.08449750562344803 -0.8477101957774562 2.1841793892058767
Ni 7.3101148641712905 4.077562206370338 4.9425516451611555 -0.15847637110375934 -0.2007216529262156 -1.1989401140002902
Ni 2.7963523304016857 6.058708830999601 2.9613919281629197 3.3977125705289932 -1.6885977122061242 -0.09980945339017006
Ni 8.944631668558266 4.256721924068544 6.766829245437313 0.16703943018242198 0.2235214244295505 -1.216667098966408
Ni 0.6734564972442711 4.570985537872086 0.9606198424436971 0.5185804518877715 -0.5772537973592639 -0.13548633796648923
Ni 6.545202558637982 6.18246912455937 5.273712831462289 -0.614230117473297 0.5721488720325307 0.8431518869828124
Ni 5.546675632172483 6.761254701762613 10.735102901808688 0.5339091118250417 2.6945644497670496 -0.06868779228470107
Ni 5.577985097401296 3.943225149019114 0.538772492115273 1.193485518643622 0.5899103097810099 0.5112067851315195
Ni 3.2725030865516964 2.4330764981799224 8.791131123707974 1.470889809134557 -0.8187256356196481 1.5440896303569989
Ni 6.174305097335727 4.852275085248866 11.943773572315317 1.0720204346568893 1.9007291496311782 1.4811138008554106
Ni 8.733928693328163 5.994612333186493 4.552399984946236 1.135091394975445 0.11473984944775724 -0.1690754867758443
Ni 8.237989756645248 -0.09011945148461789 12.518483682091224 -0.28505589349892196 1.1714285388435828 -0.2682637616422477
Ni 3.807354414159669 7.838261028526857 0.8054107434424773 0.23015795590946167 0.18099794924504312 0.09057199395230207
Ni 0.3329894421112396 3.5405319344976354 10.583901002882303 0.0244308793488547 -0.5488649618039257 0.8412441284371384
Ni -0.1377027313463997 7.812347489653188 9.076795392660035 0.2714483300178164 -0.19683311650508684 0.4083248634636129
Ni 3.7830680697154553 2.484576266702943 6.41335866240683 0.6377842506441531 0.01609741978249486 -0.9403712110483031
Ni 7.609518639190906 5.301651946849864 0.6096573832406847 -0.3751074961713798 0.2584393193526581 0.3003981802829472
Ni 2.8282883590027597 8.359758139782755 3.1122655826957772 1.2314519705850662 -0.2789299831068422 -1.373027452168429
P 2.4815089116865 4.456324440748288 12.706147828606362 -0.7273239466771989 0.7904116191663032 -0.03833180570066302
Ni 1.991022011511469 0.7083504660639452 6.022481310883144 1.603493940457245 0.3302813409956248 0.2719597224365961
P 0.47143095713538014 1.9238020485291791 7.4957524990033075 2.7233762317924195 -1.28990008741963 -0.4748950951846789
Ni 5.546778500785838 1.685698615377804 8.068149000147912 0.07727296285055078 -0.5039315916263449 1.070354359808376
P 3.8723393227244896 6.5328022148824845 6.101128106470895 -0.21222965356581516 -0.15179818775263537 -0.5241134658908586
P 7.431714916850577 5.06216446326424 8.153611308955124 1.130899725491601 2.226217954334166 1.5837581525912143
P 7.232318137397547 4.4365643152917515 2.5391022427970635 0.16529545090812178 -0.6001728680492825 0.8342916083787052
Ni 1.4496899612620482 8.758710677454912 1.1433042129031763 -0.4425099939857541 0.2303423040061259 -0.5993251753370065
