# total energy = -381171.0392290977 ev
CRYSTAL
PRIMVEC
9.21787897917196 0.00000000000000 0.00000000000000

0.00000000000000 9.21787897917196 0.00000000000000

0.00000000000000 0.00000000000000 13.49129764350105

PRIMCOORD
 96 1
Ni 0.10931667161666603 1.794167984642124 12.599914309100527 0.2671769563359721 -0.5272383846730855 0.6326420443215813
Ni 8.510747924559558 3.6677572154601448 0.2014143451069886 -0.782337326798601 1.5974911859065906 0.17969362861132276
Ni 1.9128666135890855 5.614204562547233 8.523747899429786 -0.10247774425095255 -0.1781327118821061 -1.4625949161156164
Ni 3.5697527250536756 -0.39206958174873735 12.410024156422638 0.20292843076954725 -0.009308678995435582 -0.36599344968525355
Ni 5.371285795082817 1.3163868760315063 11.079120964411812 0.9661010117142395 -0.6631363562556966 -0.8345685161891755
Ni -0.08787219771884729 3.821870935842551 4.155481650237189 0.7766914413667333 -1.300992854898682 0.8386401151553878
Ni 2.1389719696067933 4.244261809045676 10.935681548007084 -1.241178710954527 0.7489027012892392 0.6117613442178303
Ni 7.780830169401901 8.298303465342302 10.943978560969358 0.09748774723552887 -0.49419456684423924 -0.2372611426131462
Ni 6.628816513171763 1.2738832355815226 3.064184319948485 -0.4412300988320659 -0.49892591088163746 1.3863753342302445
Ni 7.697297749155154 1.1059058250588478 1.0845857925286446 0.7645013270584446 0.8003039385793508 -1.1708508119632415
Ni 3.167678057348657 -0.06059833708917654 3.4513306324791926 0.7980524235410127 -1.126267883146544 0.24493588554958465
Ni 7.357904659211984 7.706174566711722 1.3750734249989465 0.9518691843855734 -0.4129793315164888 0.5215007108583599
Ni 4.920632904612365 9.401038339996727 7.1100349688922915 0.5775407324720634 -0.036790686465788244 1.7009688321769674
Ni 2.3503379369713837 1.9628090824587476 2.9034484752331204 -1.4874849944890771 0.9054461170363438 -0.07987774746324953
Ni 3.0110017665812805 1.9148761112290977 10.723126474240836 0.07962860756692093 0.5816436988968435 1.0088903389656236
Ni 6.514791348919692 5.526035549121925 7.368259102785498 -0.18556937066580945 -2.6620405089974155 -0.2780488660534695
Ni 1.416456171352483 2.943969349892432 8.136857843937575 -0.4952011537318826 -0.4561931478998014 0.14661895754454102
Ni 6.269245485916728 4.7144012958967965 13.05745848597315 0.3098171596040019 0.415239074084943 -0.18858321779146878
Ni 0.004531509357018434 2.311226476023806 6.148065403920723 -0.9095801938093754 -1.4902813262872916 -0.12227960946822812
Ni 8.098736383203471 6.517492187490902 12.475213919082869 0.43890170780920534 -0.4273325149143673 0.8404010637105526
Ni 5.752611016972847 7.110081980075613 -0.28831590015843545 -0.10212550311785638 -1.497252872509118 -1.4307572027797295
Ni 6.007605206035501 6.4208150716723305 5.017980160240242 0.3514721161406269 -0.9279304141817889 0.6253820203250584
Ni 4.437210454003181 1.9489085208021493 13.111194112085313 -0.038684303944075314 -0.04316136587882244 -1.0979415253980251
Ni 6.94892580007408 4.097679095873772 4.859335852288725 -0.7558498220310338 -1.0211002507682545 1.2642433060834743
P 8.876476495041787 0.3035207917052254 9.609730200639447 0.33914213382036434 1.7143061727158215 -1.0790233483372835
Ni 9.473767405958638 8.589487047683342 12.858096962537862 -1.4618166431886954 -0.004694063041559658 1.6713594939509668
P 5.381185797217556 5.57879868899087 10.508520422378703 -0.4319203913953658 -1.4342109656562847 0.05519052912921463
Ni 5.4931000671597054 7.951619033044777 3.250485030511602 -0.5817115760203014 0.22301183178298367 -1.7725959095956505
P 5.4761483875267585 4.158885812982403 3.379623829307545 -0.616897122782499 -0.6549414791497301 -1.251024236290039
P 4.478709345633159 7.562430960297268 1.358398281738478 -0.7910613369351602 0.9104034610416192 0.4231452163058971
P 0.5381453115710952 5.96584821379121 10.117663913517239 0.32548109139350395 0.12741255981941926 2.908118478571243
Ni 5.983214697982875 8.551537039500174 5.3947655766820795 0.2612320516064469 0.8336825140397964 -0.5501014053141882
Ni 4.280441984444979 2.3664968790032255 4.298071178190498 0.6245788076974728 -0.028933909425530816 -0.13709661987640262
Ni 4.5316568430837565 3.773744389152166 11.47654797748337 0.9744650674082186 -0.5245937479613869 -0.21936986415502222
Ni 1.4319790797276237 7.509354412539513 5.931934714858324 -0.9236058186645061 -0.8130699799957675 -0.853000497642118
Ni 2.848638044419924 7.803312576484423 7.61365194899569 -0.21716231498074212 1.908944595562435 3.2035577721870183
Ni 3.0468408804545266 1.278003627531456 6.504262687431518 -0.7293834003093891 0.6294657034761287 -0.39546137723738345
Ni 1.195420648830219 7.562283474231946 3.2550589421124005 -0.2548408033681224 -0.8276944147771618 0.9459836721390739
Ni 5.371175180533825 5.644485295333656 1.5978557356073682 0.32452232702466044 -1.2197290257211832 1.0261367847508973
Ni 0.9192834105157477 0.0820492635023531 7.343178175589583 -1.365457610240971 0.8401907474719595 -0.17618253013427077
Ni 8.762617252613204 4.629523065303986 8.953742601088166 -0.22324425950876392 -2.725990015266183 -1.590513983257809
Ni 2.751684392228875 6.048790689776669 1.5514179043649199 0.6869134040706363 -1.6603248334033598 0.9036283471013147
Ni 7.710866467164777 3.4057574382946947 2.472563326455358 -0.42716385054698686 0.47985089652805746 0.13294711648440327
Ni 4.285318242479687 1.2638910546559574 1.9456205033333767 1.5291906017579795 -0.30250468510298867 0.5236097867815628
Ni 8.637180354056843 6.924157358979067 7.716887585781548 1.4425660224891994 -0.404194129124691 -0.7856167688808212
Ni 1.0373708940795312 7.7990631342273335 9.228735900608484 -0.14087537019254448 0.7169310334786493 0.235627206554149
Ni 1.3462251506219636 0.3179071355894782 4.773167118624347 -0.9436771354930844 1.5427259172402528 0.050804998467009276
Ni 1.4533829949574788 4.79985103499273 13.345496927971197 -0.9478657196531353 -1.5045854016147893 0.40420441353733616
Ni 7.782563130669434 8.249891164400355 3.7289003292031038 0.9857984901431667 0.6334447427285348 -0.288562878210916
Ni 3.9100676029051065 6.085680641865334 6.906384366319858 -0.1890007649448616 -2.2221566397805987 -0.8140223166067079
Ni 6.873357627354721 2.510240485417679 12.392566415228053 0.140016621736675 -0.1785482021529699 -0.1533429065319359
Ni 4.609769150429921 1.8979059958379851 8.715122130639978 0.22608198606787513 -0.39867525618899086 0.18349654729718076
Ni 1.6148525828478204 5.334414278752317 4.959481656006088 0.06070091742448256 -0.03974591243937026 -0.2990972020833365
Ni 2.4188452143134525 0.7675368414817588 8.782214463542864 0.9115239477993076 -0.4107810383135893 1.226225174968488
Ni 7.668565620054611 5.87398283085377 3.5021921238933924 0.39555162295834456 -0.3845161910797894 -2.174694075423261
Ni 4.286590309793089 4.977507218552161 5.0400791035529275 -0.2767985385861362 -1.6116829040259404 -0.6644445335441589
P 6.74714642695542 7.501694355021852 7.181809062581242 -1.5099438377132253 3.1723170690051816 -0.055944376576103655
Ni 2.456979580078272 8.141894493068321 0.9684294546326708 0.1637820995873889 1.658981432001588 -0.020794568147848056
P 8.79729491372204 6.628189697394144 5.119745545312422 1.1880615194145732 0.04399208931023391 0.3472871315250019
Ni 1.8216925715828418 6.823322979694232 12.416001029219812 -0.7309893113439282 1.1853520909032103 -0.6603693350335208
P 4.008357847563137 9.154312588471186 10.144215092426832 -0.9963976058152518 0.18390432425856068 -0.9502180219353958
P 7.385318631603711 3.308407417303093 7.6274538793461035 0.04729055755584759 -0.8573659736996653 -0.8397140649458571
P 2.3319667039597123 2.8533115091148153 12.708775617490511 -0.050277665208629536 0.3641085739577149 -0.4634678271843437
Ni 7.740796920546061 0.9566407090739018 7.661114808392125 -0.5091439890652198 1.5557542111791207 1.787953108778011
Ni 7.506930110340782 2.2204488028181153 9.951545749205529 0.26295906159988264 -1.185265701836991 -0.3260343927938127
Ni 5.91489177822246 2.789293338885985 1.1546213942226127 0.09259056704422763 0.8057554486122254 0.29529196940463337
Ni 3.6897510749512876 4.045183274498224 9.245437775718292 0.45487725730185535 0.5085449220286403 -0.2206739276784264
Ni 5.144793288143639 7.558762244422383 11.007239943325503 0.9950881429752088 0.7423085930114893 0.7138089429098997
Ni 5.822307400716574 9.20394164945204 0.44995786238762214 -2.4337720568011827 1.5673529717603136 0.9555245217499737
Ni 4.982162247488886 6.873412934629217 8.63648163882238 0.04117056070103877 -0.09465310600021118 1.268027969936887
Ni 3.613758879794127 5.388099206529525 12.812308069982832 1.4234907510253034 0.8329055266644558 0.2133977057319873
Ni 2.971060696516267 6.675781607097737 10.370773968095406 0.5187920536779451 0.2658119576676454 0.022977177621463653
Ni 0.8501594570630513 4.588051827311256 2.310317593146259 0.23271877465810242 0.7501864530976693 -1.2801769465945954
Ni 0.2881896152150035 -0.03772509193355095 1.7877449664973508 0.8339653353875379 0.061490503205313456 0.8918112998617286
Ni 0.5211604475734505 2.264233728460584 1.4222662005382616 0.5200446951381238 0.4496484048027482 1.3462057039898945
Ni 1.3106625731211965 0.058673643936724446 11.102730718106141 1.1106486885520483 0.5478524613790113 -1.041120659754239
Ni 5.179535474406052 3.4186163796149565 6.486170756156049 -0.4417602603039231 -0.24052284408355348 1.8920339358500255
Ni 6.048661639469513 3.81589775019701 9.329151788182967 0.17319439404022433 1.0242832764819263 -0.09912785394211314
Ni 8.845209449193522 4.605077249976864 6.3350546900513125 -0.18684026695843306 1.1384479701525037 1.2424035845005634
Ni 8.171124387639324 4.3867978733003055 11.34986482167504 0.45684672232340034 -0.5838245085982462 -0.3539460316024163
Ni 2.5019075227269862 1.1634806978089234 0.5636419651136358 -2.0515891418402603 0.18496978940859757 -0.37807892009487787
Ni 3.648372015749384 3.5902993775288463 1.1297561653972317 -0.7952172680850627 0.24753758483848978 -0.7440970523704797
Ni 3.3415364747260465 6.913695066220288 4.14606466496638 0.4331735470761766 -0.24768182372583794 -0.0261036390655873
Ni 0.554357717301616 2.3992019139883785 10.507872405479194 0.48958175066257625 0.025747798388065336 -1.4461465407516063
Ni 1.944188966711845 2.9257363850669997 5.034480163798141 0.8916392930602386 0.2674597776837136 0.601759495810112
Ni 7.411700201538184 6.228299667031709 9.825576979026101 -1.2908778779518673 0.6311580035768872 0.45091210200652027
Ni 3.102645920420738 4.210552025240515 3.2585396132539994 -0.5090568286680522 0.6170938121743372 0.010041700506718189
Ni 6.213182345336203 8.778038764318435 9.084473327601678 0.6735462387351109 0.9356102993245499 0.03117334027901083
P 7.830864817062389 5.566723267392631 1.2082915733932884 0.2947615508224601 -0.3077664477225603 -0.6108159495854255
Ni 8.28881826776628 9.006983227093592 5.9166625327942315 0.5672480922968037 -1.177308137552811 -1.1870827004410718
P 3.621796870354176 8.334446769225273 5.785999096798022 -0.05820720446835137 0.6181952727686321 -2.2524979710766173
Ni 0.5773388116425082 6.929909315526625 1.0904013524418728 -1.9734561449822594 -1.8310460833127433 -0.38115421658609194
P 7.217138427741219 0.3385468886433837 12.47170651609193 0.9771924936417106 0.9937938496438175 0.06250994560876331
P 2.918703143326957 4.090867083231713 7.299898389720842 0.9621543683616656 -0.045126974245625506 -2.3843366849881904
P 8.753473116563239 1.3288678843093809 3.920557549301134 -0.2803325198813237 0.22069963871003928 -0.07484198481155499
Ni 6.17808987966865 1.588166822903621 5.523026833389356 1.2673116605961527 0.48473367854165555 0.24044159722365685
