# total energy = -340871.02569578856 ev
CRYSTAL
PRIMVEC
9.23854843842939 0.00000000000000 0.00000000000000

0.00000000000000 9.23854843842939 0.00000000000000

0.00000000000000 0.00000000000000 13.52154948642814

PRIMCOORD
 96 1
Ni 2.465768518638494 2.7681369631739723 11.354558232384342 -1.9424447842024095 -0.9878867401307632 -0.0876458214444426
Ni 2.634713849849967 2.68259724524938 8.064941252800025 -0.41207841696877423 0.2766638127804848 -0.4649557245837799
Ni 4.343752884180933 2.585204469964678 12.757379119138553 0.09482845523581088 1.1834224779806652 1.6764001416986678
Ni 8.106308700143254 3.765059462528642 9.530879900960526 1.158160875200399 1.715968133799277 -1.0137144998271446
Ni 8.347194606306537 7.181881088633307 1.471806973986798 -0.1607407416579038 -0.5379799394603056 -1.6396387658089182
Ni 1.3668154927950888 6.39175425252781 3.0943528722173625 -0.1705153045461644 3.546425691598402 1.6368038674632843
Ni 6.317374700847186 6.626866066056588 7.593188646012853 0.4179076220560416 -0.5213852683264182 -0.45908949561098994
Ni 6.026674542707513 3.8028081705359735 7.2001706425349505 1.0304104724255867 -0.17133162979987265 -0.7771089885201262
Ni 3.340465025105987 4.197312656421702 3.2823018971075144 0.4266974524335296 0.03647289811505331 1.3427136316762358
Ni 6.45411445298045 2.2369389178960555 1.8088319844419791 -0.5512152072036571 -0.9681650933321199 -2.0387467386599534
Ni 0.6380335406933815 2.1338644354590013 9.447249790952016 0.5163790733610784 0.21905824645187433 0.7381917426296384
Ni 8.52669959812799 5.347013027611234 3.379778743180975 -0.33441978864403055 -1.1128035301115222 -0.30499659828690695
Ni 6.7439923803289705 4.881140756763038 12.46093258400902 1.217277221746581 -0.3477154773116721 1.8260483729878358
Ni 1.3591290206800375 4.4961519755389725 4.894882173378336 -0.9372354936327987 -3.053808753653928 -0.1810761107811462
Ni 2.578100026387184 5.372335888269113 1.528611111542814 2.3178381870453246 1.839071010499749 -3.48533756603783
Ni 4.6909467646565925 1.797202499948678 10.624056986459783 -0.045582830836121496 0.5411174566480229 -2.3825186579428452
Ni 7.837587048207556 3.4629496973431886 5.328571961518861 0.6715891150087401 -0.5437651786835151 0.14784614508342278
Ni 1.634502427330684 3.1780790631273104 0.8215379000371977 0.12350911099995503 0.009065195526061807 -0.282486590109849
Ni 6.708119097609326 5.643256314680031 4.890988125305627 -0.6988980872363383 0.4102117960736806 1.56239151398998
Ni 3.860715390748885 8.101005773467726 0.2425469971323765 2.4269961715299297 -0.4791883232433941 1.0275683749911015
Ni 8.772204778398876 4.8465516322453075 0.506747303571553 0.21020131028187672 -0.05417082961544865 1.1976193383063374
Ni 8.098363548678178 2.272895347549637 7.707729090639798 0.17932827485210406 0.4613338115604764 0.04393141127562757
Ni 7.549196527121684 0.23637564692461885 2.0858073553531424 -1.8497009794097694 -0.9908527647376226 -0.4207124384946883
Ni 0.2838331452513108 1.1760579492475145 1.2147702378336924 0.010916389802187652 0.8413783400221575 -0.9254228172685869
P 3.5180206832540324 5.111078983291302 13.060179927730502 2.299476910929317 -0.4480008418969962 0.2041651313901258
P 8.19147887613924 4.764587232479999 7.130859358405188 -0.9276679045490218 -1.254157125492066 0.016267369701455855
P 1.9275768923616656 6.33324652668091 5.3397136506664005 1.8940463382943638 3.8275693945271105 1.435549224851734
P 3.88469866191556 0.7367640577596455 5.306221141821813 -0.8321905028753024 -0.26683911338057914 -0.4016258541768825
P 4.170816500140492 6.739530161541026 7.8749773005441375 -0.1841444652938248 -0.49907889151973406 0.28811602048148444
P 0.503070361381901 6.465856647761977 13.217084659053098 -0.2624414985335158 0.782844862562639 -1.1742755213740743
P 7.334391042569928 5.663045284957002 10.423721839977505 -0.350372455318545 0.5033890888593138 0.3623597095874082
P 3.704288292369016 7.3897576620236585 2.474457373234895 -0.19241159039862346 0.2657901032907745 -0.6594838471047739
Ni 8.597854896481508 2.9818892532291947 2.4374616069071027 0.6814089293126393 1.1432536190712634 0.001902873449667691
Ni 5.730264961770842 6.651939485912657 2.923048015791726 0.44507312672724 0.23177569401854278 -0.5178132347044437
Ni 1.8471276145036513 2.034217454409789 3.3340082037583794 0.6564933970178822 0.618227154447832 -1.0919858220352225
Ni 2.7509994562347653 6.349238453641431 9.531123798633406 -0.19729462952253765 0.15789530178930872 0.8084885312726722
Ni 9.109651990507492 6.235280961406865 5.777852723627368 -1.2537424065521503 0.2831100826264608 0.1469413738809663
Ni 2.418374766294487 8.470307499822372 3.9995929429391484 1.2930630585286442 0.1863288745396533 0.06999211291842139
Ni 1.711062276390097 5.119476823618925 7.540751570198164 -1.7358448181185457 0.37847975507772236 0.308245701351824
Ni 3.0131709774858826 2.8178033983789206 5.297985899942779 2.108891317995839 -0.7135929702443516 0.3749573437467607
Ni 9.072457595393072 1.1102610088588172 3.905645222283897 0.5867769063583508 -0.5344845247125376 1.1813637956794234
Ni 1.7778200257931756 4.968408083203875 11.871189858691341 -0.5128494629412652 -1.0383762642398826 0.03641401985265987
Ni 3.9853064519791537 6.293760971609119 4.4513071386475405 -0.6544257158555762 0.0011693377177528247 0.697299889511283
Ni 5.5449951158631 6.3194626127438225 0.5451371668250201 0.05096672085585416 0.16048928776873006 -0.512429087574395
Ni 3.951862907440108 4.295435277015406 10.945802362021835 -0.6441379607763229 0.4477470740149773 -0.3928625061619557
Ni 5.33358941705454 9.074499314548632 3.9469803347083716 0.6611617490278291 -0.29914425327118804 -0.1978402176133625
Ni 2.8235682524652086 0.6073920478280076 12.588089190078652 -0.0486702115121936 0.2976175322140165 0.006591537174588648
Ni 6.339057573508274 0.42785749265226547 7.7976340225960765 -0.052432506768103244 0.24568381945920267 0.08154305098081441
Ni 6.275810472426974 3.8172295442999107 3.2944986284612297 0.24540228366304187 0.9579300458676728 2.3355276339052873
Ni 2.1832906684103537 9.115241312177691 1.6565927199680635 0.9413454020361143 -0.516790449866884 -0.0017995151025839977
Ni 3.8533430292731508 0.40234062248186636 8.05866735470708 -1.579186988280764 1.9686978043616674 -2.3511419434037766
Ni 4.9855825443359425 5.0074963807024115 8.900059818713576 -0.2792356872727191 0.26639559808525737 0.6748629006640054
Ni 8.79497779974936 5.997138904063499 8.743817491298012 0.06849753065076589 -0.36211365501487314 -0.8775033678794888
Ni 2.324760557229804 7.776815878047931 7.341714439740122 -0.10216869765096598 -1.3472809393319443 -0.20453742712788003
Ni 2.6316928445835943 0.8139391941301907 10.099299133142685 -0.7074794011474461 -1.0909103295828568 -0.8827584456308409
Ni 7.752435349308002 2.9464039895345886 13.379424428290697 -0.31203782140440456 -1.218562773327224 1.8639279216424287
P 1.183337925241097 2.36269403620144 6.081600483411377 -1.8560875996624033 -0.7893746932613567 0.7795988448215154
P 1.209843320070523 4.411258955989444 2.695142269870808 -2.0946425213863087 -3.8196920486615635 -0.31047587623392336
P 1.6591231583242083 4.176756886642869 9.596337786629725 0.10119399244252249 0.1012659833310385 0.5448980067363777
P 0.910416429286766 7.824274300229444 9.098610077680677 0.7303084832268196 -0.5593776884097914 0.043919327090769525
P 4.951556971259339 4.100243230324533 5.030232447860034 0.06289766796548522 0.4623679092519456 0.06945218125455135
P 6.935960173692736 7.765110637459265 5.8538434781167235 -0.0232150046638826 0.5347511481103628 -1.3627504957224528
P 3.525199035217247 8.306554232707846 11.080314700180415 1.169135886154664 -0.16147299183823804 -0.045235989019664025
P 0.253220291885404 8.714445374957409 2.5911476280315195 1.3876822259671262 -1.0060564690612543 0.4619804440055399
Ni 5.808460033864345 1.8887287971167241 5.605899321117024 -0.24793250628406335 0.12152859023481652 0.1679362309650785
Ni 3.7538900577364576 4.7613722177011075 6.759895617226626 0.9846350659626848 0.1458280862121295 -0.6673632498528507
Ni 7.072579824699204 7.753580929286688 9.684782104113179 0.48005118546432163 -0.22923595831582455 0.09040950023250881
Ni 8.482419236532508 7.960432023825151 7.472819601316933 0.1434223049841143 0.6308546134038554 -0.07087322997179407
Ni 8.085688260526915 0.6835370860725574 6.103086574995481 -0.3981373814076498 -0.5101243507006182 -1.4086508577989931
Ni 2.468826478097727 7.077531686542554 12.561059045710603 -0.5369291295982882 -0.9165931347920989 -1.543591864784974
Ni 4.849249288324148 0.4549754032283598 1.5093431953851804 1.750886800053333 -0.7463943330450887 0.8509986367207409
Ni 5.6695399843522924 9.23200732306968 11.664756346532206 0.2842984465076071 -1.3974819856663676 0.5422636544373242
Ni 4.884198716222272 8.322139663546897 9.302001335912546 0.09170456489484852 -2.06280223694726 2.208533906790841
Ni 7.848848838481892 1.7488664156867197 10.626666876330578 -0.8704834849182298 -0.7055587870859655 -0.16525328481627669
Ni 5.061172345832759 6.150933016202034 11.611589425408518 -0.7608513890106832 2.2609440449614415 -0.5115132606283449
Ni 4.593609420661181 8.066074822666032 6.22991890802276 1.0465377170047523 0.38878962164416264 -0.5777947574643985
Ni 0.02676499803427344 3.333471444107076 11.804975335923318 0.5845824698101932 0.748362255404737 -0.7753192436095551
Ni 0.33048411831881525 6.360648060687211 10.83493885958454 -0.3649904623420359 1.2755265923067776 0.8799148055344589
Ni 7.3808239858995535 7.173714212011065 12.101854235109322 0.6660111067003304 0.9694586153325627 0.654013568018822
Ni 7.988544926044023 0.5841136778901529 12.812735576189246 -1.1301782739445438 -0.007862947687844523 0.46598133763481686
Ni 0.7350272106951867 8.616692296292312 13.074053455585277 -0.06295551778661417 -0.036574970910556365 0.37708364606114414
Ni 9.008443694809909 8.838556031680486 10.801189519099571 0.8832837220066917 -0.14717740115117234 0.4802651012473406
Ni 7.889018046121608 7.612545252233352 3.7147075270461256 -0.13898715203089612 0.826405520762409 2.3425053507747013
Ni 6.153067120839746 3.817626801873164 10.64370368309424 -0.3909393209973139 -1.2817334924484376 -0.8907931430098593
Ni 0.843096052297381 8.68044751752545 5.612754323892706 -0.6519983373610062 -0.7174879344233838 -0.2951590433711949
Ni 4.8688904418296755 4.033236040119643 1.4403423264754494 -0.601355575503474 0.282486590109849 -1.4625419513904943
Ni 4.4393995738529615 2.1395184269667076 3.174913936508781 -0.29503717308134997 -0.49358958627038857 0.3767085221099125
Ni 1.235129226535542 0.5331935716924018 7.681632963496305 -0.9598789420639275 1.0991818255630295 0.4384774757875932
P 6.3385586919046535 2.1468445957013658 12.101638053081086 -0.4235213686983932 -0.6278453942638864 0.1740030059844487
P 7.064921068228799 1.6620333010119983 3.844730854626936 -0.9782510168132119 0.01485969072065183 -0.09458317199422421
P 0.8639169684099909 1.4065412501204748 11.923248154029206 -0.7664584507848154 -1.349956172171262 -0.08958700433121344
P 8.329992429529824 0.3244153159962464 8.938798899089578 -0.8383873757146335 1.8095328918313158 -1.3129248304495775
P 6.361470291478365 8.472506274297592 0.16535245981057933 -0.3283995505918796 -0.16439993567704592 0.7648576819565989
P 6.9967405824005775 5.138905490515503 1.784276847140783 -0.24522564887586154 0.16215819083072075 -1.1237515444825936
P 4.803222841115991 2.3217580290598616 8.28347633926626 0.6237485984866936 0.2902382090308098 0.845612689818479
P 3.3024022064593384 1.7000684040140013 0.9725364274858114 -0.8286140983779536 1.16005423556837 0.7842252878499333
