# total energy = -340897.75247375155 ev
CRYSTAL
PRIMVEC
8.99401191454753 0.00000000000000 0.00000000000000
0.00000000000000 8.99401191454753 0.00000000000000
0.00000000000000 0.00000000000000 13.16364556560355
PRIMCOORD
 96 1
Ni 6.353540767339636 1.9138357545340672 11.189558812108006 -0.29956899951343247 -0.22298817763389983 0.7878906525166623
Ni 4.6413417616231785 0.38427094966689657 6.00946765366745 0.025628499201381667 -0.8374147273887191 -0.6377024895636243
Ni 2.8102059448819627 1.5638877524044275 4.721299425241691 -0.034616561632604896 -0.20836837083819598 0.42265156449893015
Ni 3.4794683452127537 4.077066460134797 4.726077943670114 -0.5985019081047629 1.0100697039857056 0.2468899239521619
Ni 5.305315683060854 4.312493710995663 2.94398377465082 -1.2415957438872876 0.0016190236606617278 -1.4231608784897105
Ni 7.059363825324363 6.11826641467806 2.5088858659349884 1.109961689787353 -0.6299932938448248 -0.21159921907066784
Ni 5.054697546399866 4.358372164794612 11.424872738421161 -0.326095070828419 0.46689073682296367 0.19008731314082103
Ni 5.737954628971622 7.972651751723194 12.257407031163996 -0.6299372437959087 0.0796481479509467 -0.1734918706759851
Ni 1.792416596273764 6.505908319938732 0.4190489941973366 0.5773466141833863 0.42554482688632517 -0.39122034257284233
Ni 2.6659240088218303 1.426081504784845 0.25600914728774615 0.3702439974314914 0.5942341339673443 0.45801657426178544
Ni 0.5209466500128999 8.940830131667406 4.743163867740269 0.0018833330656419177 0.13311063864546108 -0.011566878901992983
Ni 8.497056599243582 2.557546167559856 1.453279396235153 1.1317584739474702 -0.3844380295436863 0.5207779737597225
Ni 6.854786034673336 0.7588976205632358 4.809956096998676 -0.6601621041187211 -0.5459868689251822 -0.5515646201232759
Ni 0.7916789944911732 7.485545070818027 2.5851424937294927 -0.045257843396534964 -0.5500898353499623 0.04415741124350459
Ni 7.589911582851549 3.9019620458999937 3.780796518770279 1.0467436623679716 0.22505457324462533 0.5093846443211162
Ni 7.290860693062284 3.7033113089744147 12.515178105348276 1.0008618122341926 0.40659142571227397 -0.11514119865123397
Ni 7.797196571031194 8.788489561103479 6.83016762578518 1.020262071137675 -0.09028685861171548 0.6150988932314956
Ni 6.835269029234458 0.8628297218305384 0.5380532603100181 -0.8110174683421129 -0.111572250353053 -0.8096784378157152
Ni 1.7073692214212137 6.454849315387343 9.14165112362174 0.7007287126871738 0.26363577595193305 -0.3108661696938066
Ni 0.16360467084579394 5.0545986122709134 1.4378519679267159 -0.5200570364332978 -0.9389877004372151 0.3223096356440578
Ni 6.431626777118595 1.9646339327454887 6.9476537027190215 -0.15057382842723102 -0.17062226243767392 0.9393641099400273
Ni 3.440398358288105 4.429505803511703 0.4788249949106423 -0.229740665866385 -0.3996561320450214 0.17583568831781332
Ni 5.958164011997197 5.565215639819964 4.7728351124143975 -0.9368326017674253 1.1600871456888342 0.5492177171576541
Ni 5.407874398738057 2.8216013577349854 9.188118685188545 -1.0538969855833011 -0.0699471186130989 -0.49562230042970135
P 0.14900019461001024 5.661325649091786 12.346261571178887 0.3833784779309204 -0.7064884979890865 0.2774443997002512
P 3.994294570248162 6.069141122647114 12.357200987637553 0.5058977142137803 0.7317105057806689 1.3370281512556845
P 2.4261616443104854 8.535155232902147 1.4209495216957093 -0.10412453582575616 -0.6696710720504209 -0.8550902902916111
P 6.276201260533684 7.744653554545514 5.823399539142328 -2.01748962905339 -0.18811193458200506 -0.4801545438114053
P 4.76787851255386 0.9717759846334054 12.602281511280701 -0.007052021750774952 0.337222033979516 -0.57395070112796
P 3.8778401064589465 6.045513853850831 8.309248143450061 -0.935164470036383 -0.06030445331701227 -2.1223602990165515
P 4.845253995406704 1.0351657792570066 3.83300315921752 -0.2595168686875531 0.22336278736449916 -0.38452236172737647
P 0.28990038226229975 5.567796921184462 3.6011519274177126 -0.0751695433543028 0.022434160633800073 0.2684895044998086
Ni 1.5003360655698124 1.143444686390028 2.6570559132629668 -0.9657909366729883 0.22184712205092114 -0.5733482916572706
Ni 1.9678447949305944 6.588662221801921 4.743519131203327 -0.22440459836545223 -0.93511819017948 -0.4547651572040233
Ni 5.848446062988497 5.684853983759116 9.113349666933022 0.8238177054305748 -0.48337665029312876 0.4442578299147962
Ni 8.642813553226283 2.2891558637342486 10.166059165456883 -0.08270210428592208 0.48152237069320947 0.08656595811670252
Ni 2.2600512417986676 5.093389784832149 6.939465554446416 1.026268168122439 0.5058774024988061 0.4872194210779867
Ni 0.5813243501104732 9.05400178117773 9.019940559381611 -0.04008452672571161 -0.9148306435750374 0.4982204001741806
Ni 1.38148020065056 0.8637839864743472 11.363595637151292 0.024662278633370432 1.707876100819762 -0.09644259380046616
Ni 4.07888325050284 6.7849655216678 1.4734070950700218 -0.3748077055427739 1.0762378151723466 0.09214782307985421
Ni 5.476930420747139 7.832614989196311 7.998809935418325 0.10775621904107249 -0.20974596791201297 -0.5939662250179384
Ni 5.43478448181323 2.8991297387871198 5.072571345896954 -0.39255165978975615 -0.5269370513825828 -1.0813090590476668
Ni 0.7272863675604591 7.402332474356966 6.732336162669578 0.4103660622633578 -0.44688575445594647 0.5717020143030993
Ni 5.028156217805336 4.521883297918487 7.062492842002789 0.16956245371459183 0.49942187668144955 -0.12341757972741325
Ni 8.072638180047623 7.099180315222019 9.104516648019878 0.3050390214890682 0.8763013771515875 0.43686873653957664
Ni 4.523808016427205 0.2083489797664741 10.17967070279845 0.5879788970862518 0.06264801384852436 0.6739822978312651
Ni 7.886974796050034 7.046574340654277 4.662049574214181 1.5395657743447164 0.3153907970370375 -0.6157671229431138
Ni 7.269077196669213 6.176250808256147 6.964437427995285 -0.6841656661221701 -0.6778669775976519 -0.045476387165244256
Ni 2.4041263155891714 5.049984684257021 2.5872093176234348 -1.0898926869516197 0.12431412339975363 -0.056776385559095775
Ni 2.459034757157997 4.940959274150992 11.39558373924526 -0.9912111765183058 0.30762503704868954 -0.14040177299023562
Ni 1.0376481264925506 3.3455834867043928 3.749966845386229 0.11012214817008777 0.1596757907284992 0.38083719956630535
Ni 3.5906523181322996 2.5474009223363288 2.5860373978959292 0.5905479433650087 0.44294142509621776 -0.09537918553295832
Ni 1.090371023212691 3.368149462117363 8.258555195175799 -0.7200286985673664 -0.09170585044642916 -0.04497347938689674
Ni 3.7645785168313917 2.587577172702905 7.097350033836391 -0.46949140767060427 0.09951969006389312 -0.3641201439219407
Ni 4.016932497754916 6.729265607067352 6.038413980996706 0.7129766768165915 0.33547034139573195 0.02131573075864071
Ni 0.7237688095755994 7.440062353534889 11.277044463538658 0.17062611909241582 -0.2768507319803103 -0.1263085281219631
P 0.034143067302797245 5.521423796740748 7.998954739007065 1.6912156094449455 -0.4573205766360253 0.13632014672169426
P 8.506581257658222 1.5709120755600792 7.93462417075724 -0.3891614031612846 1.2675086070983073 0.5248413451958187
P 1.8024539133566155 3.0446708364884696 10.497967878273732 -0.7191105576284712 -0.1604862024449365 -0.09909982891765513
P 3.9641286549292687 6.021355938362892 3.539848743513844 0.8979906891995632 0.7887337172432481 1.8667695048562816
P 6.827956897703671 4.085547813189572 10.301592626314068 1.238661600959628 -0.4358053282720688 0.24257098486183387
P 6.234487034162478 7.729822429214311 10.082931112706019 0.49873024993106374 -0.4000718794262013 0.8367796649078815
P 2.5268765875844763 8.548871100779701 5.716563271489673 -0.8951233949540971 -0.5071079324717976 0.2522542735878688
P 6.936154858731185 4.054590424839056 1.4967591471075812 -0.7735014736745259 0.8716052572274989 0.18257994902018235
Ni 5.180244956041019 2.900361918393169 0.47692276143123086 0.19925740967586328 -0.4988585479788119 0.07931390453997952
Ni 1.4290225466182611 1.1403057762987063 6.973283038524841 0.8860399445955902 -0.24671328916498156 -0.5517160580994757
Ni 6.889934632486764 0.605132398542388 9.039856898940991 -0.2928751324330246 0.24663692740109136 0.46082293336232893
Ni 2.7640846527664937 1.5299533461736035 9.15451256038561 -0.4388510570769281 -0.08605816524234856 -0.021890629425504238
Ni 6.398267987638042 2.138461197315628 2.6458664632784012 -0.19246198402058468 -0.9439789830042195 0.1474630507123912
Ni 4.0149448211641365 6.786701365930337 10.31129356735848 -0.2688247763520403 0.5369322149220817 0.3063608256242853
Ni 8.189137613895452 7.153504146028851 0.4890071155822341 -0.8027171760065336 0.09430009353616663 -0.21006478470401244
Ni 7.4422838744304665 3.790130504136393 8.18257468354119 1.1452133139007954 0.32113309883745345 -0.08483329169631197
Ni 3.1779710842348368 8.180215554266251 12.288762854233841 -0.029293349647478584 0.20928342645329764 0.2661785969784448
Ni 0.14409486061629398 4.895989215536065 10.227651956538233 -0.4088426836402959 -0.8595616957994034 0.14976470226237434
Ni 8.596332500641894 2.319096928760067 5.84101251229945 0.2932584839143723 1.0361003237215125 -0.22609124203925582
Ni 3.7811724684602996 2.3903025195709424 11.299607740748112 -0.46468241631773516 0.19976443121926885 -0.15047278407299247
Ni 0.8457752768014135 3.5139513861586797 12.69821793612627 0.39484585514057163 -0.495101652039541 -0.9558405103284957
Ni 3.10772785267832 8.312814269098226 7.8673444660634475 -0.6591555172310778 -0.201526151105382 0.4479257656846866
Ni 5.634217697758708 7.689969963269762 3.4871816096663855 -0.9579976658808145 1.021529367885873 0.5335920948052553
Ni 3.056704824173824 8.343393908956376 3.471977232848679 1.1241359244052058 -0.10456419446633605 0.4516057856394352
Ni 3.2698898840437476 4.134628135161903 9.220936035163373 0.6217781050238841 0.06130718354991377 -0.32539058856222675
Ni 7.234117473101969 6.113175804042851 11.367347039440949 -0.2046983781857765 -0.22880966941168338 -0.17774010442937774
Ni 0.5817857429118625 8.973973064866605 0.2866238637916162 0.08098409315355086 0.2759981541720279 0.4777256226549385
Ni 4.626753474608497 0.43381446324296175 1.6532090816277403 -0.3600467451835154 -0.35694368077815947 0.12349008483656151
Ni 5.912519402503046 5.753145514771744 0.3490593937714087 0.254302157255833 -0.6454348252108756 -0.5104742778408692
Ni 7.8712352755348105 8.993481076293762 11.283034475346167 0.23844770672207966 -0.7187706577905493 -0.037969537265237836
Ni 0.20609957743455545 4.862765336231357 5.839774936286368 -0.8332461978333262 -0.38306300357303064 -0.7948773682471407
Ni 7.875525419126674 8.891569929460614 2.49020620298752 0.0804575312261195 -0.034632759582521 0.5478375489806758
P 8.458508264998866 1.703987473013371 3.729247340579988 0.45921959343095103 -0.1608189031940069 -1.1874315991400584
P 1.8252177570274917 3.1657302342798537 1.5102654545119885 -0.488491602922191 -0.11299612728377313 -0.006579967210362861
P 4.7558715069036746 0.9544984881135504 8.103289771999558 0.3689677018222291 0.5459213057945694 0.6772056898645691
P 8.423467595326114 1.6732459409442073 12.559604925655135 0.5749958545630226 0.3466672385528159 -1.353104487992257
P 6.203925382327773 7.85304038981921 1.2694175127856788 0.6526585966528243 -1.0000372594503681 1.0293259811121565
P 1.9222361614833354 3.1131332537238348 6.0295683704671506 -0.9314271144811379 0.5539135799714268 -0.46571625689888824
P 6.929966978665771 4.141526542153433 5.998357350986047 0.867198643519371 -0.7978472495087421 0.36616571359705974
P 2.3929647470409465 8.43541164289424 10.13145200714918 0.05966759106396176 -0.49046595303974244 -0.3452168792595345
