# total energy = -340891.83747387904 ev
CRYSTAL
PRIMVEC
9.04240169469097 0.00000000000000 0.00000000000000
0.00000000000000 9.04240169469097 0.00000000000000
0.00000000000000 0.00000000000000 13.23446890015393
PRIMCOORD
 96 1
Ni 6.279694865367824 1.8998990429598797 11.33660653235544 1.0998521121571767 -0.3458167176270625 -0.02441905227431278
Ni 4.604635143255107 0.37581306984086504 5.873643099655453 -0.15724455557918723 -0.7167302303217528 1.2696541926864005
Ni 2.507005900055336 1.4737306459549817 4.787846863159097 0.5724178094232013 0.8044002201359114 0.8764633566507486
Ni 3.3964527110672136 4.547866944731942 5.074611264278033 0.40267435004605495 -0.543150942138284 -1.955168145306349
Ni 5.136662938175056 4.58257168285426 2.7490511030544384 0.3435052958850665 -0.3332057137312713 0.11413358332232601
Ni 7.256907228285696 5.942738804557501 2.6721056891466626 0.14616412939530957 -0.0035159835730584604 -1.7226956823310977
Ni 5.067045486688939 4.577851549112767 11.486090093531905 0.6275471462971772 0.4180752579821574 -0.06493835254459784
Ni 5.784976020289637 8.136172294866691 12.62792028552497 -0.9525068179695725 -0.2859023006596173 -1.6510326094681567
Ni 1.758367369929524 6.677750435165248 0.4466557667713737 0.8724526928294588 -0.6985214206232099 -0.9335675578629083
Ni 2.937740709971065 1.642642711646717 0.741965237594736 1.4441845319292288 -1.4426380133777155 -1.1897093394306415
Ni 0.735626513930394 8.886981001425374 4.703583433471646 -0.8256727563614426 0.5845906973403093 -0.32861372348521467
Ni 8.676076021757599 2.33138437222531 1.506850251041123 0.2604203543384289 1.0547855588358415 -1.2755003670545324
Ni 6.836019593934116 0.7507065274183014 4.757632581772461 -0.27545282319151915 0.49593366102253295 -0.6697582324475885
Ni 0.916302744368647 7.363417679130608 2.6463248973643445 0.11393149461384895 -0.5543216140431229 -0.008183564252056874
Ni 7.648479395989921 3.8098984487344096 3.91760159237722 -0.008168137633089158 -0.6480519511187484 0.05192368545248477
Ni 7.730575361965043 4.055707099364182 12.640321035358463 0.33927531696411894 -0.5752725052631769 -0.47885279428084626
Ni 7.994089035326315 -0.0035527596686446943 6.584201363065654 -0.40302890517199624 0.3265244450563538 1.4576913081664122
Ni 6.9432896065305325 0.8069602132788396 0.4845135904026151 0.783282978541322 -0.5719077025560021 -0.5036847657228616
Ni 1.6462144603591493 6.492471622208949 9.195825139268404 1.6885856280212659 0.7471659211037907 -0.1554553248892484
Ni 0.23316646866812224 4.843074236414924 1.2822912446498724 -0.044865235943806606 -0.2345781964643444 0.4532700607157355
Ni 6.336381682274756 2.1327137621978407 7.161978285670869 0.48906238782399647 0.13349887522281526 -0.778222533299279
Ni 3.8708442368908496 4.390067990856863 0.8365297714168772 -0.19034905144263992 0.013313172169138363 -1.7951897357357665
Ni 5.994506554883261 5.63311792439954 4.6826991022659925 0.5310785843547822 -0.4819625435544216 2.3151233592173224
Ni 5.104679962995631 3.0041842784241095 9.39251636754106 -0.04442737707543962 -0.631081641812997 -0.21804137515158578
P 0.3660554140545721 5.578619368729086 12.290480456218152 0.545066671103758 -0.7477261644826348 -0.2651987495636788
P 3.8220604791602866 6.13584833747574 12.434128051270557 1.2329162138354186 0.8640822093775763 1.950109499836519
P 2.513317496514267 8.527807759383542 1.4008687807017233 -0.37286626554568686 0.3420173984856303 0.16504425412926416
P 6.40105293997429 7.764041291040263 5.985063574679734 -0.6314436531381061 -0.302955142376846 -0.8455088172507632
P 4.554748212504502 1.0780532278319108 12.520389851756608 0.6591485752525422 -0.22104133832017417 0.3050927575451391
P 3.921472644589352 6.172714209629124 8.235188403096759 -0.7533028872394639 0.6904720679561721 -0.6527529561388435
P 4.688946497672117 0.8774050445299887 3.794441367091291 0.8225249547610802 0.7045709692513995 -0.4358163840156623
P 0.14959749543919018 5.459024562474326 3.697618041298604 0.8444672633601262 0.1658883472971143 -0.5565268492245576
Ni 1.4080556816552452 1.1584944342769685 2.5301390765895526 0.7521474334787821 -1.1950672613084452 0.19261753576184246
Ni 1.737081556083788 6.528822077459527 4.89413306243928 0.8215281380654497 -0.26211496843203247 -0.4700699058818936
Ni 5.709254947586072 5.45736076054246 9.212368213368137 1.001026619946831 -0.016554819034887615 0.598570042338537
Ni 8.617942420562086 2.4324874667916534 10.000348425261166 0.12230094962446679 -1.1728827547916059 1.6114486765279474
Ni 2.2940211679727267 5.140496916539794 6.941664686926421 -1.2917520530267044 1.7183867705430986 1.3185007818754582
Ni 0.6125241600160086 8.925691523546696 8.94921442759865 -1.3348509410987077 -0.4485767690051243 0.1611444048542257
Ni 1.2654570052120615 0.8837925971640702 11.460150155477843 0.6730335607647505 0.7239912827595403 -0.6760229824103777
Ni 4.256430334601074 7.025132385255152 1.4316120425938714 -1.1060057904633984 -0.04717460080327359 0.7128712615869788
Ni 5.580608697125884 7.704578456779617 8.073595257424877 -0.21355274325261286 0.41589033451569657 0.3229729802596696
Ni 4.878746511530229 2.7306244966590096 5.22355228134628 1.1820538797679128 -0.19255377240344257 -1.2379185521460165
Ni 0.39722728579221234 7.429372957886257 6.6437428662219915 1.1962646240506558 -1.6293643804661033 1.3247182235400798
Ni 4.821155454442934 4.4833041958540525 7.001708947623039 1.337119168307594 0.9885017480069426 0.5899362779229388
Ni 8.048831735845468 7.056229205057822 9.009549853633345 -0.0922151859826799 1.0736821386300284 1.178249418420158
Ni 4.645868495479642 0.33917416197275246 10.268796537286676 -0.9815579696992579 0.5086860755921948 0.17850860716428613
Ni 8.10614247847685 7.18247921904005 4.517479953470858 -0.31543913377646965 0.471032269795163 1.067379336340452
Ni 7.088845148363502 6.030893179741052 7.203812957615345 -0.20421398235019025 -0.797103172253866 -1.9549277471607687
Ni 2.428382216372807 5.320440712431953 2.5963113729884886 0.029471784206871823 0.4182698904914667 0.550319177751949
Ni 2.430751325645357 5.069351299148864 11.325025928365536 -1.4549330286949846 0.20231573688621288 0.35451398829074426
Ni 1.2626538606529376 3.3383191098717013 3.6092249467074375 -0.8201675102724972 0.5277304938181557 0.35904787160535584
Ni 3.7607439525298982 2.5750499736276224 2.882864181905219 -0.2184794911302689 0.679028859116237 -0.07344947533940253
Ni 1.1784781422629822 3.32602144341877 8.227630763669287 -1.1457918121120847 0.1737446101167395 -0.29242338960758674
Ni 3.3283815102895167 2.8135523636000643 7.059530585956327 0.025824931482903907 -1.1716162293743562 0.45058994278041115
Ni 4.1431290400016385 6.9532091213091105 6.112074958893827 -0.08415477757204862 -0.1261552903735505 -0.25110499047477397
Ni 0.6229527620161307 7.52077355531731 11.173836065968727 0.4997882588819329 -1.1577297012002512 0.8202662406338905
P 9.275424498105544 5.585808078162969 7.942626918181518 -0.480891679087746 -0.47526199160579446 -0.20039229461125488
P 8.54969941415012 1.5877824599041175 8.013934394564734 -0.04687146774055798 0.6474199739617044 -0.0321704140849575
P 1.7315114365727544 3.159794971062711 10.455005813388569 -0.05820437625487395 -0.37870986881065744 0.39794300600865656
P 4.054269357477405 6.211822597429807 3.923040597062101 -0.6839193544393188 0.7722508890968764 -1.3951528233125585
P 6.859267608971239 3.8169515221412382 10.407626340658108 0.5836347611849433 1.139346056486741 0.37279787420159666
P 6.248950699235496 7.956897636708001 10.253047386065301 0.3385644069400234 -2.011675336364458 0.0920928014722027
P 2.4384011975712245 8.488835007609913 6.031198812922015 -0.46312818445673787 -0.3685000181571912 -0.9282096359851045
P 6.996395632323228 3.9658527526415486 1.5301299144845584 0.1348363630873162 0.29171633623823306 0.6541786328417767
Ni 5.690718023888638 2.8547043342083667 0.22012009134585048 -1.2966780295734122 0.434144138519562 0.47084972147071164
Ni 1.540056663184579 1.0434479561294336 7.1834973934831385 -0.49195359332886246 0.5877729517230329 -1.7960816514224163
Ni 6.870796671270862 0.615552460380043 8.922480566666229 -0.6849722211838655 0.11310951293318584 0.4350705069885733
Ni 2.6505721134915077 1.6264025580074046 9.186772790822793 0.5617978678155099 -0.06388728557226417 1.433039571056003
Ni 6.648118484454765 1.8688022231572095 2.5482311141182477 -1.6439582191198787 0.821376957199566 0.9425769604503702
Ni 4.10639880387531 6.955216534509516 10.359134652505803 -0.14843492770735728 0.40423115301021356 0.05224095958258745
Ni 8.192660178933943 6.922139428711851 0.15418380163398934 -0.4895984628331246 0.46194599122317864 0.8289815090197014
Ni 7.708828385627322 3.963456516163588 8.364449536879592 -0.38041348176532547 -0.11998952788247078 -1.1723587639673358
Ni 3.0975199498411383 8.349446383807017 12.333890314556822 0.37577135500762376 0.13220946698743036 0.264823368502131
Ni 0.1131710840134628 4.788928334414811 10.185922020516264 0.3201388532449841 0.10037432475470455 0.24541976716453862
Ni 8.758958676689636 2.085403915961269 5.898616404956708 0.11300409770357314 1.9771755028153755 -1.1709791100109896
Ni 3.6130363190676658 2.838617901399716 11.585705713001552 -0.7137829747679707 -1.331122584404527 0.056827036291373104
Ni 1.2505822542450968 2.727369232009704 12.86258055897105 -1.1392699518331668 1.7303560270898326 -1.081553056737673
Ni 3.265554902557922 8.625167299603183 8.04764266000829 0.09766643890523824 -1.4602953214481624 0.5564360892829642
Ni 5.769884251679384 7.818250489853001 3.7424963856901807 -0.965800449754685 0.5478920563676951 -0.8407461057547971
Ni 2.9675806359230315 8.423295679337231 3.680572209658588 1.4442675785613384 -1.0122849664694695 -0.5478295785608759
Ni 3.213533964981661 4.401334823504182 9.124941751529779 0.08311862299805041 -0.6921389141356338 0.415095349418227
Ni 7.414570546133721 6.034935133347273 11.253864938891539 -1.486145963962679 0.7126771432983016 -0.5647422951558144
Ni 0.3921147118124422 8.820636899392168 0.43198266136462965 1.0427324843260493 1.058781824479428 -0.05304751464428284
Ni 4.880916687963099 0.36528319294054246 1.6055128013606677 -0.41866841148146605 -0.291910197416594 0.2125476990268662
Ni 5.855533881563331 5.798331647753592 0.28739284804428755 0.9712025946068628 -1.1266370935605048 -0.16780561892448517
Ni 7.95370566887132 -0.06283293741285667 10.939824132731966 0.10606391894031411 0.6288684362117621 1.0879422480934682
Ni -0.13444966393775573 4.814445992304644 5.875667693419285 0.2362761529920576 -0.3424498580373586 0.0602777138441349
Ni 8.174078043227492 8.77912323271172 2.521443903015186 -1.0999472429741444 0.32730117532137826 0.26983650544600624
P 8.62667738070439 1.6383385283881913 3.608219431626874 -0.5739679275191406 -0.18748844206539322 0.9829224541469523
P 2.0800960261025403 3.4315462724670867 1.4749947737271285 -1.0687145102121078 0.39219710466381486 1.1585863927735918
P 4.619274791775179 1.2697702308723913 8.14085264204025 0.5924855267073538 -0.21110685281528158 -0.10073427919728457
P 8.521704138166093 1.4711987734499663 12.497785655727904 -0.7390882863019788 0.4481214266352605 -0.16563817895952118
P 6.562351303347373 7.678346449147298 1.4011861690050305 -0.951802078593064 0.44033278382877716 0.7748988682426847
P 1.6711262773281395 3.3604006550761563 5.86318737044992 -0.5294284503458688 -1.0591860018963823 -0.5476228618667085
P 6.7498726319509705 3.9853029589211486 6.111452841649737 0.3796449790304171 0.2533125396490541 -0.7229188756309679
P 2.2899430447592914 8.590950851178262 10.134784525596215 1.637759032287702 -0.9815757103110708 0.4371906386553696
