# total energy = -340888.3008141276 ev
CRYSTAL
PRIMVEC
9.09491944343790 0.00000000000000 0.00000000000000
0.00000000000000 9.09491944343790 0.00000000000000
0.00000000000000 0.00000000000000 13.31133393402072
PRIMCOORD
 96 1
Ni 6.506278013341671 2.1813891492796924 11.088993292407551 0.19629832704753936 -0.32433000850819627 0.6046730699124813
Ni 4.911211037308314 0.6771676858293372 5.929840198571519 -0.3761778464174231 -0.9927947189553419 -0.6838882440910673
Ni 2.8561412244987294 1.59591280354374 4.483949910611456 0.4580286584466435 1.33137275274212 1.39655536008704
Ni 3.4006904326354674 4.475364306635088 4.689543293627347 -0.30792431345666327 -0.5975629412302612 0.6260975583348443
Ni 3.6470263263854017 3.100976456536692 2.5986122133613834 -0.5945719769227373 -2.8576657212373298 0.1452668143920208
Ni 5.112463415262849 4.69925393914172 2.6505132807888665 1.212238373771093 0.9812247547295553 -0.06460822289868874
Ni 5.037548563617354 4.739762710445476 11.537212751522992 -0.5777261090099921 0.515170397764958 -0.26517355275269816
Ni 5.747707160319444 7.8698792889528075 12.181680563902503 -0.11848594675375076 0.12335741591343917 0.5259006396982684
Ni 2.1209625043443197 6.621064991928265 0.34307400465527566 -0.5084274226141695 -0.9288374993770907 -0.9122893652104224
Ni 3.158974757974511 2.0214186107835657 -0.17883794892936425 -0.7503011242986627 0.5797148573052467 0.724114952821598
Ni 8.14512793168672 -0.24471245062516536 6.683767185714155 -0.22979517325340426 0.6985890406363517 0.10846121552789709
Ni 8.871575529153295 1.7412132369404154 1.1423409843222672 -0.3882617741651507 1.275923313524564 -0.2744884023957208
Ni 7.107725037660783 0.844837983145796 4.662987038277137 -0.9874429677251254 -0.5751043551164289 -0.40951271312412696
Ni 1.0240060776517939 7.5358865613848245 2.4656717755196706 -0.8288544965235338 -0.24739823104714817 -0.3367702911540781
Ni 7.768734689565951 3.8518530076902664 3.6667268314417703 0.585999661872694 0.20157294518291738 -0.02332761898234692
Ni 7.671728278536348 3.9810463387117845 12.831314290538984 1.228018519423485 -0.418902381869143 -1.5385887551434276
Ni 8.663129069900767 7.619186928778423 8.952631270422566 -1.057595774591127 0.8856972165441908 1.2871772891718283
Ni 6.758971255798683 0.9710281717594784 -0.11094710358784186 -0.3091291323980418 -1.1941519485830272 1.7346119741527095
Ni 1.9725243237317047 6.654825332987884 9.341454538978189 -0.20295645579400529 -0.676093687747313 -1.6966768896698328
Ni 0.3041568442581567 4.7286760036158215 1.4333374801124101 -2.1863393729716734 0.9542050316076017 -0.6696867557797048
Ni 6.8868549184170265 1.925312596781145 6.930293163280938 -0.8226532528088284 0.593264056744591 -0.053798019657062185
Ni 3.628318077042828 4.382723456949401 0.632939092463787 -0.2651339577640144 1.0064009968848666 -1.4112618130592793
Ni 6.1365786319482405 5.524044900799474 4.748552040617893 0.07819264645134275 1.750951077632365 -0.893009691045204
Ni 5.828315431550962 3.1328268645083472 8.941396316405609 -0.6241581752202864 -0.6881884141283181 -0.6110887436308378
P 0.3848324178937268 5.890688389252164 12.568241925986811 0.35644617231645065 -1.3242356274767066 0.018850042826967537
P 4.069812752704746 6.548660338055523 12.618239426769957 -0.25105691084565795 -2.109311950473025 -0.8007307417041242
P 2.5147179477266217 8.489088690989979 1.195183375914532 0.6421484411501199 1.6525040518073604 0.8704423472676494
P 6.497555985573306 7.73806662112494 5.5868334963202955 -0.005264590833048998 0.7416802153988711 0.4156036565132133
P 4.854194987172877 1.1952361264474378 12.206399645520483 0.6551978181349103 -0.1280262821440182 -0.16444287309983938
P 3.98562108320343 6.458920767679648 7.952443877361568 -0.4865043972888331 0.6457145612348234 0.6561709806814571
P 4.929109838818371 1.2911238623826622 3.604629449800403 -0.34777435557406555 -0.31778372274924627 -0.13741183712397625
P 0.4094696452365068 5.498879258635691 3.6604567939615706 -0.7874173124246697 -0.5052765356900137 -1.1361126371511079
Ni 0.6318131414338352 -0.04848683465976183 4.600849638990117 0.062447724912260194 1.918206223370019 -0.23680528602265025
Ni 1.70990852413675 6.8617074660921755 4.669522647405758 2.030205019737529 -0.6780983768821677 0.38831062512521514
Ni 5.843867743838663 5.757520578423789 9.112592713999225 1.722190460559905 0.005137321226565346 1.0366862781319695
Ni 8.73361469576608 2.5932161976419135 10.106138087373846 0.014653745357432827 -0.08270133295497371 0.24310860253285876
Ni 2.4838043164600156 5.49896111291089 6.784933612907731 -1.081631732494408 -0.25882755593001233 0.09432400479556659
Ni 0.9245531332857045 0.40336513529059737 9.302892080440262 -0.08122834795387301 -0.185402506070642 -0.2376619775959907
Ni 1.6449344194681317 1.3843649767531374 11.406934396609122 -0.2232306326620091 -0.8771092177648636 -0.7131054890849718
Ni 4.2311657189597796 6.775305731160503 1.5174391099110078 0.4134279890181331 0.9265934405379204 0.8866541811408213
Ni 5.6843610462353285 7.839693251243521 7.871790131532717 -1.4509249359768561 2.093390394146762 -1.292084753775775
Ni 5.512230600412502 3.0870430399140263 4.789324564586177 -0.842587015618278 -0.5767709441855744 -0.2735383797776257
Ni 0.9843067541805567 7.563944387938952 6.847975956681666 0.45926253085374447 0.07135788291769646 0.592344116033483
Ni 5.4741865522841655 5.056993501436714 6.879417093277329 -1.1032184575262485 -1.1091433076511157 0.3492812791368952
Ni 0.7128843440661977 7.730199515786424 11.30124233748902 1.8113887140931322 -1.035653723102397 -0.347035420525512
Ni 4.724937991715094 0.11638950339659064 10.080659579980415 0.07246114328420424 1.1471784080469662 0.2616696533644977
Ni 8.40137728765513 7.261219993496768 4.444507973361121 -1.685285102893123 -0.6514715183232587 0.6241093242602219
Ni 7.374670018921788 6.497364992264509 7.205744622718954 0.7717196991837548 -0.5033950023965846 -1.2395974825103362
Ni 2.3116465858787896 5.1153465047337265 2.486862937876597 0.7663898023304091 1.662662480397601 1.121632441257062
Ni 2.4550188963485686 5.13164460041768 11.236470140032557 1.001826233029991 -0.20107106584583434 1.3283838453171253
Ni 1.169897680813791 3.2252403412073716 3.5320956480712367 -0.5488744748856225 0.29977057400127727 0.4613798343070635
Ni 1.8129084870947714 1.1896154662171456 2.3831944983377884 -0.3042306666551599 -0.20785826397099688 -1.00009690904371
Ni 1.0325371121113633 3.7176483760427113 8.303103954343845 0.6188976981522953 -0.24269902579926586 -0.28151959821088934
Ni 3.875117811685553 2.668704029213797 6.851277412448003 0.040692849733671856 1.375117244817922 -1.1347527806891038
Ni 4.153113120098346 7.2230577114153665 5.90550674153892 0.1740030059844487 0.6169696278916471 -0.7159604420352637
Ni 0.8132285905400033 9.119475749051468 -0.0640882595125821 0.21541422194138385 -0.6404296586868002 0.6522713885167347
P 0.2056279437098629 5.848915424142567 8.122363348262091 1.1767414664160638 -0.8024281840112052 -0.18896065573554552
P 8.652824526145233 1.5780503817115499 8.06408583279665 0.9491684976249589 0.6982871931252167 -0.6003446177404564
P 1.967021897454477 3.1782650821629406 10.291032343175946 -0.18702461505509727 1.0086748805207082 -0.20757852794704898
P 3.965794158766478 6.363987998288405 3.8658773735075975 -0.6706606896571999 -0.4791579842260909 -1.0354580621518232
P 6.864645125079853 4.258959792849379 10.53532188004592 1.3690952069935582 0.4468312470689273 -0.5946187710002727
P 6.4557830204637074 7.785687619451492 9.805048959451737 0.9401403259844198 -2.149392620543995 2.9812658492891946
P 2.4366835387041212 8.968199953565307 5.7214510373116285 1.240615382251889 -1.215425770360139 0.6680083396360174
P 7.02114140433978 4.20459036427869 1.502649861366545 0.4384473938806062 -1.2457380481904352 1.9541260771950797
Ni 5.549510675305652 3.091508645372074 0.15474823573846705 -0.8003229647427442 -1.0846931450285513 0.17229013705840007
Ni 1.5184513744476282 1.4548960772157826 6.87694145619855 -0.22546697819169556 -0.030033313137296663 0.677693171023949
Ni 7.042350756535639 0.5591965759375236 9.190331538139066 0.25767518749312396 1.76877987828367 -1.0358434705157
Ni 3.034729063142765 1.7676157881516414 8.812369422410328 -0.6976408177904695 0.6088639680653771 1.2757759893134222
Ni 6.579819532147725 2.103281980901459 2.308505200695063 -0.21132359681177798 -0.0011081454625142205 0.19844005598089048
Ni 4.136714980300261 6.823927170628369 10.306393662154852 0.36136289289177764 0.16148559024372833 0.7102181402348479
Ni 8.119298360401883 7.332451402758332 0.49891544971361507 0.6924536171625751 -0.04728901489395081 -0.7606834959742511
Ni 7.712055151450773 4.328790584513104 8.187428402125374 0.16683245637793848 -0.6892639065806839 -0.19942710248450812
Ni 3.3330788013215664 8.659509291953105 12.259405745663145 -0.354637401242486 0.1585131378789657 0.7343484576241481
Ni 0.3369922320080325 5.11777484823128 10.33847417158901 -1.24756738808969 -0.6588518699477298 -0.32695793304934656
Ni 8.845009269391674 2.446851658667659 5.538473081041118 0.015880675785998454 0.4401888020517451 -0.11711837698226281
Ni 4.095233052613591 2.78790204374164 10.703630640708926 -0.28831373831458734 -0.425676467368183 0.6985268199398487
Ni 0.9000104931053761 3.3118876389646403 12.654486318811715 0.06813783331850201 0.5838535620639687 -1.1979494679522464
Ni 3.156137143100966 8.625785330571352 8.083041463948712 0.276342167775008 -0.6547162505128015 -1.3812336421283051
Ni 5.619468795841908 7.773836939386652 3.531616345815352 0.03066786139750202 0.9459679884097902 0.3342500958353856
Ni 3.1556460174497754 8.594744370432215 3.4829503412421006 0.9695411477440399 -1.030135364387329 -0.3006915431536499
Ni 3.9086598746779755 4.525695590962655 8.646722744675163 -1.9732347730000726 -1.8126169300732786 1.5365817520157279
Ni 7.643197516169963 6.224290035283089 11.635942649791497 -1.5659931152983093 -0.28399377078299476 -1.0365934613078471
Ni 7.916381612184981 8.822035502819315 2.4073415095213244 0.054020162970197294 -0.41996656146759936 0.02857215521073789
Ni 4.487878915820981 0.7321710302868405 1.3909942635522634 0.27449148771951437 -1.041490127278516 0.3592671867050135
Ni 5.978045090727819 5.455532872458392 0.23616322632666295 -0.5047839123243113 3.050012519836289 0.1504576145643409
Ni 7.8187749364705885 8.670686947977423 11.354914185736629 -0.388902235962627 1.1815211471928941 -0.12351605297849051
Ni -0.03319736554464223 5.240883678129714 5.916142340363035 0.16794085895076882 -1.1044482161682916 -0.3072149460944644
Ni 7.263584672558055 6.134668698860277 2.610312827255025 0.5267282778058864 -0.27866233126775236 -0.8604068174085182
P 8.670141252809433 1.4879197297986146 3.3234008975172724 0.763806357873949 1.7002990598034526 0.49651858699172546
P 1.7612311546861639 3.1962639277871285 1.249852936827615 1.4860004395237505 -0.8188037971557511 0.972182442021629
P 5.046898140828908 1.1466965412547703 8.078502189642986 0.07296122284907434 0.4589277732221451 0.12305248307851066
P 8.52281265237173 1.5502017383051514 12.176370040426018 0.8433223511224057 0.5180302358112563 -0.6336666289313538
P 6.261961191713298 7.867269047065924 1.3831544429721474 -0.6569158292672816 0.11774546904330044 -0.7345927124244703
P 1.6665985176373153 3.5615340834003772 6.148784923364219 1.2651969282459952 -0.7118765017738772 -1.259825636631753
P 7.081404340724756 3.9929333984544897 5.910844549773803 1.4351085377698896 -0.7957708265956875 0.7126447473984695
P 2.6460303949838324 8.480848693953337 10.20694435575655 -1.3222769610884388 1.016126708813063 0.5194070615541249
