# total energy = -340863.3176649067 ev
CRYSTAL
PRIMVEC
9.34573972593925 0.00000000000000 0.00000000000000

0.00000000000000 9.34573972593925 0.00000000000000

0.00000000000000 0.00000000000000 13.67843477076272

PRIMCOORD
 96 1
Ni 1.6524296241886391 0.808333607870826 2.8330227452723413 -1.261099361137854 -0.2801438009092853 0.4789098727710269
Ni 3.165458191461149 1.6231307294828154 4.922212441430384 0.2726660044750014 -0.3812300641293499 -0.583982374332349
Ni 1.4336458522386133 5.338651136478466 13.1151301246344 -1.4070218068360025 -0.022419505345780744 -1.850680055493587
Ni 8.687706389022837 1.038255632679034 13.624432764577032 0.851610816383443 -1.8755104842737056 3.431342085657981
Ni 1.8146062493338249 0.4199956836685082 0.31653927712815827 -0.48974450149268556 -0.644250060874155 1.7334567775023437
Ni 2.4019766587010687 6.8446703987974296 0.8760659234979349 -1.0330929043537562 1.4572724754614386 0.9552568699108839
Ni 5.326473637339171 9.22373130317037 4.484461721027546 0.2929484088731213 -0.32534148049184614 0.6966643128098131
Ni 4.367161469916945 4.331423360393797 1.744000118675762 0.9075364239064693 -0.86549323079249 -1.6062123678296725
Ni 3.4527368914172296 8.572566872985917 2.8573562483490726 0.20926542873116863 -0.6156974460474429 -0.3831789603256046
Ni 1.8850544369869344 0.9826765172673807 7.393043839125124 0.3696670418820988 -1.4117035285823882 -0.5733531767532771
Ni 8.97262061677459 2.4285839803047304 2.304296854016435 -0.1577873154565347 -1.9667818182858774 0.6313066133396096
Ni 7.732581113092864 7.023323563453418 2.0666337528175305 0.6161095938841971 2.907705559403541 0.7616402034605657
Ni 3.308083528655909 2.872086069065452 7.393344771951128 0.05639072008490288 0.323747653642165 0.15539593240622268
Ni 7.005061987614446 1.347524858709374 12.279254621166107 -1.5485461234664557 0.34823535437088415 -0.7262697943810718
Ni 6.871492672419666 0.8509399016744557 8.06027733455908 -0.8352236332746712 -0.16285470267711308 -0.16657997404750022
Ni 3.6600908234230056 5.402949827252331 10.844194758474863 -3.9356554861037765 -1.5582728638359165 2.0784911084374267
Ni 1.042479907131038 4.719626705941006 10.499498636061313 -0.660677610302559 -1.951455729451768 0.42386049720536684
Ni 6.721372051794581 5.781713975462098 7.881993326630644 1.5584129889582063 1.378756384232406 0.21219905743819586
Ni 4.872326750788997 3.326139498216245 9.642544750736713 -0.33751565396053484 0.42951846682209255 -0.3647505784170879
Ni 4.679832545284739 1.3968236368826499 2.696333822086238 -1.4795528841261938 0.6172917871177562 1.4362459938084426
Ni 6.8076519229027666 3.251784791269025 0.3276541656364951 1.1851487166431527 0.26279193989439903 0.8037381610718803
Ni 0.14583279514150344 4.629094523161002 5.6970957769148995 -0.2881054789585232 -1.0793599057410959 -1.7909206760467673
Ni 9.045545425511285 6.921969013825137 6.7057431708961595 -1.3932170397424264 1.1501822278702964 -0.473665593652952
Ni 4.753439593036914 4.911532129829167 7.525190732701328 -1.5437157919573479 -1.1968960869870677 -1.65667412402465
P 1.6488875887521137 5.509472571066358 3.346593584644687 -1.7677437237096716 -0.4627713153379514 -0.5860472272811778
P 3.713436306989463 3.3451674247301386 3.5136346674276338 -0.963281025766941 -1.498090023698433 -0.32854584636175677
P 3.1912617794301377 8.58359484611283 5.070253634919251 -0.008247327610456765 0.9012163952257124 0.32959948443725173
P 5.378417259914918 2.6774049604156875 7.170427379226498 0.5215125379329018 -0.7348102277519152 0.06548316930447431
P 5.5845282085089325 5.623378449431456 10.837273303476733 3.8090062868129433 1.6096311637032343 -0.4618560026125336
P 7.176257251799861 5.1020450384665565 2.028962944275191 -1.181715008371255 -0.5904278728473766 -0.6480707201718258
P 4.91985918411398 8.681968104700868 9.153389656952555 -0.37150718041463116 0.33080121805483675 -0.898914229455097
P 0.07369489770759226 2.9611229334553664 0.5017793192924929 1.6031823227540971 2.4428524218358962 -2.5943801295359643
Ni 0.9919101083261855 9.046751025963294 5.4790204120521775 0.1857058962436737 -0.19424684383514934 -0.5957348868825869
Ni 2.7561428193938573 4.618655331650187 5.454166351260897 0.9705780736489865 -0.9433014973212206 -0.4595916320583891
Ni 9.011274597158412 4.654094377495317 3.0454215076966835 -0.2596996741223205 0.34980732684369437 1.3356358988938482
Ni 1.1611708043444222 7.6999084062694 2.761594189499729 -1.2526946820139264 0.040150861187272784 -0.28831013877016154
Ni 7.025912333416262 3.347158067336946 8.42562847680974 0.33812809073355315 -0.9812224407367102 1.1552133625363008
Ni 9.039825832669191 2.652676132539576 12.08463706354792 0.6950717715117126 0.8686045227279622 -1.2621979935186713
Ni 5.306370950732401 1.5506451705232085 0.5786115818972926 0.010868053062755475 1.2247660739244586 -1.2601760779926363
Ni 5.126708446163101 4.5167306918856855 4.448637630696967 0.5579545828100198 0.24024053695644432 0.6822509655979606
Ni 5.732209591010184 2.17187519568605 5.029669759238218 -0.3910308522698556 0.12447018936164368 -0.4866445224111232
Ni 3.5273719705625908 7.208658932165121 6.801807097145503 0.5690388656486394 -0.039192611039061534 -0.48318356044571625
Ni 8.105102307024005 7.933477138801439 4.458909533462891 -0.024590287744854424 1.1007766808539752 -0.05987456486844527
Ni 6.531709605491555 3.2835229240986834 2.7027085512979894 -0.9353274779768085 0.19295435027597094 1.0254538997512597
Ni 6.9604360794102 1.0773675543198225 2.616821201267202 1.6521842065740964 -0.8891216688447074 1.5496198161466086
Ni 8.302783398193888 2.639255649988519 4.417218187599198 0.23154249496181412 1.0342570998651863 1.3321155444454154
Ni 7.224677530418958 5.616827085734874 4.389245453390585 0.44411539079966095 0.12989547414227307 0.04388975940441473
Ni 1.79539140802117 4.142527264765692 1.7207338990999572 -0.19881209460832858 0.7684227736000379 -1.6893970681789678
Ni 9.223983638148697 5.660658606044383 1.029040733100105 0.006515946741646844 -0.010466446748962618 -1.3139707552155886
Ni 6.6131670747917015 8.936882507251442 1.021422085902597 0.6526711950583146 -1.7721647355955028 -1.344077087682666
Ni 0.12626935772915873 6.5950550307917375 9.110658130233755 -0.571657534218409 1.0934408093141943 -0.6607609140449845
Ni 4.219835225533339 6.57117666524999 9.03710996064319 0.3743204814937102 1.1210320886689018 -0.7839427236125079
Ni 1.9719137439712804 1.3716368677495734 11.868217763802223 0.425036519791339 -3.1916077989139935 -0.05881038526998904
Ni 3.627614377138241 5.9964977707186335 3.1731646886140745 0.34315536874481545 0.9784063114441537 0.11737651573965592
Ni 0.19014375190983568 0.07537058887848673 8.949293649889187 0.34959829615668175 -0.03666778773467878 0.20232345019569672
Ni 0.2219220714212271 8.005280458745569 13.529873502457717 -0.774221382559686 -1.4757571645291876 0.5377914775985835
P 7.76596409615162 8.201363428386042 8.33737572000063 1.1975918275025117 -0.4615605828593018 0.9130578679453307
P 4.461544097551431 8.99122798499127 0.8894836023270102 -1.0353246218977523 -0.7904972369015741 0.3621511931210279
P 0.8856032511047268 2.18007140961173 10.363548026330315 -0.6749096947415408 0.039454092230564314 -2.727654033232167
P 8.971059878204933 9.136778538786643 2.030290039346396 -0.11864149849500857 0.38130231212818205 -0.10528024669675418
P 1.8258304829994372 7.82261797165615 8.22890532398351 -0.2169725675674392 0.2563883503609004 0.14830328722549943
P 3.949892873162363 2.1131932946149603 11.205743119144726 -0.6185706538301798 1.554391269393323 0.09092140687192084
P 7.382078482455795 8.485670183041819 12.61696106467998 1.444120768570829 0.7560727366751172 -0.6118379630920365
P 7.045360818227368 2.9931975129227943 10.541286243046368 -0.03755430410469016 -0.8359882793548377 1.1265491618323888
Ni 4.21823710400393 0.5694901397177442 6.915802694614005 1.314697606079284 -0.6812119828104848 0.5756491718763054
Ni 2.368079659945719 3.3815971190087035 12.306337640932613 1.5716482567015577 2.348718935784581 0.9332585112629218
Ni 3.5987640779494448 7.900841814937728 10.933405453627627 3.04576402897258 1.5661730925195996 -0.27895363725592603
Ni 7.1033044058433505 3.7402211976519477 6.2436860500624105 0.01733103507927983 1.4500199076640832 -1.5860284366826298
Ni 2.695059063158686 2.1418099503053054 1.3027120357063677 1.801285821331175 0.7912863084617727 -0.17095470607642815
Ni 5.615219618465528 7.351405763979076 3.167036686936687 0.5551783056164632 -0.4313856019378184 0.49117223507814767
Ni 1.124937370604557 3.2973546192070144 8.000968334338147 -1.470391786452216 -0.01880710540417406 0.6179116800899422
Ni 3.07996336250776 1.0956945503383615 9.386484560469734 0.5338844292346935 -0.1899641572993954 0.612010741224475
Ni 1.7113545144981186 6.996108768753782 10.795636162904682 -1.6483463208852451 -0.10706562073195108 -0.2912594512064726
Ni 5.608584143109504 0.9422655377752015 10.462977353531356 0.16011005005244036 -0.2452349048472422 -1.2278917640376337
Ni 5.632733535109455 7.389564420146182 12.38693062928849 -1.8466516510604842 0.5929241569066692 -0.42729214859473513
Ni 1.8591947745783177 6.782100669912106 4.887523858502281 -0.23980576341187085 1.681943183004084 1.7825177966950525
Ni 1.5718132714829183 5.713462036694433 7.084663392962893 1.5646337730569375 0.17243411883543205 2.728393739611669
Ni 4.689841832758404 6.706820734711018 0.979521395464291 0.5793204500803055 0.9778627802358579 0.1829638147221623
Ni 9.053975282935417 1.2034322403443376 6.871827249909449 -1.8285667685343152 1.014970997942065 -1.2648331171486733
Ni 6.496663080723823 7.849991643934733 6.691545122782256 -0.6358443533089629 1.1460512364210584 -1.2836489643035958
Ni 5.362510810540337 3.95212650500756 12.114579879735475 -1.3938346187217672 -1.1399325251178303 0.7682880477943865
Ni 7.901860500590977 5.073213430757636 9.879468603906519 -0.6124452576587324 -0.02741310190563021 0.5455888621558151
Ni 9.31563730972127 0.013082166765298862 11.52453285044997 -0.1501429115373995 -0.19489810426590307 -0.7904908091436709
Ni 7.6094509894089 4.410432245830171 12.179292586788597 1.1227133330260666 1.4601356559418466 -0.6101605753896138
Ni 1.3633939251242029 3.2758500716095345 3.8367187662344167 1.1026188762690365 -1.0525849516400971 0.3597988908387674
Ni 4.249937853873836 0.3742109037119436 12.340397255562888 -0.19900081358036698 -0.7296528519206918 1.620567865220396
Ni 6.643241665912384 5.94111491584568 0.039114725362769914 1.402117941776482 -1.1339662802320665 1.024888257055777
Ni 6.7796333945684575 7.42795671981174 10.282462517479704 0.3668408852872134 0.304476721227695 -0.9075261394938241
P 7.499096492220266 0.8537268013239857 4.953440296859423 -0.3137707449351112 -2.627317760804249 0.6004592889414498
P 8.677865324868058 4.711019279458052 7.6516619584131496 -0.08176905094869144 0.49629207280321624 0.9040533504538752
P 5.437631868162478 6.338243443033738 5.576356293507092 -0.15970895795927978 -0.20278419188219912 0.40531615854427616
P 9.234357409479946 6.259412126656188 11.639377041104849 -1.1420241175395365 -0.5523588338897971 0.2537051471017824
P 1.388403125198456 2.460079123895999 5.772723373641683 -1.215551497304726 0.11450202240533829 2.181265043772559
P 2.146305251215513 8.49174491400156 12.425846290390579 -0.11699547825115333 -0.7873936582755859 -0.893165757007094
P 2.5542654909917855 4.68373906457885 8.991027051582602 1.7130951831268562 0.1338634576510856 -1.4161448521831932
P 3.484587173126144 5.317155934620923 13.485254136271427 1.2754119211057842 -1.2992139086213883 -0.37017612030803343
