# total energy = -340869.3556903028 ev
CRYSTAL
PRIMVEC
9.21939118759748 0.00000000000000 0.00000000000000

0.00000000000000 9.21939118759748 0.00000000000000

0.00000000000000 0.00000000000000 13.49351091338842

PRIMCOORD
 96 1
Ni 4.500353494383573 5.613373685236507 7.37255701679141 -0.5883856456063673 -0.7067466367464796 -0.3382813284819658
Ni 5.802555587364484 2.5265556488483414 6.538388368245651 -1.2710631572187852 -2.142968976405838 -0.38146172052418176
Ni 8.960519663651363 6.842161768146994 2.698040930063324 -0.2252306938111734 0.3204453287418094 -0.7404643407138989
Ni 5.43443452644499 4.817316154966412 2.4859635924702093 -0.3326729811562529 -0.706409308011719 -0.1039756689527177
Ni 8.839524376929747 0.23394665484641772 4.424265860939996 0.12773163372173488 0.5400915864866699 0.5517373982557143
Ni 1.3070883701801235 7.8825239389867425 4.278306307425877 -0.7393826776139459 -0.25211543401715936 -1.8051437616246846
Ni 7.283586206445609 0.9839210594933789 1.3694695351103636 -1.0302142972543806 1.940373760605994 1.4470446270858432
Ni 3.1555024989053893 6.759537586525605 8.698983059472187 -1.23258736974109 0.09174955920017103 1.7588374223589773
Ni 0.48968149630584956 2.0874268388942627 6.790191139468358 0.8708256987489971 0.6698417933003302 1.2712860718628687
Ni 4.9272850501215055 1.2917841812165538 13.283780643249083 1.3128703230625582 0.43086212533418056 0.13235704830888817
Ni 3.0533793054418608 0.515595360365368 0.7388263171200046 -1.0908504228791989 0.30012255802405735 1.205472258691853
Ni 1.6080000711330986 3.7606264427685434 0.7158820188828751 2.1663184497650563 0.36521646230991295 -2.4373422906509443
Ni 3.712399808751416 3.5463032615419796 7.8730178249865395 -1.3579584736504484 -2.7613804789503344 -1.3489015056545026
Ni 6.127345510857004 9.211388510571656 6.301186346457645 1.4483723447583314 -0.7757560740366575 2.0481580046715244
Ni 6.06054180409193 7.932142701036097 12.277461995401431 -0.3607252593077787 -0.850955185077315 0.4582616003930559
Ni 4.002073072146205 4.650076403280179 9.827863368562488 0.15423867887332793 0.6726795198594415 1.6486815927374765
Ni 4.614655503281363 3.7290131512287363 13.022060573190164 -1.5650636615055047 0.5652840265918975 -0.7986640889830826
Ni 3.514265878018845 1.597231822512949 9.689244294116317 0.7750672754997491 -1.4763983976576123 -0.20306932722278573
Ni 0.5547482698174682 6.5778141716696314 8.156179432559057 -0.6515512225212585 1.3969284271557425 -0.5821800310162877
Ni 1.5811716434921428 8.090992806965193 10.322211720563132 -1.5214186711220443 -0.13413933702029157 0.5532494640248665
Ni 6.3627995361224245 4.638386215565838 6.673876537527948 3.6200677425645846 -2.050714709655107 -0.1484506114366411
Ni 1.629813150101656 3.205360965119234 4.90842678594983 -0.9359800239591428 0.222470614567533 0.39470778690081054
Ni 8.348066303989391 7.452301060682547 5.873819635467254 0.28849345842556123 0.3296254525791807 -0.4496332352940966
Ni 0.03265969241171345 5.737199324977289 10.774487382000373 0.34767459677140766 -1.019846066646179 -4.292333571925376
P 1.1889142170867306 1.7823756314083699 3.23828064435551 0.09818245930970833 -0.37962261043291395 0.4166858338337985
P 3.4852708935065406 4.309558198840761 5.73031612770006 -0.308435705875443 -0.27342807945200653 -0.16061450049268466
P 0.2732894837519212 7.216100264750833 0.36211093996446314 1.4320185859906565 -0.6236244142040034 1.148047183805165
P 1.6466108803978148 5.9442207485778615 3.2901092944136403 0.23165330950806556 -0.3065811691652075 -0.6535890788868938
P 4.16082176477494 -0.046717419719936655 5.049771112358429 0.7721238766007089 0.05887466284902118 -0.22106704935178703
P 1.4409631460475871 7.619605348105375 6.338698204322085 -0.7909060423042186 0.14842412907407987 1.7626526823400095
P 5.860886673853943 3.232447535706563 4.347123529172665 -0.008217502813785848 1.0454177444676962 -0.09696247085967817
P 7.936042503404525 1.2216246161486248 6.14095056606998 -1.6583962489220792 -1.3810024999541055 1.1147627107204219
Ni 2.0061118107866234 7.811414776651795 1.6303128410907075 0.0729095436755325 -1.4218064213443449 1.3777857927890207
Ni 6.636772176743142 2.927184282229007 10.331994416291591 -0.5510303448863607 0.6225656339221859 1.2320417816502651
Ni 5.452393899999829 5.532962157441174 4.728503918144812 -2.3073146618061813 -1.659931197509367 -2.0863283450936585
Ni 8.289652242981454 0.631651819359404 8.718642488716714 -0.21919348647815798 -0.475829176963174 -0.10947011640838565
Ni 7.514919163959995 2.779600272030924 8.22224374417059 1.1264383472861375 1.2438104921504194 -1.4169920306748371
Ni 7.518238144699082 7.9718967147776105 0.5969592512449995 0.8475600433528372 0.17963423612829707 -0.12159132515195187
Ni 3.5291644137809706 5.318509904741424 1.0025405414396589 -0.3641299141139535 1.876039103083666 -0.4770519936266816
Ni 5.779156773153918 6.485592604077714 9.995088369223215 0.40940061302629494 0.11489694385091181 -0.002534079275763378
Ni 1.7980854735733833 0.5029030248556415 5.591926616088343 0.8713944267682735 0.6812119828104848 0.814616755657597
Ni 3.8111579245211478 2.2429210865205036 4.822539861874097 1.1620026175439924 0.06392045280304474 0.3250056944189822
Ni 2.4138578139744427 7.731399682666965 12.785222717344364 1.0918102156893068 0.08731774868106251 -0.1937331374235244
Ni 5.331942557343785 2.3725457231637472 2.3202358208984486 -0.04690900584671276 -0.049899455933604384 -0.27083023681784324
Ni 3.1045745833422824 4.290354207508764 3.323451221755055 0.2630809318897276 0.4820841567339504 -0.1455419224302784
Ni 3.0377893153590922 0.8108472772191054 11.893477128488193 -1.369566490203022 0.2813864150671347 -0.09407949288492831
Ni 0.6594150932418694 0.11448178702115788 13.11828335645087 0.04240803265256567 0.4741163080371254 -0.4720314004836387
Ni 2.9275346190847995 0.43491093859815516 3.3972607436968865 -0.3832838613345851 -0.46744815198833045 -1.4364977048079326
Ni 8.25047905086928 2.28414098342178 3.325461970919486 -0.9742490947426704 0.020580138144196816 -0.9459065390442355
Ni 8.656657757596976 7.42787889407743 11.841540611556042 -0.9218818939948639 1.3623108370818733 4.249752504030055
Ni 6.4150366051992815 6.907619443834551 2.264332200043994 -0.2752797879487646 -0.3605995323631919 -0.012860915123068173
Ni 8.660603656920113 1.2947989220545584 11.334130226468902 -2.1595723892904743 0.30277953603093016 1.3549446265247893
Ni 7.582432763827596 5.340811611429902 8.732406117453891 0.5909660047390338 -0.6071251309973996 0.07583854439686939
Ni 0.2440852190652353 0.17524587078018747 1.9045685170133408 0.2735468644180579 0.3812480618514789 1.6342258223234631
Ni 5.125501955372553 9.172353609323611 2.0249036953435167 0.1459288734560519 -0.7838545347740759 0.4509660951729072
Ni 6.203396266736814 5.528619824307535 0.24169555293309242 -0.8739112796528562 0.37995531118198433 -0.9794293533920293
P 1.3623678382678108 2.1745685220771884 12.493641040024599 -0.5210415118337542 0.01663812277731328 0.19998348920861045
P 7.217520050955887 3.7419295179383516 1.6937726747611512 -0.3376817472247539 -0.583582310680453 0.4506441930571143
P 2.276230745993622 1.8318653219845389 8.154047909373288 -2.1333036854019323 0.563137669672856 -3.1457040944033436
P 4.129789294864473 7.6700169777757345 0.7943390357985227 0.31657247604996447 -0.5079319710349898 0.009193493573809974
P 5.660318823912708 4.109506634792273 8.529302013064537 1.1300988268568601 -0.8815515698069334 2.0941110743628712
P 6.285485723683574 6.51783281420157 6.225555072865693 1.5605225791020414 5.7401508155111856 1.8754523773422602
P 2.634247354440783 6.382409180655865 11.007344304837458 0.36088698169662364 -1.4640038806480014 -0.5928102570366243
P 7.213398983204854 5.0856188701578535 11.4934081121377 -1.8113290644997901 0.9293383502729091 0.21273950332269814
Ni 7.8461073447662 3.2518635730302243 5.451944915660958 0.8982889371662722 0.47060572378070564 -0.19224781112724956
Ni 2.7645634454046704 6.399142375215431 5.194771849214589 1.2217023473974702 -2.471784274378898 0.5620233535627546
Ni 6.2275695097865 1.056957074535184 4.292987265561774 -0.14949962152644575 0.5207540625003225 -1.1102074872495717
Ni 0.6068737842639288 3.8110565112207873 2.6107517366253274 -0.11157867811095623 1.954652382012195 1.8941173007416154
Ni 1.5288792580696338 4.602983754348906 8.644590496793112 -0.104472148973162 -1.327924132071887 -0.014178348382911066
Ni 8.892535874845725 2.7289673769779585 0.6636108380595324 -0.7789948926889294 -2.0053918173485914 -0.16073585656189737
Ni 1.029538605873946 1.2445716802030369 9.881499941184329 1.8552139388081985 0.4074648294561627 -0.7184621254111949
Ni 1.961748101574156 4.152634945618524 10.909367993419599 0.12725880785037438 -1.407670496163595 0.23726525637820428
Ni 4.228971502617532 7.634218082748301 6.690190249799657 0.22270509917584227 2.2051907013502214 -0.7747705701949366
Ni 8.88136197302413 3.8663636374813004 11.9506899028564 0.6089393013880029 -1.5458865743564214 1.4995046446577722
Ni 6.700717872316223 3.03700566712903 13.056564143790261 1.7337730231911819 -0.2932561699215272 -0.3566415761567084
Ni 5.696219132240502 0.5542365936201922 10.977591486389729 0.8480724642128813 1.3973994532548901 0.031837713335887106
Ni 5.745257072660518 1.1412038689623505 8.693409937647804 1.2374287569937914 -0.24404782651767648 0.0990967435938616
Ni 4.090652980316069 0.8179646470262593 7.1297284007115564 -2.199383864860457 0.8319557611566769 -0.09046529317110873
Ni 1.3245037996693898 5.586462283077074 12.620250935829839 0.03155900575320371 0.6588397857628718 1.9324473066700654
Ni 7.656104916844393 5.021866781794553 3.539401625482866 -0.20449886058046074 -0.5957261451318385 0.04927184965193449
Ni 4.029288714206721 8.213205053291142 10.716869876369817 -0.41442043483838953 -1.014131532759905 0.6920370984504469
Ni 9.36985140208119 5.345264577254844 5.383465123622645 0.8327309487598045 0.9519915688960509 -1.8842941440036063
Ni 1.9874148859564313 8.81588585855469 8.14925751383987 0.00034735603708972436 0.6028349882624779 -1.0368125192971887
Ni 6.241370938026538 7.806307234069979 4.403998873832397 -0.8854627319358815 -0.5126897974349492 0.7691233992114882
Ni 8.383275157996541 5.219180186733293 0.6973501211505434 1.9065676106898262 0.6842877935223312 -0.25635415468885525
Ni 4.0599800666523365 6.857041865127235 3.1746852856382195 -0.42368951884514133 0.6262513103038891 -0.9135679748125298
Ni 4.5088445534410715 6.049828871817431 12.071145855207915 -0.6404083185305616 0.018712231697522612 0.5382337073423247
Ni 7.350094892700542 7.703179126993781 8.006604033917522 -0.6900473217139277 -0.3855829417814069 0.6952697464551316
P 4.514532917652229 2.402444207988359 11.243750693187176 1.4031206720093836 1.7445752560130083 2.001401979462908
P -0.25514111268277284 3.195652946457404 9.905316393804561 0.5649626386967367 -0.48476016090421675 -0.45331531213137416
P 3.5794377525872014 3.2044574648069273 1.3633303426821464 0.0642814356868893 -0.7847634197415905 0.15879055991006846
P 4.60121363128806 8.514485529881794 8.77512693120051 0.565127189299059 -0.09616002956304086 -1.244581565988489
P 7.087508199893083 0.7473745364013429 12.87913788705231 -0.09442762025296642 -0.904906699593106 -2.6275969826075647
P 7.432921900922655 8.794893305379963 2.993697578179411 -0.03818679548236649 -0.29505439947253054 -1.6683178789111655
P 8.347042951594839 8.045661061703827 10.0438137722903 -0.14927902087520742 1.2604144192556874 -4.4042513785433055
P -0.06764820297535318 4.224859654257441 7.057078678150218 -0.23017723918317134 0.23752828023160383 1.7426641550332247
