# total energy = -340890.0724048795 ev
CRYSTAL
PRIMVEC
9.10476208729363 0.00000000000000 0.00000000000000
0.00000000000000 9.10476208729363 0.00000000000000
0.00000000000000 0.00000000000000 13.32573963820764
PRIMCOORD
 96 1
Ni 6.4148148102097755 1.8524367000716204 11.750050656517459 0.010076924620027808 0.16285367423584857 -1.142402583924878
Ni 4.80709590754364 0.3007739970879787 5.965001319377867 -0.35750906636332624 -0.736971239958976 0.4026576378755065
Ni 2.830879965871917 1.7041110196812363 4.7872584517438375 -0.7053803525265723 0.4267774137418456 1.2599711610706816
Ni 3.184527137790356 4.433017649332399 4.944262791427581 1.4865519411518464 -0.20900728997377555 -0.41759574724257753
Ni 5.167171041548852 4.512028775379158 2.536021332760958 -0.8793663892301565 -0.19098128571000011 0.44752518781215833
Ni 7.103845001148545 5.7435389054880135 2.607367159543052 0.5910094563824596 2.69040569040367 0.43362760389445965
Ni 5.068994391149889 4.716558152599071 11.669296878992784 -0.3466659530012352 0.3740335463809107 -0.345849627747527
Ni 5.817132698048045 7.655083721519021 12.244902674338938 -1.7425037181959602 0.9708341555238504 1.7862610657875688
Ni 1.875280548337502 6.713633104385235 0.5277975997067296 0.6640539829739596 0.15126571228793304 -0.9637394534605984
Ni 2.7042509337149303 1.7105845055788216 0.2741170744284141 1.1691649396203865 -0.021102329196253978 1.7586579593583194
Ni 0.4913321167694313 -0.060875350295141316 4.517759312684278 0.015775517666701863 0.3317779801458092 0.6887088054081623
Ni 8.684668436386458 2.2123479483579063 1.4040535673754517 0.45137027258986134 0.9087067900654866 0.25560673499986947
Ni 6.924280881778392 1.0469110772628025 4.90064733876402 0.5760338089092338 -1.1213272513118173 -0.8035895513091579
Ni 0.857005769028406 7.686240217639326 2.524361774335574 0.30198763625725406 -0.16046486228869786 0.16491672741246438
Ni 7.8121954973962815 3.781071154681767 3.7718507620397346 -0.23214516154281958 -0.8995225524630572 0.20379360698332002
Ni 7.574852557342477 3.8347801466787512 12.745376882795803 0.9217232569298125 -0.48348463662590285 -0.5746883506249328
Ni 7.930466357888032 8.965013168134067 7.013629554784531 0.6115271167198372 0.12641522890315648 0.03384548779453526
Ni 7.052967590184118 0.7520733851048177 0.41396257934058306 -1.2004568077551325 -1.1352891128085483 0.7270205565041672
Ni 1.8088795178858983 6.559680680978384 9.230553556605344 0.3008028719205336 0.20525245091703362 -0.019221824344089474
Ni 9.003271378741175 4.8077059266085325 1.5381366683149318 0.7023827033508291 -0.2591456013910634 -1.1778781511236682
Ni 6.589234738958079 2.0198004381439327 7.060349731345529 0.8114118755670542 0.3099608842707178 0.4200112986626057
Ni 3.283395750113675 4.257523358648914 0.1695197457524083 0.21673448341470417 0.4094754321282883 1.0538255089154174
Ni 5.780959477976165 5.592991663129962 4.879472393402537 0.08685854965645685 0.2202970039549819 0.06553047760264198
Ni 5.430371506144348 2.652690665588312 9.106290852134409 -0.34610596673270716 1.056798218390496 0.7567543361231741
P 0.14336540596421743 5.52297604209982 12.64540750472703 0.13003714192645993 0.5342778080183702 -0.2644122491066414
P 3.9198186252771303 6.436720867972912 12.704959933079952 -0.4666243705354544 -1.1945185878938267 -0.4973436539961822
P 2.610708607256714 8.878536137114004 1.4524253477927394 -0.1553733066984034 -1.7309288688741673 -0.13874675388531588
P 6.426505324826513 7.871449289550271 5.836300953828897 -0.5626489029618955 -0.19033876702999478 -1.2697788911897228
P 4.825860822360691 0.7783333401340944 13.05390813724629 0.17236444193976122 0.08459546465389302 -2.088996635954441
P 3.901636415238483 6.162558269733686 8.245874439199905 -0.9101142119359746 0.5500124451448076 -1.0708593244692524
P 4.816801584008937 1.3234409136642968 4.070000766672462 -0.5174293690024638 -1.9135926358574076 -2.5350033302395443
P 0.18730954054184856 5.726349114525086 3.5004323391163057 -0.26740372763479753 -0.46789500971776193 -0.01978720992925624
Ni 1.6199374934883015 1.2745574456134732 2.560168072492303 -0.656222916965315 0.816170473297962 0.673664252370214
Ni 1.7782966217818348 6.564078281102905 4.771987034168564 0.3728127865999321 0.3710621224574126 -0.6595131576808125
Ni 5.811260126453189 5.439594630215028 8.999378182440461 0.8768469652424126 0.14659118963039913 1.2906588199625257
Ni 8.862621012853836 2.5817736731040752 10.28773753701617 -1.292481217883245 -1.9198033926538098 1.2809472491017164
Ni 2.22129792956371 5.306655997879384 6.956769404603082 -0.3034112560776581 0.13408431541264004 0.9943090987173393
Ni 0.24234873829078424 9.202820451058162 9.894908021131123 0.9518707270474704 0.3013698001675971 -0.5609535175373436
Ni 1.7931373841068197 1.2964908176630976 11.619005814711628 -1.1907071845675363 -0.9231885286214294 -2.3314313523487264
Ni 4.300552464629208 6.791415087540048 1.540828946486403 -0.5015708047036523 0.36427852387667586 0.1440547963617906
Ni 5.616154178071533 7.682926084212152 7.925257523454826 -0.07909227544747668 0.24215189504654422 0.6336566016290248
Ni 5.424353258354891 2.9917975323331314 5.045205468571532 -0.6963696643875297 1.9298484355946375 -0.13216318713052722
Ni 0.5418380534376247 7.188737803552323 6.736640838370043 0.45757280185614746 0.3999456382609822 0.22649181991178413
Ni 4.741113696151515 4.562824243484122 6.990483428414852 0.7281369294967976 0.7218480111642923 -0.5568652064005829
Ni 8.323054597575773 7.321603597790667 8.895837006175313 -0.8977050396383442 2.030841110659632 1.270710916085689
Ni 4.809372098084282 0.26661839231132367 10.612432475733863 -0.4745156003580731 0.029275866145981835 -0.5695518007293159
Ni 8.158112726238702 7.186689232065745 4.559548350058029 -0.8788267146766026 0.19071286253996186 0.3228277129310569
Ni 7.432927524752379 6.258886653413648 6.916445323461287 -0.9401935478198582 -1.810405524244256 -0.45524775326739664
Ni 2.176038156853588 5.35682323739513 2.5542909485163654 0.16320308715546733 -0.1319685546212179 -0.9582596612929495
Ni 2.3936055534902967 5.19028803267961 11.468637936168179 -0.29493921405090495 0.6727057451116867 -0.0935022802252196
Ni 1.3438446856706103 3.529715985659771 3.8629721322389248 -0.9058448951366593 -1.3224862488857676 -0.8223120674193257
Ni 3.6672616276496752 2.859132042862363 2.664961153554804 -1.0689361393046106 -0.8538967842041423 0.0015817426648230824
Ni 0.9672444083403385 3.5283684808597107 8.376719886714376 0.6642213617897592 -0.02605170278172933 -0.481569421881061
Ni 4.041576609677143 2.427702887789111 7.171446949729392 -1.2248596620795293 -0.5961866297080248 -1.2481955085919922
Ni 3.8718547382047257 7.070184695433534 5.978140401654668 0.45911314976007384 -0.4771391540238492 0.08889614891177594
Ni 0.837663612290248 7.366435446679149 11.641472725823977 0.08614095476414198 0.2380676976748416 -0.55142886587636
P -0.03850859156657845 5.5974256823031325 8.263104291116347 2.107109286394752 -2.1729734931877287 -0.7770997325487455
P 8.666003673953195 1.5670752443724356 8.305374059932282 -1.0202972952509848 0.5659666544812189 -0.16516149643341876
P 1.7912709078634932 3.2864458454381347 10.542232938508036 1.9702497222298196 -0.060381586411850846 -1.1539977449616448
P 3.8863768338540203 6.02614161825194 3.6092897860081767 0.9128148986965893 1.467910671901575 1.3665541857392596
P 6.609592987153579 3.706557781143316 10.551480645436556 1.1093405112635863 0.8225660924116607 -0.1330980402399708
P 6.635914854565561 7.6403977401508 10.189953301866414 -1.1349052471065681 0.9115316611087915 -0.44461367059231816
P 2.056155753459064 8.620479863140359 5.885899145709484 1.294394375745558 -0.2102383341673992 0.030992848837088558
P 7.004075017371132 3.7649921447026733 1.6314568385763817 -0.263167835176579 0.5639601655741512 -0.9698206266576717
Ni 5.19404829945275 2.689382857103458 0.5177832718041219 0.07641370017404904 1.2161909306609378 -0.03653923257661448
Ni 1.3574380955793233 1.220620834562424 7.235250391536014 0.5967813258692302 -0.2640327542800356 -0.4218959172798282
Ni 6.897084957198804 0.8369634560799466 9.480144222720234 0.7480310973175633 -1.3126394379986748 -0.4626761845209838
Ni 3.1351611173449165 1.811538108437368 9.240120840685769 -1.2308978978538092 -1.367453300514761 0.8102366243120305
Ni 6.339363646168581 1.9999611613916985 2.559168369606853 0.35160864171849127 -0.3650655385543454 1.2578607995958981
Ni 4.239823701004884 6.876371623278963 10.292095076187175 -0.3002104897521733 0.4617644713399919 0.5227633796208674
Ni 8.421977838472065 7.286486530129645 0.5673750903511935 -1.10829227250473 -0.8732186244612058 -0.2051051267058919
Ni 7.628306615998911 3.9282587398018296 8.508471258064022 -0.36645907646776243 -0.5502068205438009 -0.8122598253896464
Ni 3.1841083187308783 8.53852789891509 12.254790446047487 -0.033606889421167935 -0.5490112575738029 0.6594987595031093
Ni -0.020070537711163385 4.850416365913135 10.453123720746774 0.4761076274355413 1.1683067053851492 -0.07916478055662496
Ni 8.920445357348301 2.528893214463884 5.692876366910624 -0.45543698646006725 -1.5993585781326327 0.6195296753093394
Ni 3.892777481654305 2.679586133016536 11.511320150710077 -0.17543073956991076 -0.28039268369529774 -0.02746323841727528
Ni 1.00363614270412 3.3262245513263915 12.585574649699502 -0.6073881548507991 1.2344416493410095 0.8569664242684016
Ni 3.047272848189654 8.575393080911324 7.867343952291169 0.7078203294266326 -0.3096721493857054 0.7624614138102803
Ni 5.617783930498634 7.807970887752852 3.628452578931732 0.13407248833809812 -0.2984755093389376 0.5250781437969732
Ni 3.1556741464971805 8.6497061496822 3.835814447660419 0.15311844922595566 -0.7010138480277605 -0.39978263032055666
Ni 3.538420138287185 4.2346795103830335 9.248449877112085 -0.5910778477265498 0.04637627327169432 0.4825796083131301
Ni 7.253472662528177 6.094172401130643 11.500979872322052 1.263075253917302 -1.429112468087455 0.09389874433268988
Ni 0.6057307219134408 9.250074166681888 0.3567883148645253 0.6872998408757776 -0.2859778910925591 -0.03413139446607025
Ni 4.843168975231732 0.2530431919269358 1.8577147306972606 -0.6052315135191125 -0.0673382202353421 0.02228709353297452
Ni 6.108758230115076 5.381251314277297 0.3897229710351801 -0.643064525206486 1.3248236387696926 0.14711569467530147
Ni 7.90124007134619 8.80667224936486 11.718069268945225 0.23423443997168045 -0.034276147574050654 -0.06462210685575967
Ni 0.11820712715661143 4.747177467751785 5.4865670086879295 -0.13384905947338238 2.1950356151940906 1.4935818514154342
Ni 7.866687498939247 -0.14566526888648193 2.5403661252649354 -0.17860888018757626 -0.19568666160546944 0.15607393230985378
P 8.679760969580833 1.640168275013526 3.616579058595528 -0.349384894594295 0.690581596950843 -0.02669062191730887
P 1.6235338745425156 3.3866528577993504 1.4910040460279694 1.6215376853328334 -0.6601014260841148 0.3627446037306527
P 5.034751380656473 0.6889846671279564 8.172396277119338 -0.35921473620052324 0.8161378202878138 0.6520561871821351
P 8.66396420722878 1.6674916662633907 12.500849374919516 -0.5251539913402311 -0.5000248003727711 -0.7232438630705544
P 6.330067684000599 7.5559237568065 1.355014407891648 1.1026682414497333 0.4365465773134675 0.5729199458706005
P 1.9667105699740028 3.189543861741931 6.3082453900493585 -0.3151408858097605 -0.07991965644477848 -0.11682912787661814
P 6.969759168780417 4.066441715143115 6.072952842434563 1.0781414599529626 0.5116112196587899 0.5623910213148186
P 2.395353667825509 8.593402300468883 10.107187371903812 -0.11238369051075484 0.4058221516464173 0.4609792564345351
