# total energy = -381179.87425223214 ev
CRYSTAL
PRIMVEC
9.12239835061375 0.00000000000000 0.00000000000000
0.00000000000000 9.12239835061375 0.00000000000000
0.00000000000000 0.00000000000000 13.35155209228866
PRIMCOORD
 96 1
Ni 7.23557597282889 7.481223907556722 10.142639751539141 -0.704822166030257 0.613718210833885 -1.0869955679094827
Ni 3.1880865486017647 3.1252605932218414 11.741101003216313 -1.1334379185324222 -2.817561654127593 1.293084655795199
Ni 0.9776930111577353 0.7081991279235685 1.9460154950370827 1.7508950275834492 -0.3439233572590915 0.2529011631432483
Ni 7.4082812127378075 3.0645875237820457 10.67464523453894 -0.9808113213412205 -1.1205983435655926 -2.7741326364096803
Ni 9.118174381092318 0.770104633340107 6.821253985891048 0.434468097517884 0.3543982886484864 -0.5955505387859228
Ni 8.393600548666504 6.888167687837799 5.7189371582338575 0.12095677689174651 1.1691153173293736 -0.5106689103501786
Ni 0.6394910502801086 5.4841394037483475 2.3421693140157753 1.2866867226886551 1.624920485762137 -0.2666280258110376
Ni 1.1700752636635012 8.510549691685325 4.988219390720432 -1.6688814647241192 0.17560788857772336 -1.3087809834845332
Ni 2.12862948370942 5.603606328629352 8.438527446829795 -0.9916955723538922 0.31847792060279345 1.187473251011271
Ni 4.637507885394934 3.918480470984366 10.305795665167864 1.7079750882914715 0.8326499590102241 -1.1407043702868482
Ni 5.979558597123242 4.330256396626064 3.551325843171237 -1.158592563421179 0.3298648222834964 -1.3173612689543763
Ni 8.04989595728428 0.4672118263601909 0.9828316579800833 0.2861444985774104 -0.9075901599625402 -0.14098052831184107
Ni 5.581448023762527 8.322865474176027 5.946794592281869 -1.340804330468665 1.10992003791614 -0.08637081138676093
Ni 6.682439366982851 3.427494763062447 1.4235420057611807 -1.0912736264595464 -1.3301141977446707 0.1893236955019191
Ni 7.405553615720442 8.314856008686904 7.39838888429088 1.098776619704811 0.27756344177661874 0.5295112398676622
Ni 4.089580168836239 5.182078559470719 12.497880549722753 0.9220397597289668 0.370619121382723 -1.8222361983305972
Ni 1.6574211347629153 6.3558119047528265 5.722728426864015 -0.8651764708830197 -0.5001466706626161 -1.137350623323267
Ni 1.0296359456623505 7.750206936500011 7.646207037515138 -0.12132315909222975 -0.31067385117734236 0.21373811979054158
Ni 1.149486011261514 1.4429079445844768 12.787929020246313 -1.6068376601184973 0.2973120851584557 -1.164771181428065
Ni 4.916616776175267 8.747358022701361 10.909392815835167 0.5624331874066636 -2.814712614714572 -0.03766511865094158
Ni 6.315116887045576 4.222037388542423 12.248006207977712 -0.9528989112016686 0.7549311668715063 0.7812420368518932
Ni 2.8715940706068364 3.3516693904592922 8.826069722047977 -1.4114998972120143 -0.9896870265642954 0.7376176152937232
Ni 4.154896538884192 6.531016681727826 9.395714219407811 0.4045633395386517 -0.6058652904483695 0.8466987237938064
Ni 6.711475959980425 8.434468891936733 12.58254278931829 1.055919929550601 0.3191836884205664 -0.6968273207502387
P 8.564216759421655 1.1799548207531567 11.215824201019217 -0.24679479313519428 -0.43354430015203393 -0.7645555773351478
Ni 8.430236099240886 4.6500785499097494 0.5843616621361427 -0.9172279401626204 -0.38447608187047333 -0.3390490598859257
P 5.288089947225923 5.213486975961655 5.784319209547781 -0.6265919814727596 -0.6596306570952833 0.002358215819531422
Ni 9.098606837272087 4.214255983004588 9.052164708792459 0.5122938475481114 0.5977866272052931 0.7913091912799082
P 4.530128137932021 3.5501089152711818 0.35938599363256485 0.8703256191841271 -2.127364437099362 0.4490233696242396
P 2.3324329785755267 5.922078367001433 3.5904855612864393 0.6217500799994259 0.06857672062813351 0.47591273781591587
P 0.7614328817524556 5.930489218004814 12.548709639425294 1.0842563146014488 0.9005543361616812 -0.3311873977496619
Ni 6.465390150146125 1.4479982426971525 6.913273439515031 -0.6698222529163045 -2.1118465439694214 -0.39348394179603846
Ni 1.7728559597052058 1.0711154896020214 8.409915045341611 0.688412357213666 0.2789392390782228 -1.216669412959253
Ni 3.9920617336668784 1.4410743425761474 9.91722529568929 -0.9909088147865387 0.5688169794458203 -0.9808059220245817
Ni 8.79517763328675 7.913871879940001 3.0414832262372897 0.08856164839049264 0.48881247659671945 0.07323581666669968
Ni 1.2092377184981191 2.225928981325547 10.33476840137908 -0.3619586174942476 0.7310163079271217 0.6079707668271465
Ni 1.8645178153255735 3.019367796641305 2.6083326097213795 -0.848355799781255 -0.3708746890369548 0.3795313362706883
Ni 1.5371423164553368 4.033422686431881 0.1006893807320235 0.6360718959387368 -0.784396780430791 0.42953980697833116
Ni 5.399155143501598 2.8583757158303724 5.393706335145503 0.3648400528071007 -0.15232140724595702 -0.3807289561232152
Ni 3.757424533387073 0.05342167522874564 2.0872749166230533 0.8999388140648694 1.5912151230898919 0.6402825915859747
Ni 7.662294386478765 9.092348872208833 5.06983748608622 1.248136887439915 0.2862493995863909 1.1650588878718129
Ni 6.614842397422049 5.190024168173479 9.292519828170876 0.3601076803284379 -0.3330889856477489 1.0046531609558247
Ni 0.20741049105562614 1.4343602576103245 4.15823351209139 0.7239339471590435 0.1392450336779731 -1.0522622781933557
Ni 2.7916271292883508 8.846737427073206 6.419946924253126 0.4725044834653153 1.4839571838414765 1.4993208107817404
Ni 9.059854890349781 8.170804221057404 11.765494295605729 -0.9494921995129648 0.9976731300935657 0.40323510764553133
Ni 5.614680919863741 5.466250381169572 1.0633505043806781 0.32066412962083485 -0.01004915670588592 -1.058982884746641
Ni 4.49481533507509 6.947116624045883 2.3404333216665956 0.14281501041741854 0.3489717183162764 0.5774281181535991
Ni 0.6899169299887776 6.578252458837924 10.228450501049348 -1.0920313305611773 -0.21548389883705468 -0.8525569823467961
Ni 5.326431386235916 1.9529412196376978 11.975207279929526 0.046688405195474424 -0.2131817330664393 0.24660633127347206
Ni 2.1122000448188665 2.255275735856869 5.773878624977964 0.06907422908984233 -2.022316361018072 -0.8886586131653599
Ni 2.385269908089178 4.219574341068547 6.6747473609459185 0.4075483903089046 1.0674960644239744 -0.1554319278504807
Ni 2.7213299299043383 6.126712000090216 0.5309098829938275 -1.8782641357594427 1.8834539074904983 -0.08697270663681797
Ni 7.669446346551055 2.417627053977459 12.830053517728215 0.9526590272767206 -1.2240775324978659 0.9010459310861191
Ni 8.03934134273882 2.553514295350966 5.573177657689135 -0.1626032487879393 0.954513563986956 -0.0927810857884789
Ni 3.7325933658911894 4.162851269985004 4.417748404097141 -1.4682752543298456 0.9324375580235232 0.2714208192139906
Ni 2.073575811469281 4.83225283899601 10.906282078099643 0.40345956495151164 -0.2926774145999218 -1.0737420453336863
P 5.667034362280669 2.744810982488617 8.579333485232612 -0.7300475162559491 -0.3577450936335323 1.0775753030368473
Ni 3.408173523989603 6.769038291684697 6.919321589423102 2.9404205331380586 -0.600653921450759 0.6316110319539057
P 5.528428646287847 6.3439071752957625 11.206772045432823 -0.1475556104261975 0.12296969355671725 -0.08491093901178279
Ni 1.7486724824709705 8.343664541733196 13.281762740839875 0.7329603190273699 0.021055535118718577 -0.3243698606071962
P 2.3987254452149784 1.0118381470640885 3.7960332586599717 -0.12083799192569512 -0.11184375884688481 -0.8184844661431193
P 0.02505649072775322 2.483071137598132 1.1979651712260164 0.17763031832439086 1.1295853775555516 0.133578322310499
P 3.0128361596365094 8.26540348885032 8.69139302289589 0.3431985632779251 0.29641219905200566 -0.6114759517669275
Ni 6.491826859699055 0.8993352608555149 9.843097601363501 0.6888052217767106 0.32499001068969835 -0.30716275270029036
Ni 4.5352366808408 7.891029395219321 13.162159892227905 -0.9892476250340319 -0.27755881379092845 1.0629454689388145
Ni 6.712871686882288 3.94528207645935 7.12506906731396 0.15102634258361733 0.5124409146489368 0.5174370823119475
Ni 3.4671407049937883 4.670138703224757 1.9478846743978124 0.5920252992414836 -0.897628677874454 1.5603562287275061
Ni 6.086336266314763 6.73113472778117 4.485186643931848 -0.5650906796341687 0.22063844645480069 0.29609826735601263
Ni 2.996306374367391 1.8907173425291661 0.6269194735254878 1.7081812907650065 0.06645041831375006 0.11959434932658114
Ni 4.422483840925618 4.6205493474174 7.806665458040065 0.9202911524689763 0.30587154469269257 -0.35972381462645786
Ni 4.345965166070558 2.4260379049808405 2.7009121785857175 0.6103269257641489 -0.2457126158146091 0.02295969411996691
Ni 8.462666224313578 3.88293960817615 3.069294681176563 -1.1549845343549463 -1.9812180483158657 0.24209481655636375
Ni 3.457352371884647 7.711007992073188 4.446347121988249 0.18164406746947426 -0.4249498736148037 -0.4526005454525366
Ni 1.7121281558771018 8.770072793849323 10.324314133212185 1.5423140265138147 0.6810705721366143 1.0342295890613606
Ni 6.012508698884863 6.507115998833183 7.4704467064988105 0.46668813389385433 -2.0787641595931556 -1.0762918083387334
Ni 2.874531482779384 6.894553366473773 11.5553142445017 -0.3137329497186403 1.5318421804482134 -0.523436494428492
Ni 8.645214531719946 6.992126536031442 0.602626527514636 -0.0396824061912865 1.5615865015901815 1.1334091221770157
Ni 2.14529610494931 7.7113090312088834 2.103229990814935 -1.450846774440753 -1.4522979050649827 1.7921311514151006
Ni 9.016040012508956 4.954137199360633 6.757300502111973 0.9760588942578996 -0.6238925802637255 1.0223765463775167
Ni 7.611947871633143 6.119578284814029 11.95889095877481 0.10787269001427874 0.026188485469909734 0.12355873329096784
Ni 1.1126953799202575 4.286322927610569 4.7050738388023605 -0.48688800588049697 -0.260350677442758 -1.053157022093483
Ni 7.91628931542362 2.2202092377473255 8.422626194786417 1.3852309362131563 0.04937032290301175 0.5858603080813523
Ni 9.074532828814469 4.220988312766513 11.505779623082653 0.1273084301413872 -0.2611153235229245 0.5791309597773188
Ni 4.171827709667571 0.8824971385322589 4.997832573786987 0.6001067906980375 0.3330956705159683 -1.2748367653286046
Ni 7.435785242862749 4.865202940757632 5.137864120595241 0.6199996729672226 0.18872154314154593 -0.8061747955378309
Ni 7.174455905884576 6.239647287966426 2.6130589241518045 1.1759853049763296 -0.22426267347094925 -1.07049422782035
Ni 5.871795708942171 1.12097851735092 0.8322920208564334 -1.39549606558459 -0.2742315491899084 0.649316933874101
Ni 8.810922892323449 9.043607899420255 9.137468252971008 -0.6369895226569997 0.6737575834149687 1.296929740572902
P 6.3239656131554245 7.9511459983779815 1.3129712434598915 0.06302442335133661 -0.06683197002288489 0.5800575853566462
Ni 4.120596322210965 1.522509989980907 7.304059639480285 -0.03232827981906046 0.6319375620553891 0.9479906752667738
P 0.6981289127146391 2.900913457944004 7.382486720007696 0.1522069931552798 -0.285791743223682 0.2627731708413217
Ni 5.219808797811267 8.373339702594368 8.29115328182998 -1.2632562595798567 2.374942902478116 1.0484367337996783
P 3.2999453935079104 0.46047037420021353 11.943297131545762 -1.079897780522437 0.7371872126245239 1.1333600141066351
P 8.444868425715317 6.4530201783884396 8.342396528404052 -0.5686130909651305 -0.1685368406635549 0.3248511711189889
P 6.563930293897241 2.209764091978484 3.3540704056264183 0.08080617281478987 -0.4171455470790364 0.6284213213720145
Ni 6.325808337561805 8.975043955666008 3.3973689557375364 -1.673137411786996 0.4286214089291199 -2.238594473621648
