# total energy = -381178.73195711366 ev
CRYSTAL
PRIMVEC
9.12662235504051 0.00000000000000 0.00000000000000

0.00000000000000 9.12662235504051 0.00000000000000

0.00000000000000 0.00000000000000 13.35773434973595

PRIMCOORD
 96 1
Ni 2.939840251149642 1.2190703435919592 10.208688523382252 -0.1131665914233664 1.5027043825419926 -0.2160156029708086
Ni 0.5499410650337416 4.758201132811589 2.138907028822459 0.7242332235670171 -0.046970969432899745 0.18409947098850232
Ni 0.33974491019480885 0.296180803144226 2.141885958397661 0.43548779703164997 0.1903202550872335 1.3281105370510804
Ni 6.736177514904608 2.7387898846909473 10.403911541391908 0.12376827819861266 1.0059847352830547 0.19221258701393992
Ni 1.5278878682123627 2.1222409035244327 5.830504435090027 -0.8105868085625976 -2.029486653514266 -1.1898515214354604
Ni 6.99822109935066 8.447793420121828 7.596850869953599 -0.542321247148137 0.1334579946825508 0.13674489296393869
Ni 3.1834571848226165 3.0549543404021513 4.6705052427926 0.9549138847491684 -0.6162371206009968 -0.6521703441624962
Ni 5.589015829777766 1.4159498435804732 6.780586747196196 0.4603295386656782 -3.479416058347072 0.29710793956744963
Ni 2.194487247021052 3.080143818427754 13.14869944237214 -1.9806827446376856 -0.9277653493588344 0.7016386260959528
Ni 0.8065387938501267 8.653188058877692 4.807876426270123 -0.49411486264623933 -1.1054002956689155 -0.16691036080372545
Ni 5.170359403694274 4.116234508057646 3.7918068083593477 -0.41454796155518936 1.2042342725196937 -0.35405581770740313
Ni 7.5951934753124934 5.521122885200789 11.441567446775927 0.1379142306816915 -0.7256115919717826 -1.6213929322248528
Ni 6.466567960428405 5.855759624797435 7.18746344165373 -0.2912864477896661 0.1821289775256928 1.8612791711656718
Ni 4.539235206438308 1.6279339037618754 2.7126886570802875 -0.5083996547000277 -0.8004790307046343 -1.850574383153658
Ni 7.937304918714563 1.3944292677890344 8.695484478066769 0.12741873046700636 -0.5408204942328944 1.0422650577713275
Ni 3.50501547441539 5.990003114753445 10.337404018106337 0.543245044513987 -1.2299985259679913 -0.6935751323615281
Ni 1.633008305856888 6.11148758649214 6.0519217722595675 0.6821679189658509 0.41017091553341617 -0.14414118542800983
Ni 0.16002802376685507 7.428459209352446 7.929685101611819 0.4743338233645702 -0.33748222961943813 -0.1113940729039759
Ni 0.9462847244951353 1.1947661479462421 12.577255142129658 0.41249313590868963 -0.4887129749043777 1.263827044481662
Ni 5.059799499055814 1.2609524141207602 11.129330176714873 0.6337406767023989 -0.48850111600388774 1.6913912157908613
Ni 7.546804122960412 0.7770990477388274 11.487317379908804 0.8958073083949992 0.5053863217950005 -0.6816966357563873
Ni 5.226862323424892 3.4202017717733884 6.696873715224443 -1.0866356134669028 3.152426757839158 0.1323400790280237
Ni 8.743559874605777 2.486895104434922 1.13351099589391 1.3036490615746066 0.15736745431029672 0.922663766466211
Ni 6.9467743284701085 6.852249899516788 13.24182932341158 -1.8111714558760033 -0.5110365781022425 2.2761575194770867
P 0.9718301407971865 2.0074736259258996 10.37224033608595 -1.1687923867723162 0.445741099328542 0.23331989857721108
Ni 8.774736416973697 5.95614334537845 4.455071319316387 -0.3040632878393602 0.9338151550973401 -0.040578692753310754
P 4.212200943361708 5.4461750614521485 5.652526170243188 0.21020002473029606 0.5505395212928712 -0.6837833430820869
Ni 6.673368099045118 2.4347912167363113 13.148860070927665 -0.032547594918718135 -0.068791664852417 -0.30902268872716454
P 6.23233319465772 3.217280447707719 1.8990958967207447 -0.3508234268130345 0.3301347881154314 -0.8532519515312919
P 8.247199384786786 7.656989836077477 6.018060177560078 0.6500939212494417 -1.2145312835703277 -1.2806831968070524
P 1.089107239575807 4.982624779423751 13.35690599351195 -0.42103794015490714 0.5915568442454974 -0.5334275442029329
Ni 2.998926005040132 3.9901319653475915 6.790164224819409 -1.85799587242871 1.2598960848583722 0.5051927177269557
Ni 1.1833943763448287 0.5799795175792727 8.666804979607475 0.029535547565271717 -0.014527761302529819 -0.8234631503046334
Ni 3.542544146024548 4.733157680745555 12.839400944747407 1.2226469706989267 2.163660443316919 -1.917739825256562
Ni 7.769657990507211 4.486446822054219 0.2892500460381961 0.1010068161323809 1.2300180663520173 0.8898266653315321
Ni 1.4783850679185697 5.306638130461773 8.636603160519677 0.9632751122296701 -0.16304213609757082 -0.17676771321377943
Ni 5.183519993300404 8.518351338460935 3.8297425273308034 0.18454221495287576 1.0894576562967302 0.33731562213458677
Ni 2.5822409294108164 1.223332476286871 1.4050599576456364 -0.6606930369215267 -0.03941835389662243 -0.6629568932550389
Ni 0.7218437373002748 3.0973657550343883 7.692345458875804 0.24500839065873287 -0.8973705391170611 0.694250818272314
Ni 9.135201498169058 3.227557024612367 12.155391620909135 -1.7656603588180817 0.2138281084011866 -0.3803330062363772
Ni 2.3350919928407743 8.622476974255898 6.681298221311946 -0.19554730781412774 -0.5273805666779046 0.2619025953109102
Ni 7.118126665401517 5.939094814598803 2.4459211328421886 -0.5526390841343773 -0.3269358215621595 0.044593727449974814
Ni 7.752691599329821 8.104988353411807 3.4994993437926816 0.570889802814449 -0.5330737604079401 -0.4667657812093252
Ni 1.4741776949584964 7.056485457218575 2.890600297583073 -0.9107433608795412 0.7931927814558661 0.6055297614858216
Ni 4.326210711294979 2.598404177810578 0.11160946622285994 1.409298004464689 -1.1172276273211468 0.16443104602529746
Ni 1.4827019603483198 8.169623093765908 0.6130763013155208 1.2960108283030585 0.3629361509161685 -1.3441459932473883
Ni 4.9578186195420155 5.071472449198838 1.1276945993918388 2.779967497923902 -1.1695179520844312 0.9947281885326287
Ni 5.782007388592763 7.141299159860576 9.202878141793427 -0.36271555026493013 -0.37120944666855427 0.4408184652159441
Ni 3.939689122939075 3.4144154931254778 11.01486772830694 0.36814726280346277 -0.15374117041161908 -0.7486260505890849
Ni 3.084652369929438 1.7032467924094379 7.338018031293566 0.30204342919585403 -0.31883967481758635 0.4702095167835515
Ni 1.2361006211266603 8.919429889661343 10.937686620039146 -0.2306294962292415 -1.0156798510836316 -0.4923274317285134
Ni 2.7466114001503463 5.832313331664183 1.2653514461527673 -1.17972497452442 0.8650535721519101 0.9468740451638272
Ni 8.92586415850484 3.8133584146671944 9.758479538084949 -0.2688435454051176 0.08962531376831662 0.6122295421035004
Ni 2.5476327769930323 0.6617558802622451 3.7518541058213484 0.07908301947609606 0.21377822899985763 0.6696057660301242
Ni 2.573899196470454 5.20766903636408 3.838398216084239 0.6392145553327765 -0.02933808684248496 -0.1894548217631447
Ni 1.723288855360243 4.491530350771704 11.193233874608882 -0.2247794652063677 0.4739425014634225 -0.7357867327325714
P 6.071750272244503 0.3680794223246225 9.394561855608035 0.5195826679000407 -0.05191802902552994 0.46758596311777534
Ni 3.9835425439220535 6.154437471850287 7.883560976957547 -0.6791281036982627 0.1571453109971616 -0.7060452398040807
P 5.422527982624491 5.756370706065982 11.579753637640293 -0.7267117670144968 0.5065055230011083 0.15943333570038992
Ni 2.323738474484307 6.848316325230906 12.062047264241581 -1.0848754362426865 -0.09182643518469347 2.121657873632888
P 4.466140087051695 1.2458113474379795 4.897906906317716 -0.564429391901086 -0.7831845052902447 1.091027057666379
P 1.3154657301522543 2.583591669536827 2.768470573635535 -0.5023123108553672 -0.313202274026151 0.15425179149945048
P 2.3497128420425915 7.618658021690691 8.972497548693108 -0.07462164127063277 0.27573178788451863 -0.4952042390556762
Ni 8.714674114478592 7.574822853952659 12.133217578948628 1.0474993095870733 1.1757706178623621 0.5574529605832529
Ni 4.4723735702007845 7.127755252110579 13.316405693625565 -0.30777544658362477 0.22487228203049012 -0.566614829588179
Ni 7.885137144658642 3.693845293382678 3.235216998853993 -0.7039307645642393 0.6418162546216818 -0.12559478988439016
Ni 3.293962329726238 3.4982343939179175 2.2537701359569593 -1.037957174424593 0.7964601393532282 -1.0189744626745032
Ni 4.763759245897672 6.352713345077175 3.0685922523636213 -0.4230719398658005 -0.0302629126495995 -0.5304851737451574
Ni 3.4254495796953885 8.129210409455268 2.129222769716312 0.4490135994322267 0.3377591374299086 -0.46197915845395915
Ni 4.691138710879659 2.2845396309625814 8.902929868892327 0.959186029761961 0.25082114068576805 0.1687597553076384
Ni 6.9612126452224645 0.9504282110978974 2.2345887135053624 0.1715314045155046 -0.06460539468521131 -0.6023392795729821
Ni 8.095414526437585 0.43182340432535377 0.2874238088813399 -0.1151129165164598 -1.7370871751660792 -0.47976476457215445
Ni 3.2077705070908067 7.246273571545533 4.675420841656581 0.12163323413348084 1.340232002904963 0.6033877754421544
Ni 4.201906113212114 8.906123274095645 8.350534655075583 -0.4936988581547433 0.4328213059430804 1.353284465213547
Ni 3.7410025517008987 8.286918445789475 10.725645974798411 0.2635108203382946 -0.201760121493059 0.8898634321067384
Ni 7.90698627885911 8.092831692277713 9.870617435748999 0.6221378023561479 0.20086074960724115 -0.14248025278581913
Ni 7.021238441227678 0.1832771818546884 5.355009229568908 -1.026621951917432 -0.014792327817826138 -0.7229186185206518
Ni 5.538408708164735 0.2586512188728201 0.16738681946687076 -0.03376449804495475 -0.1413019162070018 0.3121257531325205
Ni 8.933594407739509 5.080224880150487 6.887074352887184 -1.5056724640313812 0.12655175448102074 -0.2873907122796857
Ni 8.845869312528606 6.933458586281937 1.253583579136024 0.03315797480920741 -0.16158277794322493 -0.13825901561561996
Ni 0.8094912562201567 3.8967209843359822 4.549016207742669 -0.38115267392419516 -0.341500863860528 0.20094868133535718
Ni 5.410280055265665 4.706517069746739 9.377516975477377 0.9306182454265972 -0.3898234622253158 0.1609402592632196
Ni 6.14083880436545 8.046906527993354 11.472517648906516 -1.1335860140745124 -0.3330393633567361 -0.1469809688696501
Ni 8.614764978266175 1.5370783770427183 4.054713771291348 0.9595462413148572 0.1787834580922276 0.4172859293116426
Ni 6.207873846429961 6.491100321635948 5.080547962586033 -0.18133759197264898 1.2852715875086833 -1.852210118984868
Ni 8.880349692231768 0.7797466809182577 6.613013744630875 0.4462072403316832 -0.4165673059780632 0.7784441623917819
Ni 7.28976192762959 3.458971664038881 7.9685435221153 -0.7051386688294113 0.37410887970353635 -0.7618132387033203
Ni 6.842347514133534 4.344445702996121 5.459373070210418 2.234681254610171 -1.3389410520076812 -0.6833521690819393
P 6.175775515192264 8.039751255974487 1.869441674981329 -0.23413519538965483 -1.067309659444781 -0.41893580621023985
Ni 6.218241689559339 2.1034491878524344 3.9988515404583382 1.975872467733236 0.433268420782828 2.8429842079657552
P 3.2323758812781342 4.007810233077879 8.976958641757932 0.5068809040626561 0.40609366014024906 0.2881702707581876
Ni 0.7742679694476892 6.780195215092102 10.365281286450253 -0.43292620695206085 -1.4156851389379554 -1.3480432714192654
P 3.412380256313989 0.5070632799931318 12.822983976242893 -0.10223786032600456 -0.37410373749721376 -0.615161885258947
P 7.749050076963076 5.473125977615049 8.914057047011463 0.2707546463849015 0.8402992480253658 0.4959223481686233
P 8.394119753357854 2.781000513628778 5.9488000649366395 -0.05145008825017591 0.8333649827993777 0.0779519911954464
Ni 4.766278193700233 8.094045533066627 6.395843937560289 0.5695176050572708 -0.312856460650958 -1.6167037542792997
