# total energy = -381166.43890614744 ev
CRYSTAL
PRIMVEC
9.25496715182178 0.00000000000000 0.00000000000000

0.00000000000000 9.25496715182178 0.00000000000000

0.00000000000000 0.00000000000000 13.54557993310971

PRIMCOORD
 96 1
Ni 7.980558041038519 2.4094010879877117 0.38855775788884245 0.5970903724692168 -1.8107207414918298 0.011555566048083325
Ni 6.609777114293374 -0.11753530436481141 11.31819900088894 0.7644308788318254 -1.7181018923128282 -1.2854968161456117
Ni 5.7638083460489025 0.797964179930587 13.174538994612716 0.15751966361744485 1.3233020599188436 -0.623413583744778
Ni 1.7797764282522468 1.5070418058338726 5.357182116092892 -0.8402195438273659 0.5913632401774525 0.5426943142168396
Ni 2.478387611979247 6.233794080062608 5.961653626525406 -0.3073023636019482 -1.8419550169157632 -0.5946496242382081
Ni 4.666400634444887 0.7457578366003144 10.730239277074793 0.8432940689876315 -1.6210754009844341 -0.6012954116894998
Ni 1.3803227977184842 7.9457871300328575 6.976095186489749 0.502703889866831 2.1835057601776207 0.8273496298432331
Ni 3.2830236976175753 1.904061380047569 1.3877175163486473 1.5696348258159547 1.7083610108759801 0.33659956990416867
Ni 0.738736093140108 4.476368397106787 4.710949418082298 1.1644721621304073 2.101353614857897 0.25516964746245085
Ni 2.760062532516192 2.404829134291466 7.761941838131884 1.1068349712329133 0.6437900905186009 -0.6336581442909216
Ni 0.8836475898804174 3.630381118928322 6.974117400042607 0.5844060921333291 0.47087363273011157 0.5301136493383515
Ni 1.7887815111397922 6.614062164012731 3.504147071083548 -0.28202661975429494 -0.3381951965260627 -0.018685749334961366
Ni 8.608748180889535 0.29474663592273004 12.364852473484428 0.18420282933558596 -0.7484291040869304 1.7317649916222175
Ni 2.6229501964637905 3.8246891510187826 9.876624055097855 3.091817628797533 1.8432171714576384 0.8668003796396878
Ni 4.144661124987036 1.3964079303583135 6.0500654007457895 0.8040515785472411 -0.34425014447089103 0.6414714696877533
Ni -0.022727422453181365 0.3960135593011823 9.940626779361804 0.8786598500814351 -0.3331152108999941 0.7046193059908317
Ni 2.9305667894917833 8.036883770178912 9.914470391636437 -0.497925237531265 0.1361687087454945 -0.060105964152961
Ni 5.637848245227223 7.994172097490296 9.061464146487864 -1.6807656177562151 -0.5067981145408627 0.5254679230362241
Ni 3.635045622294533 4.437367966183748 0.8665879092158617 0.27111022995210726 -1.5930349499074499 -1.4332306040208864
Ni 4.422097270639607 3.839506353180098 8.247822052465292 -1.562155229609458 -0.3168918070625962 -2.1355230616507543
Ni 5.3126379599389795 0.08977410536226109 4.427860338588296 0.9433819728501688 0.193380382069796 -0.42904486961978366
Ni 3.758599431697136 6.8547838555903855 7.926507182785854 -0.8175686391970692 0.058702656047531165 -0.5821450640132941
Ni 0.5071777443856378 2.235000489906615 11.655564759830323 -0.23334740938103682 1.890812661848415 -0.07760232116551152
Ni 7.946175838646709 4.533277189167956 6.007748915147923 -0.410694392137054 1.4627653802552099 1.146384451390761
P 6.981327019332841 5.353350559756361 2.480114588820785 -1.3842611161007194 0.49679498058156374 -0.8476631445896047
Ni 3.3632087316748147 1.276537597820298 3.641661072703595 1.2721875006312153 0.7770611660013261 0.38555620230852955
P 1.5831176345446887 0.41079836907801054 11.89456317655324 0.6735873763856915 -0.2959964516708257 -1.1249208822003465
Ni 0.8038540409271276 3.1873551037752748 9.372119145180791 -3.6930297367446077 -1.7246558913812622 -1.3989333734009133
P 5.156460391873892 7.01433023164218 11.007747611469936 -0.25359433255553104 1.4039956184151692 0.7157035888294513
P 8.168452381000439 7.766027906060816 0.42705194211717545 -0.11534971511761424 0.36754948131846377 -0.6726856905070285
P -0.34161656528284995 0.7600299212055392 6.287790334009994 1.3906724189437019 -0.4697528888621071 -0.7475798687127577
Ni 1.776259540793596 9.204268287243083 2.858022656186813 0.8705827295002554 0.5987091390195625 -1.3489745249842833
Ni 2.9694006310088863 7.615597672500524 1.3117434922747924 -1.0655389406976037 -2.604419516049837 -0.7863749872030844
Ni 8.308452266755733 8.27887339223508 7.310197644068181 -0.9741588490217095 -0.5875875751851042 0.05185863654250423
Ni 3.6569336192411366 8.056300690937464 3.428752407943671 1.2555802310918376 0.32162880752694933 -0.441436301305601
Ni 7.4153942264333255 6.77229433475103 5.482072342729782 -0.5455009304276992 0.7774668860801771 -0.25269753177287446
Ni 7.138892832447397 0.4292027964471503 8.95999453933219 -0.566443079897005 1.1252746659953394 -0.24961195086901525
Ni 2.8160735927787055 3.6196731221134306 3.0127397904598605 -2.7657374703674495 0.16118605672543854 1.1563839858056342
Ni 3.4380258848741136 1.7915487462717308 12.362360110872283 -1.3195315371328176 -1.380635346422674 0.865079283183523
Ni 2.6380728125359894 1.3250891546836727 9.943878049267655 -1.356472118912909 -0.12794760638728286 0.3072969642853095
Ni 7.902501649390463 3.408956033538265 2.4310789971834956 -0.17685358805936638 -0.7134248200976037 1.496518565446255
Ni 1.1495872155299984 2.7344818037380048 0.7004186787814073 -0.12142626032899731 1.079494117326115 -0.2074242617573718
Ni 1.1485784241273853 1.015353174213493 7.979768592353722 -0.8486517337551192 -1.6764896160886804 -0.8255439440930621
Ni 6.2983104549948585 4.030399302448869 9.306788333152856 2.9594682937981287 -0.7962513657765319 0.7429927635627076
Ni 3.8749528767765002 5.826001724265044 3.982291984001323 -1.306459277329892 -3.22593408299969 -1.6339260316948572
Ni 3.6677989504949684 9.158826399290515 7.790875641452884 -0.9684499715623901 0.33287249876156866 0.9232900871963002
Ni 5.511360611286746 1.8476986310391905 1.7775867030608867 0.1902166396298337 1.2247447337682198 -0.003136745856768791
Ni 8.304611455452205 2.181201366756253 7.821393895123677 -0.7947680963627861 1.4394922686598821 -0.9319493055331949
Ni 1.249494584256672 5.122374348425968 13.094024483730404 -0.11698030874250176 1.8269919678480278 0.5983335008476985
Ni 8.725943827965576 6.437755042730365 3.134745243883957 -1.56138338444044 0.3789356116682183 1.911475332404089
Ni 1.4479025667265595 7.7729413664071645 12.912567898811213 -0.5610746164962402 -1.2242860489642464 -1.3656740971271513
Ni 8.010645938743977 9.020603467198539 4.030365059070982 -1.7718369199424386 0.4420626220356903 -0.2344406424452156
Ni 0.3300793234250758 6.062873349572175 7.536923049057105 -0.2590738676128635 -1.236117751491852 -0.16161517384305715
Ni 8.063417760557734 7.136801209906199 11.78794595675414 1.0630033187599435 -0.2891681158950826 1.3028080537305498
Ni 6.1232342443230205 7.408341941582031 3.0120900917767095 0.13112394723273546 -0.45944739317104094 -0.16810026734676856
Ni 0.8413348062693493 8.64225116141668 4.663743533420207 0.4381396328322003 -0.5293978542182495 2.2033821873865733
P 8.700538943560321 4.145373757445762 12.712391292148306 -0.9948963386793769 -0.6196078368454426 0.14029250110588098
Ni 0.6711183787673474 7.625176563341849 1.6437154564506422 -0.8880124949409288 0.5793950120719829 -0.9934472649376762
P 0.2031613335192638 6.645251402790766 5.227605174169 1.4538436522855478 -0.5654020402270004 0.610079328529717
Ni 6.934765280373703 9.368710540835998 1.6999569653913669 1.7069975548695506 -1.147439632128153 -0.40065217740970355
P 0.6206473417489088 2.959895779903533 3.3427913489839467 0.6017458689633571 -2.048596891981156 -1.3950975445945908
P 5.10881582177617 6.967620413211099 4.93671323200029 1.348820258794606 2.2790494963129007 0.7700500247908157
P 8.013431683809907 2.4192391179049375 9.90937738329829 -0.2720538248122992 0.060329393017676744 1.0932541472246848
Ni 6.081725717343945 4.966863137984625 4.525767708947036 0.4987680451475346 -0.9086684806283833 -0.7957764830226425
Ni 4.630519127399652 8.905934426112529 1.1609180716237517 0.3515111969086785 0.49328671031798915 1.16668485351101
Ni 3.8976738207527846 3.4712882362593533 5.250456613179933 0.01870194728487747 1.1722566911718326 -0.26262918906428967
Ni 6.994839271147658 2.895888428156087 11.941837547971103 -0.342924483680932 -0.16348205184846684 -2.020588065473056
Ni 4.950324511961969 1.54041521682307 8.670267797508334 0.8633551014035648 0.8866657511050472 -1.177903605044965
Ni 6.334108667337126 5.397237613253526 11.644037698436245 0.11696025413784372 -0.7693661113499137 -0.23917404336514292
Ni 3.8785345490041268 8.410627102396537 12.13758472742951 -0.26631306567378005 0.46888514154517313 1.2394624995943686
Ni 2.8162679470856307 3.973175841509821 12.354205559451712 1.6840039221878547 -1.3105432175912786 -2.525600291758089
Ni 8.80637874613172 5.456996935149601 1.0117122701970895 -0.399187419938719 0.1936313217383375 0.5174453098420637
Ni 7.816624810630406 7.395283183150041 9.55793667054871 -0.2705589854343276 0.7454782489887226 -0.9065275230259807
Ni 4.677488084906635 2.928539951719561 10.803196181907806 0.5315128436787233 2.1129827144563933 -0.17840987680289272
Ni 6.707740939950794 0.9609247133073726 6.132937151722099 0.47549030556651656 0.6286550346493753 0.09788035468825723
Ni 6.055404591206041 3.2909366943995395 6.742637718507607 0.3039344755709798 -0.5723039095531562 -0.44210195991405793
Ni 3.596443154952342 6.231026844930669 12.770339417003175 0.4143772403052799 -0.24192512374771882 0.163298475082751
Ni 9.319196467404993 1.0850153107957694 1.9893042535683683 -0.9294540499151671 0.3694248439643057 0.5298071738415263
Ni 5.130296600174929 6.042327322840058 1.1066321372093766 -0.003347833426310363 0.06028054205761231 2.3437708477506862
Ni 4.910657723415186 3.9773683415592123 2.5841987241529565 2.7951022966828125 0.13695495209221575 1.1885142906812758
Ni 2.0865878391515484 5.907945202051609 10.979762442266072 -0.03940009906417731 -0.04240906109383019 -0.4214966249588805
Ni 2.098591531345944 0.4806770718880039 0.4504744125917902 -1.6895009407466839 -1.368158811222218 -0.5616477153908908
Ni 6.722743241452038 4.40772430689412 0.358500401574473 -0.9904910105228295 0.10178046107361181 0.13100850470079373
Ni 4.542189722385537 5.532619270477591 9.60204121577029 -0.2740325458052248 1.0619267978663132 2.0083634983824057
Ni 6.057005700496427 7.427795882208568 13.346324139020616 0.7915400763437916 1.5616122126217944 -1.6442394978057233
Ni 5.224799068175677 5.605039387224809 6.606856246709295 -1.393026263887859 -1.0275943431330303 -0.29121342845988557
Ni 8.71245934105175 2.6761662566933757 5.288343671573299 -0.6217909605396904 -2.6501676688192295 -1.4594440291914608
Ni 3.254842323113386 8.448035678996186 5.6345146061151015 0.41540336757694907 0.5416141937787834 -0.026486219215986647
P 5.004938072208019 2.9735653661572887 13.280411189568602 0.7322638071809776 -0.02088712786165435 -0.35026009811039677
Ni 5.753887021428709 8.048424714023485 6.604350927143356 -0.4643504868996132 0.907411982513463 1.0792753164470896
P 0.5579060694865775 7.078217268818673 10.060329596997182 0.6521991405179025 0.030706942165553572 0.1785338039752667
Ni 7.040503278308141 5.883641658718933 7.755372662557804 0.7778947176462151 0.6485754277223863 1.488478725860914
P 6.736847811154628 1.5690593396770816 3.486970777834837 0.9915096815953311 -0.5638560358961193 0.7085965454710248
P 2.0604518123535747 5.355692066406463 1.6722152018195093 -2.3562964910215225 1.6612406603494099 0.7340928899699164
P 2.3943062368165027 5.098265159400217 7.905498407703913 0.09115563436991397 -0.9637592509549402 0.37743305898076285
Ni 8.652829588693624 5.189833802863089 9.52435779929219 0.028954478250821102 -0.5657535100291482 0.6232446622670814
