# total energy = -340863.9664558639 ev
CRYSTAL
PRIMVEC
9.30707257175042 0.00000000000000 0.00000000000000
0.00000000000000 9.30707257175042 0.00000000000000
0.00000000000000 0.00000000000000 13.62184148206704
PRIMCOORD
 96 1
Ni 5.452371548897601 7.166650526901492 5.577762943628901 -0.0987190485394687 1.4013761785144512 -0.19040175905744627
Ni 3.586619967091062 2.7705293210428223 6.366930090550855 -1.106568604945404 0.5336640856937712 -0.9934148690378439
Ni 7.258985992482203 7.936968990737663 7.042369465911123 -1.0274799290423533 0.8331161000133651 1.6494428963835333
Ni 8.920251885923276 7.444783079407686 12.294719929088057 -0.7891507501760088 -1.2223950025891204 -0.4874734460703218
Ni 0.12350205902795601 4.686213346437761 13.134765118157327 -1.2950248102407051 -0.3186437567566964 -2.1513947385756884
Ni 8.850811818521029 7.732697365038094 4.434563137824658 -0.7851118042199446 1.5320818072628455 -0.262732033190741
Ni 6.534942292769335 0.9264436731467097 8.791005501791357 -0.3977324326597473 1.264260532474655 -0.38872431562386606
Ni 1.5941432870739645 1.4632672345595055 10.209883585101931 1.1388308074132194 -2.7903023041910076 -1.6202685888124226
Ni 3.7170678942737285 6.063678680262606 0.3544617149213253 -0.1604898019893623 -0.5467358312760648 -2.2559201093842893
Ni 4.201649927428175 1.5999322861255927 0.7588977552569861 1.336221596193989 -2.266221234199981 -2.6824920919835478
Ni 1.7907831133807126 1.3425265839216105 0.6424206744993981 -1.856654270799151 -0.27106086477141056 1.919108166358998
Ni 1.97948400690444 8.305556980193652 1.0637769725132902 0.6280991621459053 -1.0907568347241279 -0.631995411876518
Ni 2.8314068818092197 4.682257840654896 12.287050901405514 -0.5192299125463122 0.8385285292781882 -0.6711934222322182
Ni 8.579966703727738 1.9505390116463 9.648445609232802 -0.29011711007191326 -0.0463464484750234 -1.5698001477492256
Ni 3.3215266230596767 7.184333964519006 11.330402055393607 0.19945307062643713 -0.08794329808020337 1.047338101418861
Ni 3.2578941688539196 6.3728968546859015 5.476525263268638 -0.9776807461320389 -0.6670148653744965 0.24256532843487905
Ni 3.465199900165757 3.3183715255058153 1.7789715077594568 -0.504093571125506 1.481203018135107 0.484292734349495
Ni 5.833403094192861 3.5888443574018964 1.3263052873828927 -2.033713032890788 0.05211086176262639 -0.5666775645053144
Ni 6.913228251697666 3.8340577947222245 3.9286613938541914 0.5147615923623134 0.13630266322019752 -0.21799509529468264
Ni 7.429128583579972 6.221591778186999 3.0742181637352948 0.9406208651652639 -1.9660755362474722 0.6958551866449564
Ni 6.944583778715246 5.371427939971541 0.21233341183866958 0.26381626739385533 -0.23726937014326233 -0.8850791233442176
Ni 0.6339866054630872 1.0267934587971257 5.528410330652908 0.35482663443515666 -0.5104105144824693 -0.791181150342476
Ni 1.4021104616202003 9.126943350454715 12.264111759986628 2.1158906321318076 -0.8893499828054297 -0.19952840394906282
Ni 1.3718717832942524 3.778578335965384 8.441808797743835 0.9327592030290001 0.4709224836901761 2.6532491359580304
P 5.001006457246788 1.9489102739710027 2.728781516949603 2.0142873200660083 -0.7343245463647482 0.3718550506723531
P 9.07541009040831 7.0958143986347055 6.410057202778241 0.933633120993521 -1.615139495115973 1.5367866689376823
P 6.547776745650678 1.5323070978472497 11.000058687968084 -0.4223463745536855 -1.3490801973242121 -0.47556075379313584
P 8.22555338558305 3.7979556607652065 6.407836535296378 -0.006501548563943641 0.46272092171599016 0.1405537251870676
P 1.5940874446393831 6.556395094721108 12.752127172160602 0.15679281275374934 -0.07046750989294316 0.5930208303855335
P 4.9491195284480325 1.97189874287377 7.602512828005204 2.7264379014368787 -1.0531318252825024 0.5716397936065961
P 3.59311630364739 0.028459166077280107 12.77313230392848 -0.03238792941240228 0.02714467873559196 2.48847690454323
P 2.259412824389676 3.8340950230119457 10.388356936732034 2.3311475025597206 0.12046132531256672 -0.6426739746362867
Ni 4.908149795609982 9.17600092923467 3.622020347786837 0.8251271682706176 -0.004520770688488988 0.006461953575259839
Ni 8.550388827544339 4.5432287926915205 8.929389569635315 -1.7540070908498697 -0.5965414419442824 -1.2019765868337686
Ni 7.59651628123838 6.781998530430857 9.456514230868526 2.4773841370641785 -0.9298142614680631 0.9706292386018961
Ni 4.222414006020108 0.22409382856155896 10.87450628088374 1.023834361869966 -0.8007777928919757 -0.881780655098604
Ni 9.091799844958015 6.304703934989312 1.1797877689421217 -0.3229889210992696 1.9614586063007509 -0.6754205729396884
Ni 7.33294929708556 5.938740539958659 6.1900100893093635 1.1408282974592223 -3.8193650043394483 -2.6451851280029732
Ni 2.9929032026192677 5.9378842892950745 9.290423008399655 0.45130136702513884 -0.9061292591462976 -0.28775812292143343
Ni 3.0184231952230687 1.1004589370827138 2.8202253649914932 -1.6535345499544036 0.29658703406697307 0.7841378703424495
Ni 5.142166824796696 4.733874864353174 6.379081404315816 -1.2178222956167737 0.28408401650395587 -1.7554695343280091
Ni 2.6010382250151727 0.8659812078107025 7.38791500544425 -0.9476458903328453 -0.5963565796269858 0.7811767308315967
Ni 5.201815852002298 8.90836675442982 7.335729319620481 -1.3592525098715236 0.6484435301302123 0.15559596423217073
Ni 0.17286118695465078 1.4916910337615505 2.887039907261159 0.494654022979161 -1.43128582158969 -0.7996015131956875
Ni 6.07416775089152 0.378463724011749 12.88968104914378 -0.02810447154569998 -0.6038459460254955 -1.0146249274565557
Ni 4.485534250696276 4.03854348308769 8.616468111092013 -1.2716874210663454 0.27074230508972724 0.5935229668329327
Ni 3.5896726868481905 9.153524349315568 5.507187413390163 0.2014968405293433 -0.21383376482814137 -0.21347252483398071
Ni 6.57299891193671 3.689947085211921 7.832041056158797 1.5502628490472463 -1.8065583825840241 -0.656844609709714
Ni 1.151275552551989 6.78968617225826 3.150772557303239 2.4855761859566674 -0.1602100659654144 -0.5861207608315906
Ni 6.869019657653883 8.35057528953887 2.723659834991225 1.0640911525074837 0.8873977441750653 -0.7585512801225969
Ni 1.5161220988910096 8.194002410044435 6.292255725613825 0.06116217333161725 0.550177252857446 -0.8832461839005369
Ni 8.834049781074114 0.9752974270404408 11.78640672265091 -1.9401012236708974 -0.16944829673423076 0.59413746048848
Ni 1.1824542451933941 3.20106518459469 6.4066657055846505 -0.823826190071007 -0.0037743794407676928 -1.5660694770621997
Ni 1.0295204310191948 6.709152074519133 8.167015622825623 -0.19005748834415007 -0.8877124472020066 -0.10910296287695405
Ni 3.7063926821962085 1.7752775307118824 9.250007046371206 -0.3312221076423392 -0.11220242773788418 -0.513187048786342
Ni 5.103747229804541 5.012258707814985 11.032574806917719 -0.8815184025761528 0.30151943837158396 -0.3985986373147845
P 5.101234320248368 6.83174483257065 9.689555878864548 -0.09475929256077228 0.618431042928522 1.6765582645430868
P 0.4858943303671145 1.4718483553402146 7.76586590976509 0.35008654864701 0.5634336036467199 0.29887094500514333
P 4.874830476309616 4.041707887713982 12.985101809235125 -0.08950704302289746 -0.053499000359404636 0.9862633455947271
P 1.8878279576111394 9.027553123971861 4.142415995652963 -0.16130895545654797 -0.03316903055280094 0.42680312477345855
P 2.263898833301066 3.0798684874077122 4.557159618705148 -0.2879167599864848 -0.43221298293512017 -1.5482057094079011
P 7.910564826252987 4.84537359206781 11.332567811148131 0.7776530339490543 0.5774435447725668 -0.1572486693442453
P 0.21332089222352124 8.492517451172919 2.3889579655466067 -1.3113646850513092 1.354480799514493 -0.5888746694276439
P 3.3071471961549093 7.660400026399755 7.321712868540494 0.29680480650473395 0.5359801354214576 0.5488629049213968
Ni 8.858117870378791 9.0550834442206 0.4373318878404508 -0.7847760181470808 0.4707059968039958 0.45010271873134744
Ni 9.06092828570681 3.062650403411712 4.56330321721637 -0.20578184105794234 -0.7806823076936813 -1.1974876978244797
Ni 4.373142044028333 2.5692545726658 11.233946348848017 1.7921720319553651 1.432417878311604 0.29618465642223185
Ni 6.158378142240605 6.043659167465094 8.037431391964486 -1.9486848515748507 -0.23957873500272936 0.6428521520853637
Ni 7.428830757262203 2.8381452022487355 12.470332286653097 -0.25520307180354757 1.0880363504691712 1.2569971660440222
Ni 4.817601287935885 8.484448219375876 1.107929724122492 -0.16133055272310282 -0.5049363787417757 -0.38360576345037806
Ni 4.55973953918282 3.3731529538303855 4.274016138402497 -1.2642697884460354 1.0476715734988795 -1.2201234329461244
Ni 2.5838480622364632 8.412160187809967 9.380504301037751 -0.612024882291862 0.4458508854335289 -0.8421550702871818
Ni 7.115415093172855 1.3586557404432689 3.8046893276685068 0.2866319797367902 -0.2276511303272079 -0.6348192544785582
Ni 6.750214878081484 1.2291850558657804 1.3795929305824044 -0.3754486815608824 -0.06457582699885653 0.00995042634449254
Ni 7.890601155890057 3.2895847504789892 1.9056277336340313 1.7669333119932344 -1.7598110991261562 -0.8558587930265197
Ni 0.16835935602012908 5.323794343273418 4.749881167518753 -0.17961906661964547 0.3718704772913208 0.38046181850475763
Ni 5.729498937581325 7.069596375598635 12.039460437786497 -0.2607869936492283 0.32833013080652484 -0.35395940133885495
Ni 6.099194468656517 2.36015257637492 5.6296750015232195 0.09533110590384228 -0.4077430228182139 2.0285206900565713
Ni 0.6497062507978136 2.993238257226757 11.280383056031605 -2.6106297586256075 2.8382384657506536 2.8111642352416815
Ni 5.390721501119491 6.079174955859005 1.9712304950732764 0.08924916137582048 -0.2197496160919441 0.9646100289910097
Ni 6.658865962178382 3.5307216900748593 10.18336122079739 -0.2167288269877493 -0.2313828294554983 -0.38875876840622725
Ni 7.794989600813891 0.8057542114071813 6.657442910803794 0.22005917691256294 2.2485893800508308 0.13684439465628045
Ni 2.6483646883230962 2.4198574460151034 12.642253459292291 -0.4146628898664988 0.009776876881105743 -0.8649802957118136
Ni 2.5655782790558432 4.839007554525505 3.263043772029588 0.03460164923426944 0.720229758834579 1.3138779383914663
Ni 9.047805313580128 8.755163035155142 8.262872884613946 0.6991174023359961 0.37437524599104555 1.147215689042805
Ni 1.6770693024276717 4.589903760929325 1.0955503870829895 0.24011609556343808 0.35475772887043416 0.36456982986484954
Ni 0.6166447374037648 5.495528443756763 10.33707031410503 1.1286199283184883 0.8159884391941431 1.8561081684876937
Ni 6.837189469942359 8.593071061709558 10.351346432505823 -0.456500137617259 1.0643685745385862 1.5524308032328427
P 9.281915413491143 2.4541447008482185 13.570472921858695 0.6160705131161455 -0.6235169420918616 0.1868119848236589
P 7.053662667598012 8.897412330179392 5.089432952406785 -1.5811119732176189 -0.21250964670007916 -1.4081320091810459
P 3.3672615769820244 6.907402024356317 2.1602199078423427 -0.567284601961694 0.42545766648915756 2.070839248319124
P 9.233137046884098 4.668008712764152 2.4999345664979047 1.6116669631863405 1.0947412732931727 2.0279519620372946
P 2.761622452727054 4.738100275236517 6.986792282893765 0.6373201665235412 0.9491821244717138 0.4958241320278623
P 6.843695113571118 7.506070151361015 0.13393714863677492 0.7482313862538275 1.7220886448747181 1.4250285278260684
P 9.30865463258331 8.633556826781232 10.447720236814028 -0.012124294067359764 -0.23747325862395233 -0.28701533121813794
P 5.677770229013883 5.453581468313535 4.273689460160195 -0.877367613632573 0.9967878992751349 -0.27280870070045277
