# total energy = -340858.42806222435 ev
CRYSTAL
PRIMVEC
9.36271730335590 0.00000000000000 0.00000000000000

0.00000000000000 9.36271730335590 0.00000000000000

0.00000000000000 0.00000000000000 13.70328317143060

PRIMCOORD
 96 1
Ni 1.2577874019492903 6.217658645215858 8.769306125176895 0.07510398022369001 0.5836105928152272 1.5051081068874788
Ni 2.8351336978685913 6.38996072619005 6.819137374539113 -0.2386001731395439 -1.131932023410857 0.07859888075082593
Ni 8.80486759689108 4.846151682569261 0.6845297742112335 -0.1916978521610505 0.23736450096022993 -1.19576094494136
Ni 7.981332372177238 7.294745609040827 11.664124335113417 0.3813393360137045 0.5652536875745943 -0.13566451541556634
Ni 3.599065866152412 9.52956061822262 1.530889430430748 0.42838743854144284 0.25423813678711693 -0.3079924476904373
Ni 8.962591927494309 2.0371212397001837 4.8131275071624176 0.10262326868988132 -0.6731230351547633 -0.3750653300795347
Ni 1.162549844612472 1.4000726122174412 2.802074880408842 0.04399954550940164 0.0020751373614738455 -0.7594298260728083
Ni 1.2389589780597563 6.984446442185063 13.235425124665005 -0.6117356331862175 -2.804427944959112 1.4371373952744604
Ni 6.513913736569733 1.3082149957180775 9.052498353770611 0.5852373297853727 -0.07706573193575114 -1.1877514443733224
Ni 5.4049654467894745 3.2549017519030894 7.891857567154695 0.5023192528339027 1.1461661647323678 0.3002104897521733
Ni 8.866399373023363 3.2181999012581497 2.4609995264982354 0.7073246207371366 1.4494246972822455 0.05914128624684653
Ni 2.6704715939674286 8.403178949386016 12.29506472602454 1.4926637104765388 2.1320597856925025 -1.4921813715234817
Ni 3.8122455695541047 -0.05468950254776087 9.78900899650114 0.2794187498178026 0.6829703602624884 0.5121262116219953
Ni 2.1297746871446543 2.0582341665380257 8.772265680020993 -0.6214065806170781 1.6610077184029974 0.5935641044835133
Ni 1.7804423531106364 5.311993666966961 11.363488428474655 0.8953936178963482 1.1882376399811214 -0.9679061832437782
Ni 1.6923859997137847 3.282634119660822 4.331292129583165 -0.13667547317858397 -2.1928103254079976 -1.0159001946245538
Ni 4.14462202309884 4.344366227603724 6.102002874642692 0.4101822283873259 1.3332010642001104 -0.6213608149808073
Ni 5.150037388279164 5.014689951308946 10.381127817638236 -1.0895730988286718 -0.4146250946500279 3.510261325862703
Ni 8.296734219798688 0.2836369576512758 10.894753364523567 0.07210658815826292 1.7058762967809138 -1.8318197282539743
Ni 7.918920500646838 1.2724306913392611 2.303932458628495 -0.7844289192203071 -0.6559467804857929 -0.38644246156822476
Ni 1.5973076085659876 3.9033635314103687 0.6523885030176074 0.4684665659505157 -1.1912247476339033 -0.016016172922598222
Ni 6.942772988812455 2.5674629815195646 13.054747157061486 -0.6082705574557524 2.9558085855583545 1.3334208935204004
Ni 4.719389857089201 5.0989544043202875 1.5622292530490662 -0.09372930863436116 3.096028581555087 3.269079765149228
Ni 3.9019403984261767 2.575308938366621 10.430898148673535 -0.2840220529177689 -0.991635408539918 -2.041905081783277
P 3.697786354213699 2.828898128345752 2.0330194333819316 -0.6626118512107944 -0.5944521635154214 1.7701880714851062
P 6.141240149051573 4.08139559518933 5.549254278495895 0.7154009699873679 -1.4417373559403168 -0.9924579044412132
P 3.34993332946588 8.520475067977804 4.578595191367651 0.3176765077474206 1.6307445486430816 0.03478933976504331
P 5.122960410711519 5.493602288640404 8.47950943601049 -0.1604905733203107 0.5728042462283426 -3.7449004574719695
P 5.669022154376016 3.4361358648964826 11.567571316037922 0.002539992813034335 0.8121999186859884 1.2147272016312178
P 4.172616546932608 1.607147824134312 8.122113930094987 2.1585130947880242 0.6600890847889406 1.1343622301189042
P 3.655794568463047 6.6051066001620065 11.759513568465659 0.8765805989549034 -1.1983649582231104 2.5393017005045815
P 8.913858985502749 1.8216195824821788 9.274998641947057 0.1965873190428679 -0.8195388755495627 -0.5452242797275448
Ni 8.712317139333624 8.081326189750696 1.7621185796674703 0.4619015111384883 -1.0528006671953287 -1.0386416020861273
Ni 2.033319976597672 0.9160716381957975 5.239011287942138 0.38949513235161953 -0.08946770514452979 -0.9432171651375304
Ni 0.160980683576267 8.5806305247109 4.919218326047096 -1.0160099807295406 0.30949628592947337 -0.13042769249665925
Ni 6.897766408187397 8.723702203207157 3.025561062685522 -0.4881756143436689 -0.8310656452422397 0.7694139338687136
Ni 1.5132304098946714 8.394724415933878 2.6429798480366284 0.10653931591483587 0.09155801201465523 -0.21756906350085756
Ni 7.099795115640588 8.322547230571162 6.563570778729315 1.9650105853180677 -0.16629715269975875 -3.4138755534421015
Ni 4.627213908211794 -0.16160985815875167 6.059893118657825 0.10086180591408436 1.6483452924439805 0.23358317954092675
Ni 7.995825858095188 8.286060722417252 9.049140883453958 1.4181539121934221 -0.539541884630787 -0.6212119481077689
Ni 0.817385792187415 5.434532907079454 2.721937513051656 0.135737791855663 0.363665058662393 -0.284685911754013
Ni 2.4508597039858704 1.5674030904639626 0.12012646794126827 -0.7110588909685882 0.27499105306375227 -0.7896698559042723
Ni 3.331554315992406 3.6048520252591905 12.262039614345994 -1.4391976202375987 0.7957389449164877 0.5276829284096719
Ni 4.864568146910741 0.9638542644117287 13.111849431780472 -2.4026303410910557 2.5645800154553964 1.2317059955774015
Ni 6.910406076139098 6.3902696958510905 9.861101917410842 -1.0710354450358008 0.08710126179488226 -1.1977710333928535
Ni 7.486999639944703 0.5691642478651059 12.925169026307447 0.5274152765705821 -3.1402932078004175 1.8415577814773447
Ni 5.792909625736689 1.4538426959556783 11.202337343448965 1.0935526523017103 -1.8438522339384762 -1.0707598227769106
Ni 7.248887021168654 6.036995657959542 2.096547340778882 -0.10422352329746566 -0.5706100667905012 -0.7100721015752868
Ni 8.119451173379828 2.769875560369808 10.975836366297878 -2.515987451258673 0.7987139683844116 -0.4709217123592277
Ni 4.697902421571308 3.49964317431603 0.2998644187578599 1.043403285140829 -3.5611987361425177 -2.3859518519941103
Ni 0.4545496114224795 8.919682595477534 12.405143126080056 -0.5498815759938982 1.266896170325289 0.8786616498536479
Ni 8.06708549719178 3.480899014879507 6.611655820704388 -0.3440331433640785 0.22700372655119616 0.437779164168988
Ni 4.216040828384453 2.495997362648946 4.5037889550709815 -0.21651516831504647 0.10428960064871072 -0.6010550135439197
Ni 6.093349851590127 3.0461225254919895 2.884910582805791 0.0034900154311294732 0.5684146018010792 -0.5576637910424783
Ni 7.239318324393367 5.064705585529678 12.080471252355656 0.14590881885139387 -1.3606501615499986 0.6713677430265534
Ni 3.1828837327293966 4.982444753956607 3.4293694293196717 0.0005407029948184237 -0.3788746765232959 -0.16950100434903712
P 7.432817596658411 6.858442996782104 3.9872853089794638 0.38952701403081946 -0.6710034177085993 1.968948486919893
P 0.05349669240180032 0.5532354574308621 0.898094285281678 1.475602127008562 0.808674164920917 -0.8313932037849875
P 3.59392573451872 7.961717480059598 7.953617793581807 1.0005039146741415 0.3636594022354382 -0.13788389166438836
P 6.048989298438157 0.4233174600496759 1.0056962466903605 0.026830232818966696 -0.35460294846012475 1.9439915598642388
P 7.2400486163194655 0.6488709302402339 4.753257613297858 0.9744725236073863 -1.2938940390703717 -1.3561597298788128
P 6.760396624344907 4.1602952113589495 0.8400744642965688 0.09067458096843738 0.37020980175944623 1.143892795317159
P 7.330539276136645 7.712566217939063 -0.08402757627120959 0.8357360541347154 -1.1685059658801487 1.972709496624222
P 0.3682731105275673 4.166989554014851 12.445814768733529 -0.8173446961117214 -0.09289987075453034 0.24242905996733086
Ni 7.2943336494927715 5.784773424662594 6.304619560723562 -0.2705469012494695 1.0940123655469483 -1.2475082527169805
Ni 3.7769668518933566 7.409232912532237 2.7174705607703546 -1.8165154937967363 -1.449291257028175 2.319384962707154
Ni 5.440927642791315 8.285854742643224 12.839715508236948 0.10955984790871454 -0.7412220448155299 -1.9054545801313056
Ni 0.19486810149062803 1.976918969382081 12.493419503326436 1.0115773988794836 -0.8391389091686774 2.194216461726905
Ni 0.5670978962229278 6.150172181070775 6.6059960582771255 -2.245740854858442 -0.19875115946340607 0.16872761651812232
Ni 1.134836202288742 9.255317274538708 9.799916561807608 0.2787901150948683 0.33326947708967125 0.10674037618204842
Ni 0.9830010206793058 3.098403937227026 10.489972211592985 2.2517274114591803 -0.057553372934436374 1.7953224046588887
Ni 8.833377070159917 5.070210863126419 10.290357212582718 0.7040228100574133 0.7247333031318873 0.4202537536907149
Ni 2.068551880673414 3.853038927528595 6.7308057572624245 -0.9132527575649562 -0.2130860880288395 0.5469258357996839
Ni 5.340119268838746 6.032613906402952 13.152876857679995 -0.09301351351425917 -1.2770216887950654 -0.8954728078737159
Ni 3.5217672745900077 7.347214275115889 0.4075703063252564 -1.6220107683145097 -0.2365576887882184 -1.0609770323585341
Ni 4.776174735701844 0.1551224315485785 3.452486913867483 0.6939363723556888 1.5097240083929355 0.5387188745088592
Ni 2.0709674616597393 7.0226088766822 4.496266011960469 -1.5674948966548166 -1.0826702010612517 -0.3160613407415008
Ni 2.671847913366614 0.41839454345041327 7.512537386837341 -1.7583165168585009 -2.2702167285126187 -2.033312712128576
Ni 6.31336433840274 1.7093699683540706 6.152390208728373 -1.1125219943153615 0.9847330249931299 1.323527031445456
Ni 0.434655710338202 3.7983700229582373 8.458762591407396 -0.8349127869024718 0.5858168564379266 -1.5605359488384802
Ni 5.428231798537607 7.465615194313825 1.4355423293050151 3.9084853534468875 1.3458292944870822 -0.6319869272360857
Ni 3.6088873562867336 6.764403867221446 9.754709619038724 -0.5859868063568876 0.06413359725511535 -1.7711044126517885
Ni 5.807534189692658 8.497704940230738 8.165772279471863 -2.4561439967384793 0.07052201727996242 2.9026469139337103
Ni 8.539350305452343 0.6187426432018789 7.440362074018027 -0.05404715955339079 2.9326588869147687 -0.04844601131652947
Ni 8.428561275176431 4.6596369971871585 4.230765573412334 -0.17054924310789338 0.5858759918106361 0.7431370024500557
Ni 3.2058879284014927 4.439341628864508 8.89996658601628 -0.802895610565927 -0.024789548239854083 -0.30201797527455726
Ni 5.033050239348418 7.007431912423157 6.3665455072415975 0.4342043023335361 -1.6775597092244074 0.5067055548270564
Ni 5.349191741612968 5.937741495029184 4.178473862688596 0.7967169925590407 -0.3850700067007304 0.1774356858150815
P 1.4480190859808943 5.114299897485353 5.069446865419116 -0.04515217105660611 -0.13996391412186862 -1.0409059726402718
P 0.6601895188230573 7.323507875668699 10.819495845267436 0.13364208566889887 -0.620936325848879 -0.12305865372609773
P -0.0726303408655756 8.124694294900532 7.083898158444148 0.2593330348115211 -1.3669694188998072 -0.08726221285277874
P 8.058790129928664 5.4872824546645536 8.2396057294721 1.6867735145131917 -0.8753953203975504 0.11863969872279567
P 2.612666179201649 1.1024692896153854 11.570257479545585 -0.4769926011436559 0.9097593996997171 -0.028317358887454458
P 0.8555510354996518 1.9980038080689189 6.757431451870609 -0.2606095875310996 0.5636742589026162 -0.13173638400575377
P 2.496802556311054 5.704403861923778 1.2298162849080256 -0.1401955705167005 0.6170112797628599 1.3236342464472817
P 6.368595005993174 8.749702468319656 10.57915396357339 -0.7797554250040377 -0.8756159210487888 -0.6113872487078632
