# total energy = -381162.4805689955 ev
CRYSTAL
PRIMVEC
9.27256708953666 0.00000000000000 0.00000000000000

0.00000000000000 9.27256708953666 0.00000000000000

0.00000000000000 0.00000000000000 13.57133922098685

PRIMCOORD
 96 1
Ni 3.986869955117129 3.205007114006068 10.000597855188278 -0.07970342666891435 0.1173970845649462 2.1685223993949103
Ni 8.68475106765308 6.680717546126417 8.235834577237446 0.818563399010171 0.21200056827414457 0.5322528071685414
Ni 3.9284064208049227 0.529955943362246 6.253211412685706 0.47300379169923695 -2.125663909468488 -0.0981912010604567
Ni 3.908442584266591 2.71410814968846 5.882890126581522 -2.771274598135595 4.248777541711296 2.6511819690163567
Ni 8.148657612258914 2.3067364680170623 8.041181143820227 -1.0817618303143692 -0.40386579925099475 -0.7684492559625992
Ni 6.799193133423335 6.537076212259584 5.000128775991501 -0.7734636784580551 1.1522725347404221 0.33096242622304933
Ni 0.8134414949498637 5.437637227348562 1.1601946977612108 -0.7889856853530541 0.788395617177539 2.421913871911016
Ni 2.1039917927218372 3.0173581776260328 8.690420315056487 1.0847625648139059 -0.048744002172922504 -1.9822608877580827
Ni 1.3025360177484937 8.244025962837986 9.356257381045934 -1.0853850288892533 0.34786614395692345 -2.107846935891725
Ni 7.566349683429057 5.9014881140153035 2.1058648512358844 -1.424184177547902 -0.6896572853643607 -1.9243002520828991
Ni 7.871704584053208 3.830386116092102 11.278569915958744 -0.6739830691622135 -2.373848383862357 -0.6731680294600859
Ni 3.727367897819523 7.512466797166055 1.9855820406499192 3.063160370072157 1.8029269564790238 1.9249615398159816
Ni 2.054494830603113 2.791209543472123 3.582344951484407 -0.5037099625338421 -0.6408238088014254 0.8280620825292254
Ni 7.354452984602326 0.6091575735490361 0.769056498963783 -0.02268612874360609 1.4449664044005759 -0.8531280243589179
Ni 6.489433763521103 6.840335512764058 0.29848392855034467 -0.4580867653780885 0.29654101132038607 -0.5733727171373029
Ni 8.655969019991685 6.993008326792682 3.5697917504135317 1.111941439221543 1.2013327826021827 0.7217107142554797
Ni 8.5847742513241 3.759265527959727 2.213051088330563 0.672980338929312 -1.6466241959878156 -0.7304375526055162
Ni 2.871055617058548 0.12186192872924322 3.443482698598462 0.49766169945723315 -0.5199770751249819 -1.889608357127668
Ni 0.33685473764429247 1.281320384678497 2.557722599872586 -0.3850160135343434 -0.8391088272616904 -1.0730385915087584
Ni 1.2086790955743218 8.193898466169978 4.754976015973537 0.10324007633827381 0.37086671861715487 0.3506359933925768
Ni 1.1718299147088644 3.0662060600616714 11.941950678976056 -0.3566210073314181 -0.7882845455209715 -0.059875336199393656
Ni 8.35270044692031 0.4994287986100422 6.201871064267019 1.5411639720697716 1.3326444203656922 -1.163275827829461
Ni 7.611358723167591 4.708785651211788 3.99264676429659 -1.636537244065459 -1.1172163144672373 0.7778972887493765
Ni 0.30849644629028444 0.669658290809441 13.342811141631731 0.41960017926711607 -1.0242863618057199 0.09160969118819706
P 2.4119708297790337 4.434178582432091 6.8384615269933215 1.3243302440730418 -0.8759514500113367 0.26161643152905917
Ni 3.4200101227447086 2.8230144479433155 12.79399943347585 -0.4630749626212992 -0.22515021828222512 -0.3785062374402836
P 5.184941234156452 9.09950371257785 8.638225035969507 0.03234576332055719 -0.10975242353549486 0.37418601279837493
Ni 2.721377842139018 4.3594602383420415 1.7640437267592972 0.056077559719858255 0.9185554007247922 -0.3704072624822331
P 8.242366173362667 1.672761796413595 11.463791294324038 0.6088858224422482 -1.5631636162693143 -0.5225720895456678
P 2.655894974682586 6.496054376288577 0.7902016605253304 -1.2832828392134288 -1.9436730001825555 -2.203358019016857
P 1.7726551596404625 2.2466038716626358 1.4120301967448867 0.1813231937949458 1.951439274391536 -0.6691175135397961
Ni 0.9401455581149252 7.320181577335409 12.584974448618427 -0.27034481254099246 -0.5137686323214249 2.0072239854613234
Ni 6.582947600719931 6.346052061527505 7.259960891595421 0.9090731722659698 -0.42498021263210684 1.0376363007500646
Ni 3.9231210576712257 7.383809931411596 4.930874755576342 -1.6856016056922776 -0.37550036073442433 -1.0404966530169952
Ni 4.394213819087823 4.513700116176973 8.125377905796705 -1.4427459997104894 0.25308371146769965 0.07237218311482375
Ni 8.829403111312146 5.348240409853878 13.03205497078762 -0.683675613859629 -0.8428356412939741 -0.658026545832957
Ni 2.737864466089391 0.5763187778683574 0.706620596991093 0.2980960145123318 -1.2967006552812312 -0.5970019265204686
Ni 1.9201353362044025 9.023069943611075 11.584603568480063 0.9015886909634666 2.369591408358216 -0.2804204516094397
Ni 4.605952884277233 1.8956186693175707 7.998051653392572 0.5948681680069174 0.27940332319883493 0.6196397185246425
Ni 2.218164908976587 5.170782024498286 12.815292956107816 0.3755882924625403 -0.9002781996821592 -1.5099500083608126
Ni 4.383402006080997 5.602994912898058 10.353642494642104 -0.19113760878220631 -1.1103524974678685 1.5368496609651336
Ni 6.091835367363594 3.078445848371285 9.367644093200635 1.9887776058306783 1.8429870577247032 0.6545450150422599
Ni 8.684472890646044 7.725670927925859 0.9212100492459392 -0.5791181042615123 0.19229460520478497 -0.9601468510133334
Ni 5.4678936131472495 2.783170227968763 0.3504446116947238 -0.6938253006991213 -3.293312412444348 0.4768558184554755
Ni 6.531151042009703 3.9933143891134786 7.30918431299056 -1.006959183381182 0.282128692549798 0.2592273624715923
Ni 0.45405256522222087 4.503463202318024 4.2600972659419245 1.5668212676265596 0.5446907758215781 -0.13348627681732494
Ni 5.254151673507176 5.840122266263015 3.586361827466016 -1.0606667002069667 -0.7927752343024734 -1.8495497985438858
Ni 5.017005775008416 7.844749232071355 6.8463469178861205 0.6323047155868207 0.429135372451061 1.331401034876894
Ni 1.8271407627520444 4.4661689382413075 10.341116184015243 1.0832594979058183 1.4811454254242944 2.634010856553709
Ni 0.9968102144482944 5.8513698899141975 6.301932260954798 -0.18446045387234683 0.3628479620777364 -0.37594207625753323
Ni 6.8419953022393765 8.337085444258653 2.21029620870421 -1.6293119299616132 -2.035107085024837 1.2324433879640582
Ni 6.314395518126732 7.17111579183136 9.772069880367516 -0.5867573659743249 0.2337904104557264 -1.4843968424820566
Ni 6.58567373538889 1.0208910706907686 9.976196168131022 1.3291500340591882 -1.7555680075790863 -2.3741957398994464
Ni 3.859529793862644 7.261041145639413 9.000321555232306 -0.4911444671640058 0.8923715432405728 -0.5453132398969253
Ni 7.133348626842682 4.101747786456372 0.33595993493832454 -0.18702538638604566 2.691836252202609 0.6288026159708332
Ni 0.992915736349781 2.105048865348577 6.8661475572469906 0.005204169908758779 1.1396679586025342 -1.7147869690069824
P 2.4920301724041867 1.8517965181423943 10.594967539043244 -1.0028014524590665 -1.266418202247606 0.66534236276808
Ni 8.575344050785558 7.461671675681159 5.962011085436272 -0.33022709071892165 0.5451692581198934 0.8443073407434942
P 5.80320817742925 3.9624831041669144 2.2777596964507425 0.28968079386544304 0.3032361639523745 0.3637879573935025
Ni 5.701497391089743 3.8485325295177937 4.929883518174601 0.19927952116305034 0.33567345854547354 -1.168520364057852
P 5.465788740460673 3.639779230870577 11.694910951593693 -0.5170557877131289 0.35649836571062476 0.4954680342400241
P 4.51640770571213 0.23895126727442734 13.01992181699737 0.22902358519470234 -0.44322090400984954 0.14037709039988727
P 5.0442671216980095 8.373313363141728 3.6034483864948985 2.023706042276747 1.2226027477245525 -0.880804921448896
Ni 7.99431573618807 0.16109694105838498 3.7200397881974863 0.8708969183065647 -0.7462053569627343 1.47880135067215
Ni 4.86295134851151 4.965014492393263 -0.04005470724320981 -0.8797605393447817 0.8935766192922674 -0.21947476516400266
Ni 9.29454288477816 4.026992352098717 9.057199480604403 -1.369576260395035 0.3377483387966312 -0.6826955093345469
Ni 8.68666121643473 5.7967637434329005 10.710717918927893 2.4648582366830256 1.8246579203982125 -1.902352287056898
Ni 1.1897166962613224 9.16982685995672 7.156058070440465 -2.4931025762407 -0.9761206007337706 -1.8273269825899432
Ni 8.339626127589588 8.352051367237225 10.239683574682772 0.46867122576215414 0.7600664312155425 0.7998635086078225
Ni 4.892975920137667 0.5881895180153022 1.9873595917248836 1.0826753432675742 -1.3124373492901977 -1.0654016437887908
Ni 1.7498724627641593 5.844118742597442 8.65456515336284 0.3972014998569417 0.9182221857550896 -1.251172331832129
Ni 4.67405061559981 1.7095367967438424 4.261156193082044 1.1956257049150762 -2.0693266683293396 -2.734390837735368
Ni 5.975891190830711 1.4041818961196921 11.886931903267653 -0.6187521737133667 1.8710521913920357 3.657328426688256
Ni 4.675256049296968 5.546923700846367 6.1186108315475645 -0.6832711793323587 -0.2924714692367027 -0.34834642602745164
Ni 2.9120774530295552 0.2351356059945744 8.328364595088052 1.7644043749237934 0.9410039595362956 2.1289207258428884
Ni 2.644814257235626 7.483490025599735 6.783959233261317 -0.13761135472929203 -0.5681574914849505 0.988662184844207
Ni 6.2656032710925 8.30187750773471 11.821477780768618 -0.6074503755473023 0.21061808610432112 0.9330355966188382
Ni 1.3708284729759956 7.784208642773275 2.060441327756867 0.1441069897559647 1.2758045285585125 -0.11373403389106218
Ni 6.258463394578559 9.34378021502365 5.4494486230673385 -0.6514087834061233 -3.2963044051931356 -1.9474314387837235
Ni 8.823246126889735 2.3360006891573195 4.443107137101277 -0.5145453625864493 0.4094021556881917 0.8978924730588022
Ni 8.390421249074484 4.353043622046396 6.2552068690828495 0.9999534414873102 -0.13225086174832706 -0.3662397613681047
Ni 3.935982107963221 2.575854177191236 2.1885140217965486 0.9144845730895284 0.0720929613115081 -0.18971347474117006
Ni 8.641985989104644 2.712179455773006 13.265318445524837 0.47735718357192625 -0.2684846194038021 1.6403044244173752
Ni 6.721897015734746 1.9695395726541147 3.0149816187292497 0.06928223133559035 1.0877013357272556 -0.5493642700378474
Ni 7.372376856422389 -0.017120867526416787 8.093118645547353 -0.45983331575555 -1.6578370339844994 -0.05809279037767415
Ni 4.145449394261832 -0.013460058113814236 10.743764420107157 0.39157824013289333 0.3584724587178601 -0.5329786295909724
Ni 2.777105969215364 4.954517946661079 4.395932952991309 1.6014203457576677 -0.13033924654791101 0.6472937327964852
Ni 6.24170786618805 2.022319023455872 6.13223686860891 0.9938920657845788 1.2027708006002897 1.5597329933212105
P 2.3890861346668175 1.1888728926733112 5.075586143663577 -2.488902422116423 1.425605997596093 1.3342989252499795
Ni 6.563985201406931 5.686800372551305 11.674948042312051 -2.167089523603126 0.058649691322408666 0.613712040186298
P 1.4811905642343428 6.353210483175248 3.5673354474413976 -0.19077148369203917 -0.036039410122060515 0.7814999184989703
Ni 3.9424358145264717 7.084055661195784 12.679675174380609 0.030631865953244023 1.1375347143096153 -0.4835640837135865
P 7.156659860032354 5.245305644683409 9.190632645569682 0.29472324138535694 -0.7811106534803515 -0.22327485563638325
P 8.08816338579534 7.217784621045212 12.253371692866988 -0.5592355064049724 1.2965713287922185 0.5293292057638432
P 1.8403727157200886 6.9870738839759 10.757090953257594 2.0268317323899225 -3.314234250198679 0.40003742664384007
Ni 0.6573406129378574 1.2832954414284574 9.214165493108295 -0.4521315762359181 -0.45776074949723744 1.2829907618943064
