# total energy = -340893.063348627 ev
CRYSTAL
PRIMVEC
9.04485662448532 0.00000000000000 0.00000000000000
0.00000000000000 9.04485662448532 0.00000000000000
0.00000000000000 0.00000000000000 13.23806193805637
PRIMCOORD
 96 1
Ni 6.233552400374823 1.8757766426054843 11.36543221510746 0.02566603730753644 1.3368407178352268 -0.438271016203742
Ni 4.8310750169009085 0.33423458803487444 5.86877694935295 -2.397443140463161 -1.1495739048623363 0.20640507646423806
Ni 2.850712696774052 1.558302173955467 4.852107022084723 -0.1417765418505752 -0.4474650239981842 0.7655706488632235
Ni 3.242345945152317 4.115916290769297 4.673989373401413 0.10951845314781783 0.7259509775890723 -0.13549276572439245
Ni 5.008426566225396 4.492770243370521 2.684096487815396 0.0011431124655077087 -0.17181525430451056 -0.18308748478422016
Ni 6.9782968526304865 6.154418949485392 2.6880545170883656 1.473656830356733 -0.4891716597083511 -1.059245394379408
Ni 5.261981032882546 4.641205385963554 11.496965234066124 -0.6800670705727643 0.3820163074760711 -0.3434294483418085
Ni 5.816258893661512 7.8424334127545325 12.473709355080365 -0.37236541464986833 1.268393580806422 -0.18126534397381686
Ni 1.7876978284825822 6.3987295726393985 0.48677428657871524 1.1668815429028485 0.4032765024064281 -0.5197050524105179
Ni 2.6891172877455274 1.6651852450676394 0.38324866625750814 -0.51083551783503 -0.6502073068988544 0.3763017735897971
Ni 0.6651904155316967 8.942839718464782 4.763610335584281 0.2806168838909619 0.9282196632874337 0.22152470571449592
Ni 8.664230998868586 2.4165957566792877 1.224255718939052 0.09734247990691623 0.41240391862899295 0.5851982490173212
Ni 6.921965485372586 0.5725710833671331 4.913319898480242 0.48010312174817954 1.1227557562282278 -1.6626820207816269
Ni 0.6212088955528484 7.394884860524574 2.705568977518391 0.3111734165215802 0.9920262162204334 -0.863297765803068
Ni 7.439078030149189 3.916522425772441 3.9022098445988855 1.137194814471693 0.21364761695926432 -0.23206802844798097
Ni 7.55464416365179 4.116685103585116 12.41716995611936 1.2636121002573786 -1.4444138743312156 0.7698278814776807
Ni 7.991483605600219 8.878051410232871 7.001742930055972 -0.016126730358533518 0.17752053221940395 0.1646418764845229
Ni 6.874534257064873 0.9665605169044674 0.15312218731253202 -0.48404950799043733 -1.412668977819451 1.578293015711585
Ni 1.670756876768164 6.37334970486071 9.331456507148038 0.3880542861400349 0.48863944135396487 -0.6978413638370498
Ni 0.04879790614853871 4.868113704910077 1.2998734340460247 -0.6236537247800421 -0.24102780874443003 0.6684582826892422
Ni 6.076967841934107 1.8591341063571645 6.933355673360362 2.1851407246778813 1.5198754950046405 0.7667862664378794
Ni 3.3576226432419034 4.188374637446086 0.6033670113118506 0.27859933924030084 1.0919588254520292 0.34420746415841363
Ni 6.009728377548233 5.8023750386934845 4.797552969159863 -0.04002847667679558 -1.2406580625643664 0.9395464011541625
Ni 5.352149208893144 2.805099484654336 9.131429502185215 -0.002356673157634651 1.2152213676588168 0.8262581965512672
P 0.4088085266836644 5.495311200055324 12.295975208319298 -1.0481901650065109 0.02435554602622902 0.1565704123302981
P 4.1343768432056125 6.030875252411587 12.733917218294179 -0.3573380880031007 -0.004737000464353132 0.20223089048189044
P 2.4114582780982845 8.266076408840842 1.4616144652667218 -0.6844484874699116 1.2295035886094439 0.3069493511379036
P 6.388273718344259 7.805313321035452 5.786647841938822 -0.6520659573741481 -1.3958619335644413 0.3601542172956571
P 4.591214463221996 1.0270706079377614 12.577482804473965 0.12415214390059263 0.0020399132481642283 0.07632679688719757
P 4.189885128507753 6.27543913155198 8.15424941908012 -0.5540300509446329 -1.1066732488440683 0.6163309658663837
P 4.751742579165031 0.9997641856911971 3.724806739591454 0.41983080722068344 -0.5818362745236237 0.8717150433324858
P 0.1929457866862973 5.571025695128522 3.642545577270139 -1.1729593736658122 -0.9774292922428651 0.20481227805582145
Ni 1.502169793544014 1.024881752626841 2.716820779199321 -0.1797234534079937 -0.0689641858745393 -1.0861741004494518
Ni 1.8228913657337849 6.494523649490462 4.788842772199465 0.5979522062488799 0.15667351356706566 1.1546844866160244
Ni 6.230974616227664 5.654147927803556 9.132634277091885 -1.179161388711466 0.622285897898238 1.1053043935209996
Ni 8.49724485527267 2.306637434303839 10.238542569106404 0.4286242371425973 0.2738196584634704 -0.26740964117206845
Ni 2.485119590710414 5.272436887177686 7.029345119115211 -0.9615817836876474 -0.5469790576351224 0.19769392184348536
Ni 0.6443691555079832 0.18387289097396592 9.260328658885449 -0.5493627273759507 -0.5397732839153027 -0.3485531427216191
Ni 1.5591704801945099 1.1230365370653022 11.339221125002021 0.9239081803962732 0.5933247347791974 -0.8457592426986724
Ni 4.247392327131025 6.894215865149843 1.6746543055015344 -0.1340812300888465 -0.3013008946028746 -0.5773782387522701
Ni 5.686401886641333 7.937720977632821 7.916467373460916 -0.4607892519109161 0.16192730576683725 0.3578713347987514
Ni 5.266639134060744 2.9195531007881628 4.948082900554586 0.09429752243300535 -0.11680933038227624 -0.36614874431619526
Ni 0.5608308594267423 7.217614714909996 6.796076456967698 1.078916133335458 -0.48821083845697855 0.9914096656823572
Ni 5.000982649196936 4.447337928383939 7.205609476669564 0.8633198772902551 0.3362095335546016 -0.7864271805972586
Ni 8.185902799435892 7.168157438711185 8.916404315914257 0.8198366092956397 0.5634767981798295 0.5547895548184768
Ni 4.747627169386234 0.16392626858895498 10.490885929457221 -0.5376294980994224 -0.9722911996853513 -0.15801228698314723
Ni 8.234039526562828 7.2436096329413395 4.846891757736472 -0.7072595718271562 -1.0367430995118339 -0.7689251671577532
Ni 7.152880675818026 6.102130633153036 6.962399612570677 0.3948556253325845 -0.6438355990445557 -0.2563197019064941
Ni 2.1982529169866547 5.495302155198667 2.6763785116302374 0.7049946870523794 -1.600668555193308 -0.6266416037637723
Ni 2.362353751309084 5.141404048792136 11.347706105031666 -0.002132215851654392 0.13636694079922967 1.0715180410991738
Ni 0.8640271173584998 3.2152927788921404 3.729929746401807 0.10508921373187063 0.6801753140158544 -0.5131749646014839
Ni 3.5677437082336 2.465374668628847 2.7616715099028775 -0.26679951839189536 1.3107172812752976 -1.2525183043370622
Ni 0.9769078329197273 3.171108654124182 8.375152857692264 0.7922800398336097 0.7364747599385316 -0.45558096823709926
Ni 3.3746360186131477 2.7622359089582553 7.297362311566417 0.0012063616032753418 -0.1572617819703679 -1.4325901422234102
Ni 4.062470232784882 6.858434412215955 5.969823374464557 0.20809300568962227 0.929713731334457 0.23063978064188667
Ni 0.6470382927073742 7.539747284738212 11.472196798597428 1.21711524224742 -0.6730451307289763 -0.6268863727847269
P 0.1418097850920028 5.345148489840863 8.091315306462832 0.6944503358776298 0.911554801037243 -0.9179792165063481
P 8.484545876526669 1.6663158521497266 7.969908909017004 -0.347053418247641 0.018952115622470584 0.16995069029194604
P 2.045123493788797 3.206383595085295 10.401979510950232 -1.3110309558609743 -0.7614486562750499 0.35983668605523833
P 4.02538632049243 6.04646858528773 3.8844575044387892 -0.8763350586030003 0.4678001360111105 -0.47153029247750405
P 6.85171408372003 3.8611136338935235 10.396313812740477 0.6853602006509035 0.08310705303382461 -1.1487277548119572
P 6.495491449152729 7.786120135209945 10.104427243572253 -0.9008464134808034 -0.37514554849816684 0.6080777247186561
P 2.364515472050034 8.418626961212672 6.077806300146183 0.1091744395448378 -0.20559620740969753 -1.1023609946219597
P 6.954327982490242 3.972627671613924 1.6863701083289522 0.1375589042248018 1.2049235852772346 -1.16090629915602
Ni 5.490463156887334 2.89990767212982 0.3793548554668007 -0.5202138737261364 0.6321080261949823 0.2163128224962533
Ni 1.5107895419378448 1.0974034133002268 7.096898440027074 -0.12382998467448351 -0.017681476440163095 -0.3583289911614603
Ni 6.828966269228441 0.8079634778576376 9.212605281707726 0.10162336667045725 -0.483722977888954 -0.994322725564094
Ni 3.0525938973514988 1.5822167749557705 9.284210698401788 -1.6546730344342213 -0.12675718562360752 1.1701995515324881
Ni 6.292425372353255 2.140736673506727 2.660109527961839 0.6175617529496913 -1.0118350234162445 -0.15235714557989888
Ni 3.9169113546086787 6.671278238275609 10.483432967572105 1.1169743736597602 0.16930045830245682 -1.133583185861035
Ni 8.387024232054177 7.049036676542502 0.263581594746762 -0.5517893345395722 1.0970922900238524 1.113689018040269
Ni 7.515380440905074 3.8542124082644644 8.19847695916003 0.5926107394313084 -1.0589887982839117 -0.41606439819971575
Ni 3.308988448998851 8.049569675049518 12.386563065678768 -0.8458001232389368 1.139471783431328 0.8080853822969826
Ni 9.093156191242405 4.718529865521644 10.187562139046605 -0.4799948783050895 -0.2639720762454293 0.7857612648784854
Ni 8.802101748886598 2.1698158876580034 5.683232568868826 -0.832599822498579 0.45085116686159776 0.8196877424226011
Ni 3.6941817594375483 2.970140984069061 11.845139755180298 -0.06860217454943024 -1.0637633368544195 -1.1304793501247303
Ni 1.0835376480455123 3.329755439882624 12.532168977109585 -0.15884455307645545 0.14291759743355387 0.017375772274286203
Ni 2.983717313910762 8.333125931236928 8.215131253722005 1.1936624105411184 -0.5890883281003467 -0.8418323968404405
Ni 5.441865142070909 7.813381333173225 3.6363236203759977 0.12195256514611257 1.2393097760665883 -0.04930167444860541
Ni 3.0381311715574424 8.437259365925465 3.7986616121360366 0.28248761855111354 -0.6951887567055511 -0.42604207823771784
Ni 3.4664503585352655 4.259838049890638 9.247501243174925 0.406329687410455 1.2209819242916777 -0.3281565813431381
Ni 7.391809609261299 6.308896056325097 11.456841345451355 0.4666523955599124 -0.04161741843047027 -1.5519952583573207
Ni 0.6241710861079162 0.1484577547346741 -0.05845057717256431 0.48865049709755853 -0.8273987379136136 1.5355764506796652
Ni 4.431753640364452 0.44761729314054843 1.526930993127384 0.6620541789351114 -1.1086049186491425 0.1379967630931688
Ni 6.247119685359866 5.787487204636563 0.23965433094713934 -0.7631417277067567 -0.8024834627291727 2.076170944944682
Ni 7.938860629571564 9.047660562259228 11.169482631525472 0.24173640477568048 -0.4376758058219043 0.5530856847534926
Ni 0.046627140550931756 4.875277231382181 5.820444853322231 0.1802096490157929 -0.9220485014797153 0.12395802561191556
Ni 8.353920056690672 9.198076528460076 1.9074987638718475 -1.2585470270296453 -0.8181234832592749 0.7673020297320333
P 8.360748923466476 1.4958474387409837 3.618809159945972 0.9146421817133151 0.3796388083828301 -0.906204335358607
P 1.7093151006956577 3.3023585690694928 1.6649645505652162 -0.07168826967392171 -0.39784016188220517 -0.1615390691894831
P 4.7634737582487645 0.9397786963439916 8.34498283382819 0.11633239074585772 -0.82899487875614 -1.5774178121954834
P 8.537024134848817 1.7590346777375139 12.319327219235555 0.15428855827465685 0.4541056692431535 0.42812081514361755
P 6.455015715614016 7.923041175279003 1.4847946239065015 0.1487894828332986 0.045364544177728325 -0.517175858230761
P 1.7411801306971966 3.1206564436931337 5.80232167403921 -0.2593818857715855 0.7394577538262556 1.8280456059235226
P 6.991900317042156 3.9478899886578613 6.0138528321836855 -1.3152923022404894 0.16350827710071195 0.36264073116293677
P 2.4026304980013498 8.319088313705736 10.25572508329713 -0.35035625736862885 0.7011408605239279 1.4772954555505846
