# total energy = -381176.4092091695 ev
CRYSTAL
PRIMVEC
9.13887639577047 0.00000000000000 0.00000000000000

0.00000000000000 9.13887639577047 0.00000000000000

0.00000000000000 0.00000000000000 13.37566937699336

PRIMCOORD
 96 1
Ni 2.943156770407716 1.4876902237690057 0.6302004459121912 -0.5006441791243248 0.022323603197864778 -0.7429482834780172
Ni 7.472328932549512 1.3002427360720397 5.057607567124692 -0.626898714079901 0.8724310955629039 0.23115297283287936
Ni 3.8887105861439855 3.999300125835907 11.681761064339002 -0.6704388034543808 -1.847540738533657 1.1600213254479055
Ni 8.38099824434424 5.679601302298651 0.8159051499367959 -0.7885689095306097 -0.4989032851738182 -0.22557573585541796
Ni 5.309421986972566 2.0528840162032553 13.046520610129996 -0.829928960534635 -0.7088145750191018 1.4725219454213416
Ni 0.5258783474499801 1.2154339658595754 10.708560320623555 -0.47011490018721613 0.4492025755145812 0.6793489614598172
Ni 8.952918249588445 0.3778742490026898 6.538013192754004 -0.8028855832635979 0.6461740173697452 0.2235677042864537
Ni 5.434779950442865 0.7711813180762619 4.044320971169706 -0.53924415088471 0.8411677666732481 0.5752948738606801
Ni 5.6349121981672985 8.241584689431402 12.595519816234086 -0.22695436137049949 0.28465737250892265 0.20072756646348658
Ni 4.4378839287740925 0.2325542384661107 8.248641729556194 -0.5216886584994499 -0.8502054513954841 -0.17451079885880266
Ni 2.9540228940911875 8.235589586709487 12.529684266693831 0.5064597573648375 0.36636960207774966 -0.26950714713104557
Ni 1.389017778512112 2.7476579328662254 7.677353220650534 -0.30330224130361955 0.4241870273068501 -1.6998727708993113
Ni 4.294632045899052 2.872494980398796 4.020605587688958 0.8680483931141759 0.6169259191379053 -0.25432786828744586
Ni 7.581483668693659 8.037148031063643 0.6220211518022607 0.7466182761304369 -2.2919065547812267 -0.542609210702201
Ni 6.096562524383097 5.972685058841078 8.526172946750822 2.3988212517576106 -0.5260366510555005 1.1487573224983119
Ni 3.757686519491389 5.094567009850257 2.8063889201259666 -1.3702270066051563 -0.2923465136230643 0.5691584219456391
Ni 0.4740472116461019 2.0818816700700817 1.0346213022115582 -0.7174164577555 -0.1910756451960193 0.7532393809913802
Ni 5.924249015508528 7.889939014837094 10.114560790720589 0.7192625098253033 1.1150357618761508 -0.06052094020319254
Ni 2.4153044257200316 8.64123688018154 1.3404556186893761 -2.4053228003215543 -1.3723126854895913 0.781039433922784
Ni 5.358177890968633 7.58703096648665 3.8668394278603144 3.1965959961572046 0.37461512991599355 0.6732783297857049
Ni 6.205397399863727 3.1008206608932145 11.308045003962029 -0.06763543976078673 0.7489955181133616 0.16824039246905864
Ni 5.483490160058429 4.693982653737872 13.321257159013097 0.2795912708399249 -0.01563796364757307 0.13929748418246332
Ni 8.819920185698145 3.911265332359973 2.3010428856109377 0.1454586186878527 0.6450396466549858 0.3633783806599097
Ni 1.4330214669359285 4.4265791390377975 12.771382864586084 -1.4182189611034026 -0.9473041907227105 -0.5243363805349421
P 6.299719740096791 3.297087164027145 5.231397918377099 -1.5853522365512116 -0.7447706813987367 0.01820829547791058
Ni 8.835483691697265 4.20511675449484 8.749747325560602 -0.16975065846599796 1.417775702918397 0.6733446642472662
P 1.3387356822072656 2.238357506662518 12.548169471382273 0.4339870441164074 -0.008578999918262645 -1.7570124533350966
Ni 1.676060737952121 7.657921228398082 4.470201736328223 -1.603054024706349 -0.9539368655478798 0.19839531878588415
P 4.503501059175545 2.0945664300975495 1.9497984076774393 1.021821702315311 0.5690550635985554 0.7455268428384708
P 9.06301428997094 9.085916313478746 1.7676076015134699 0.4785936270821886 3.5074755355874494 -0.7551756787821445
P 5.542572994048038 0.02031846323419948 6.3664033773391715 -1.1432510479681022 1.579758287403202 0.1621702750155788
Ni 4.296222210340535 6.993369574999403 8.679404482327588 -2.879457877411757 0.07982118319370125 0.06233845302790555
Ni 1.9849456112722794 8.95852038063804 7.0456466879569835 1.5575457558619048 -0.7654940299890172 0.8666983068441848
Ni 4.130305914736303 4.6717020738049 9.627444986250799 1.6110786947830384 -0.47651900394134705 -2.4483448124090352
Ni 6.560607236137224 3.565358871956766 9.122901345057393 0.12178338655809995 1.1823503279624088 -0.8300454315078415
Ni 5.192535761647414 4.5068550267044225 7.012221248619475 -1.1465788267897545 -1.494363466776465 -0.17174352052631067
Ni 6.805556532258416 2.6175843093280786 2.827028157911293 -0.029059122149485434 -1.5553934854055924 0.7346014541752188
Ni 9.017329048344635 1.6497133581544343 3.3301004400525227 0.7131795368560169 -0.6053772950683575 -0.31391472671214327
Ni 3.4968629955836605 7.406784913156863 2.9072684039611265 -2.470364768323552 0.4580736527519659 -2.4445655478722608
Ni 2.0203039229050406 3.1780167473139778 10.055466990079658 0.07741231664189249 -0.08859790094506677 1.373107670587061
Ni 3.2420528521500485 8.309596205371184 10.27034664216744 1.7631229371082089 1.969076784967641 -0.6439890939032845
Ni 5.107772685815452 6.988087304613324 6.442966139646171 -0.264895359390647 -0.6200048151735451 0.02885754766164063
Ni 5.839129523508648 4.489436328856906 2.3371569822972087 1.0096567848180031 -0.44890304199629144 -0.9752582527334752
Ni 0.44226311445623895 7.02467936451965 7.233869152347271 -0.38278660998319236 0.5901283393290869 -1.505030459572008
Ni 0.9388732973068185 7.012588631438714 13.163102510881002 -0.09368457143935477 -1.038830835278798 0.6810615732755497
Ni 7.102094783966825 0.9512107800424678 1.0597459003870007 -0.09815803382967611 2.066718798392847 0.8770804214094572
Ni 7.287833301833001 6.269579726717406 3.1393364542186917 1.8435280178298379 0.2195920074681573 1.2857973781051661
Ni 7.548921853147644 1.0290557266663651 12.12024159797725 -0.6387988079515966 0.02155201513916288 -0.06691578798594282
Ni 3.2039071833066406 4.241169620711238 5.556613963288817 -0.6964953913321166 1.2910714820199118 0.4357071121313077
Ni 8.346261376286312 6.854019992219268 9.052224932846713 -1.0118314238718185 -0.5093147103151293 1.2712495621979785
Ni 2.019252952153485 3.162444102438758 2.554351511701241 0.06704742846780065 -0.46375116275271744 0.46742552628051104
Ni 2.69264189874133 6.129508172725333 10.764765322529122 -1.5743893097818047 -0.48375331690625717 -0.20597878756009688
Ni 7.471469878196068 8.843480208285184 3.3301534455339055 -0.17002808049710072 -0.4310045644493158 -1.008201026208083
Ni 4.538274482737876 2.183432861298627 9.642948175667655 -0.9088307172378606 0.6451571460694566 -0.3014505328068615
Ni 0.12205334587236438 8.941174793799327 8.828048302101912 0.8228093187707184 0.46793203360328445 0.7275584312855083
Ni 1.5905208576516185 5.542828882578852 1.600693340639064 0.4382116237207162 -0.48608633591480793 0.36734070774176736
P 3.5659803155315988 3.1738859753165607 7.825702768614423 0.5159455853680855 0.9975903405717722 1.1568280153215882
Ni 1.108710170758158 8.030403540501489 11.125346076286872 -0.13304147597042248 -0.3334134588667032 -2.49339413933919
P 1.412989050523674 0.5877860080422487 5.190227281544432 0.8669299632390166 1.4183531726884218 -1.9577652166095638
Ni 5.9431847667887245 1.9286866899977182 7.6630682434178725 -1.2608823600310415 -0.7544161749083007 -1.4045684601995037
P 1.7699535510084632 7.3855461650993455 8.992663221749437 0.2220057591159725 -0.20635005485658656 -0.5373577324952746
P 5.289700292347728 0.7798751309106494 11.137411220514728 0.13173741244701825 -0.7731291779367717 0.7862639155465169
P 0.7841347610610837 4.974637538783645 10.658014110799405 -0.9171718901137043 -0.39766275576407645 -0.07267814439101676
Ni 2.6973118644286753 6.607124115488672 6.748680736847073 0.6646882741238488 -0.48159667557457053 -0.5583160799144965
Ni 7.487444633619709 3.292791892259919 0.28920338975016247 -0.4525239265783303 0.13085243873890368 0.8380099377705569
Ni 0.13230259541905387 7.295144402713387 2.5017719019447333 1.4398990171799977 -2.4963323960319075 0.9512662606942522
Ni 4.985677301113025 6.120643462907866 11.370308166834606 0.845666168764234 0.26415513879051283 -0.1525918872985243
Ni 1.4023788153710155 4.8490419645347345 3.982405085588948 -0.4591440029980092 2.1950518131440067 0.2537871652926274
Ni 7.177929177848617 8.815908219090034 7.994329654870058 -1.8456226955753374 -0.75596629300424 -0.36404326793741815
Ni 3.1961665552495333 1.4735980768220642 11.533852924090764 -0.4024516925122876 -0.38163449865662014 -0.04350512237148637
Ni 6.899705233845572 1.2109924720747416 9.769360765439949 1.0629207863484662 0.034019808588870444 -0.18317721628454905
Ni 4.9714023766440745 9.101717430256477 1.8700123637697996 0.40386631347162705 -0.13441624483076206 -0.8945706077744205
Ni 2.0149850970145606 4.917281952377026 8.564628423494037 -0.09357144290025819 1.8304932961330669 -0.7954255274411268
Ni 2.134649540674259 1.0449390933290013 8.987352620847448 1.685565867358336 -0.42996712432373696 0.863721483604048
Ni 2.953209534118245 0.9141160819506153 3.210989812284513 -0.5176407136823215 -0.03464510087769518 0.7371013377789369
Ni 0.5514690283065471 0.1330483277088531 12.971870614590827 -0.20371853077101046 0.6868660957724687 0.628482513627253
Ni 8.072780508979418 7.746394687926839 11.572976452676924 -1.2723852184643185 -0.27460744447208835 0.034405988283695586
Ni 7.0549655999166445 8.011294150575381 5.616564076620364 2.6674233705758836 -1.2739731317767284 -0.8497377677304463
Ni 3.163458517685912 5.763459629396665 13.063641380616637 0.8703626430696495 1.2951060571006017 0.7438777372708222
Ni 5.827038790427712 6.635811047568081 1.5618768782898806 -0.24973304982791183 0.3723944681155909 -1.175332244773363
Ni 7.753842871948731 2.932674479520464 6.816013234292587 2.0023368325723516 0.14308780446283098 0.06795502788373459
Ni 3.6680615615739716 8.638833355767114 5.1660841986621815 0.10271891372748117 0.8637482230769253 1.0686227218292499
Ni 7.9637445782245795 4.360367981689812 4.509072118046399 1.2525455580305718 -0.46054088334553595 -0.6492074048794303
Ni 7.425976552967873 5.326502546404366 10.58633333610528 0.28817721273672303 -0.3298825628953093 -0.05459711851958984
Ni 5.6769967226100135 5.357757502668011 4.529375959078838 -0.4964509669785837 -1.2848386137363226 1.3793191987144116
Ni 3.183052268045343 1.954613681494783 6.1939107464930325 -0.016592614251358523 -1.7769703845142621 -1.0308794416422054
Ni 8.526918679040623 3.2697893411150085 11.647519523365718 1.354162754053442 0.47985681006532843 -1.022733415496303
Ni 7.338234203527155 5.240076195122116 6.740481337209721 0.2517963601148438 1.448597316284944 -0.22549911698121164
P 3.7224287354957335 6.3565178550612815 4.6713319493228305 -1.2901176027470749 -1.3073871884608 2.265315177445944
Ni 0.9606421001781643 2.9155208090798608 5.010365061010866 0.22696387445219623 -1.7197237441869673 0.7913475007170113
P 4.133148105203552 7.358230064435007 0.6692974717576591 -0.7473240439482097 0.6130373827167765 0.22392251652271114
Ni 0.475949011762612 4.766417385710285 6.489446463493217 1.4858263758397314 -0.4578525378800954 -0.48827331626379783
P 7.00396153239986 6.0117354764184325 12.524213735460084 0.024256301444203387 1.0114269893445482 0.7820771311586789
P 8.768258119102125 2.1075253564080314 8.696083845098576 -0.7073683294908785 -2.0271893728396573 0.7688174379352952
P 8.695275054563684 6.322594346976295 5.27033501389081 0.3815205987865752 0.5765986802737683 -1.0722346075502243
Ni 3.4362722470374716 3.6971780208301044 0.8271432258775574 0.6240481320049833 0.975362125301191 -0.508892020955414
