# total energy = -340877.755440413 ev
CRYSTAL
PRIMVEC
9.15290210970831 0.00000000000000 0.00000000000000
0.00000000000000 9.15290210970831 0.00000000000000
0.00000000000000 0.00000000000000 13.39619742708036
PRIMCOORD
 96 1
Ni 4.489059063448297 8.271514096944207 3.1525138796325787 0.2601478174033326 -0.5599834403145905 -0.42852190723677813
Ni 7.450874061691602 7.683961862556465 12.787473539201184 -0.5560913043490359 0.7798528698138504 -1.117979932106139
Ni 6.603406870845855 7.831085608378418 2.126512014078992 -0.7292677006671312 -0.12619102870749235 -1.0563955836354386
Ni 2.6397426846945398 0.5353504887397174 3.153370591254386 -0.14161996166805285 0.3353487282162031 -0.7697977995706936
Ni 7.697865120606954 2.5316377598529893 9.141618244873868 0.2006049248426932 0.7910284268146958 -0.9701533274067422
Ni 3.362245305320856 8.793824446286603 12.258511776017254 0.7768616483960105 -0.3462239803678102 -0.16466270242012931
Ni 0.9435909670447096 2.993319286729005 10.781607756205203 0.845762328022466 0.5144396902465204 0.10315985791964169
Ni 8.124912066532971 5.865655515583519 6.652565276598035 0.12496975470588155 -1.308634687714656 -0.6409582774967606
Ni 4.775004873030454 2.6186727044231612 13.290514284084269 -0.8500630122803489 -0.6143417033504968 -0.3051683479780809
Ni 3.2171901153378837 5.054388051919919 0.5182336468172568 0.8983591282825754 1.3202427042672296 -0.10843190495185841
Ni 1.524708711366952 1.179635155236965 6.346488574483789 0.4937893609860205 0.8988772055695745 0.4878159170114051
Ni 5.318879459349119 0.6375096884794917 8.729176584577319 -0.5634516013688489 0.4257746835089441 -0.43855717998559307
Ni 7.23642156918144 2.84480429981181 13.067373857050395 -0.5322232394821866 -0.7151847402115038 0.9315093897822989
Ni 0.13321591132049262 5.482780474431468 10.701337721460652 1.1962913635235333 0.3424048637320361 -0.1915037338723734
Ni 6.401695217839499 5.090862366160337 3.7990272777527982 1.7092110175811015 -1.0653723332127523 1.096309389111241
Ni 6.476986989217586 1.6712100598568214 6.860701351477754 1.484270344206521 0.1409915840554346 -0.728825728033706
Ni 5.472968563549228 7.239936283527317 8.713061070127356 0.4902204126878396 0.0769492609625449 -0.13842973686552934
Ni 8.625356133135002 1.179397179786463 11.501466103460364 -0.14192643716487816 0.03128518326652677 0.37680648114035753
Ni 8.003169317797262 0.7533662059760504 0.7851112157828364 -0.2509769495373419 -0.25229463990750095 0.7855697176929697
Ni 0.011586658568869531 4.36582439169598 8.385014657480795 -0.002202406967957497 0.3633040757785485 -0.0881880671011578
Ni 8.404276939618551 1.7394449438373272 5.039234507464101 0.6762543816948935 -1.2405757872632053 0.40123787470984446
Ni 9.005375468881027 4.245482036957456 3.8548096386406843 0.0020067460173836408 0.558957055932605 -0.7370319179935823
Ni 7.384542981315112 5.413749287981974 12.344944459639617 -1.39442751511076 0.6020744559473695 -0.23610363196993533
Ni 7.6281474665117806 5.041665518219999 1.4282892964352494 -0.2017223262765881 -0.29441033813062845 -0.06418501931834107
P 0.8312363498313087 0.2061169447112281 1.365287126495207 1.5170156569583424 -0.5573622006416594 0.7986422346062118
P 1.019825487322863 6.6455285255847265 7.154841754168932 0.5700256550419409 -0.7127974709262498 -0.9014287683468346
P 4.626599720936569 7.804212688275565 0.9216560375397755 -0.7025557385935837 0.9108714018169732 -0.25494261905330934
P 3.9830591853672366 2.171324621988926 2.5342252852321026 -0.7650086057121663 -0.5183264268954364 0.6623614257628851
P 0.3278752533802389 6.333936284759997 12.73956908101511 0.9244743373123885 0.553266433305731 0.7607063787923867
P 1.9645331084045436 4.04289170536463 9.213261669537719 0.855121914860495 0.01667437533188741 -0.5969960129831977
P 7.947409839164232 3.647092766669927 11.10657238676776 -0.2632791639434627 -1.470891351796454 -0.9473221884448395
P 3.120443941806838 6.366282640224398 3.129230727671531 -0.15778165902957988 -0.5026570957892956 -0.26073891402011223
Ni 1.2323558704251227 7.570337737843655 3.026241359725582 -0.579829271395924 0.8339596789605831 -0.45840018285344925
Ni 4.3336702471723685 5.126293249579324 8.872341700309189 0.12593494683262826 0.3555169756339619 -0.1932554264561575
Ni 6.583627449748354 4.149458942679859 7.809728226986048 0.1471663454075788 0.640461026145368 -2.0957704643431647
Ni 2.7777318343779878 7.830243541399717 4.794298275034816 -1.640060169617053 0.6695484304296276 1.0616038673092554
Ni 3.3472253932333964 8.75269130495751 9.827303317436927 -0.8602111564579444 0.07816282165467184 -0.5721596706658082
Ni 5.53762466287026 8.521672059931625 10.792659885300637 0.19396813625246595 -0.5745117158377525 1.7284459545513136
Ni 5.255761047554408 5.80649115742792 1.9874199397114862 -1.6132885579501635 1.9127405722697572 -0.10665347289519696
Ni 0.39127099810380395 1.216109469477383 9.223014086557335 1.2764125944561566 -0.28746758826420815 0.14148112209734343
Ni 5.476712100443664 3.5013419561393335 1.940640373174133 1.9682136656363973 -0.871715557553118 0.7342384144088452
Ni 8.835470150124472 7.432495034591286 1.1436175708034724 -0.3995265484456926 0.1597107577314927 1.0059847352830547
Ni 2.844072067656419 4.561028331421298 7.161513304394739 -0.2628402766338312 -0.1193171844057945 2.39269405581395
Ni 7.617804687316882 2.5356741896095825 2.853778720166322 -1.138604036114394 -1.0039733612799808 -0.3153915683679858
Ni 1.8954470045433958 2.766318165655829 3.942367213911766 -0.8437404124964308 -0.9279512401173955 0.8242172548618385
Ni 2.7830039058968037 1.7017624465405141 8.797711683741536 -1.1245524431173342 0.46411651651193614 0.9273773698917964
Ni 6.442636148227803 1.6296009676267236 10.699408289731196 -1.4512519802989716 0.3303579598698311 1.3361102674271055
Ni 6.986547346154235 7.291531191776561 4.955722514851555 -0.15596723152866043 0.2789922038033454 -0.8925512633515467
Ni 6.862946558324222 8.422262391935345 7.105021593606317 0.21366921422581914 0.00831391918233407 0.6021937551340532
Ni 0.8624614748077668 8.095393957768769 10.457272845296279 -0.7225722909248267 0.39230611943785343 -0.9098897546299943
Ni 4.549989931678778 1.5250839803465897 4.757511846838161 -1.0733489236603257 2.5781811511785984 -0.7766832138366172
Ni 0.9064256087076412 2.074056733047164 0.030916672180999687 -0.17712226833972078 -0.7122202582665411 0.18097609486817218
Ni 0.9557643266280862 5.46722969403135 1.6053064200010418 -0.09941247506206749 -1.2009121501249962 0.339311569518693
Ni 5.67546736612263 3.8423241651010724 11.362212022728476 -0.39758228023512815 0.5111419933318552 0.11040008442182277
Ni 8.552444116261936 6.817703764022996 8.747475981430737 0.45222182195687927 0.9496374668415773 -0.14933121426938153
Ni 4.31386336736904 2.3325346839002137 7.27797940516066 -0.5797737355676402 0.05027380855388761 0.32924235820814907
P 1.886449701934028 1.0437511730002662 10.97922806204331 0.37843733187556117 -1.9413510369175986 0.23242258357392231
P 8.49402114316367 0.7163372258779238 7.485098592634579 -0.5681945153704732 0.7781415435496986 -0.24297747627163319
P 2.8386352439026403 3.011048457791411 5.773881198387579 1.3839860080624615 -1.1063724297741977 0.13360223356989892
P 6.181101128125995 0.37548681870415507 4.035443989054109 0.2035735205527139 -0.11433027271416439 -0.22507025697390917
P 3.5804962521371086 9.005558526919875 7.474247827381879 0.3712433852302832 1.4947550457879288 0.2536133587189245
P 5.232228936660527 3.306403450570344 9.25590137852653 0.28657490124660967 -2.562014054500433 0.41468423002273747
P 3.92662239199047 6.752699854428154 10.254266056665074 1.5156167197282864 -0.16744540737158903 1.5297032797283396
P 6.6477160691489585 0.5104408661035073 12.55896127401732 -0.8811612763470501 1.2597346195798433 -0.24054444135010827
Ni 4.180761867322827 4.228155593580515 3.647128462987502 -0.8778630652117526 -0.8937360276882672 -0.16148918978815413
Ni 5.371252364263466 3.6697553518792807 5.812811236219139 0.6491084174077209 1.516013183835757 -1.575917316390557
Ni 3.4180047839538865 6.851706794738969 7.1624377474909195 0.008847423088300893 0.6648484538507969 -0.5206355346445872
Ni 0.04162465216339993 4.084491644692786 12.763535039461061 2.124798219034083 0.9816602996050771 1.7597288238249953
Ni 5.5820345430947285 0.9817402623405845 1.598822504265054 0.21052115551514064 -0.8067016145755784 -0.1491178127069948
Ni 2.9585474122498714 0.8687293820579144 0.7474085821017499 0.39193948012705404 0.5022413484081156 0.7600453481696201
Ni 1.5133408071545054 8.572726946966268 8.056432800070603 0.14377531744815883 -0.21064945356288883 -0.1655528183345665
Ni 5.069920526516153 6.505251150415682 12.5203268749185 -0.9166486706203827 0.05391294796837167 0.03892007410396523
Ni 7.098350043380511 5.143930891622307 9.778848769844117 -0.610827005329019 0.828328963037367 0.31673934064513193
Ni 7.545615749697264 9.079303457869699 9.54398713658282 0.5815825066416049 -0.06528519436105532 -1.1793639916405754
Ni 2.1207548387572297 6.348617539475588 9.204098699403195 -1.197982378072711 -0.7659113200320938 -0.2273171440265569
Ni 0.8458873999704898 3.9012871594139384 6.079596360875102 -2.090584806377167 -0.575714477896602 0.20430885605684168
Ni 2.4289055884516215 6.669975926672847 11.818044845263307 -0.8260648495935387 -0.5725854453493171 0.4622722642143458
Ni 8.066141283160896 8.967747888995868 3.422728596646353 2.6033939029988002 0.5812585476432828 0.1262627624856922
Ni 4.811213753114544 8.690588865278404 5.635793197363153 0.8948038068311492 -1.3224723649286967 1.6080468499352503
Ni 3.3019825989321707 4.397163927946718 11.004520275980713 -0.6915781565361573 -0.19409052076294314 0.4791294449810006
Ni 4.56475356251185 6.352196324135062 4.906705063789288 1.1963476706827654 -0.9989435121655571 0.5968304339396109
Ni 2.2111031338305462 3.256099101494977 1.7800197581479353 0.31723453511399563 0.2763966751620272 -0.8786171697689578
Ni 0.8782840963955737 8.75479647240426 12.64595686110914 0.1793663271788911 0.09940630441448042 0.5425063665757496
Ni 4.081397963836259 1.8153408067436123 11.188262951893774 -1.2503405799594531 0.12965250489353156 -0.7125033367245986
Ni 0.42920336962364436 6.382611417289619 4.824975141184924 0.023862665550210518 -0.19819065897424576 0.5891909151164821
Ni 9.12633106804969 8.46819165388225 6.022139934221952 -0.13606920705315276 -1.050671793777784 -0.40992511807119725
Ni 2.074907952927806 7.3536153256517816 0.8250865150162179 2.3082831963670376 0.4128600323298051 -0.6846906853877047
Ni 2.5031539290082767 5.012129103651912 4.950819305281017 -0.49074671750495485 2.0474023574524223 -1.2834221930047702
P 2.6833837211558476 3.281232970228776 12.947893705674844 -0.07814842347696864 -0.6585029712487432 -1.27465575966605
P 6.007351590553635 6.3531207672312435 6.704943673253547 -1.3649001950756043 -0.5145415059317073 0.1414914065099886
P 7.454599292782153 7.257711219099436 10.57661936430347 -0.29105761960831167 -1.1987308262029615 0.55647157050659
P 7.795755406880797 3.643330923971605 5.568531266859123 -1.6803318726529062 1.3254774703036076 0.8504093398761741
P 8.061390927052795 6.442361561169531 3.0643934008920395 0.7978199958152324 0.33955351032617004 0.8673999608968997
P 5.6430203287368625 4.667293522972427 0.23900972842158946 0.4208448503074946 0.11391272556077157 -2.1979489321861436
P 9.141213686608015 3.430763929261576 1.724077221476057 0.4815416539669191 -0.2717558339559062 -0.7386933648564051
P 0.9863075604098364 0.3493177567606723 4.404830398613662 -0.5516944608329208 -0.10800767293024625 -0.09732216819194206
