# total energy = -381172.42185978434 ev
CRYSTAL
PRIMVEC
9.20870503185304 0.00000000000000 0.00000000000000
0.00000000000000 9.20870503185304 0.00000000000000
0.00000000000000 0.00000000000000 13.47787064428280
PRIMCOORD
 96 1
Ni 8.93139380290277 6.74537622011894 10.016173695741376 0.0946245667551209 0.3344298159463595 -0.790475125414387
Ni 8.058233628410678 9.025985617964968 3.6558990616456706 0.7113332276758975 0.6566939430644626 -0.5413732814125709
Ni 6.898342014511289 4.997766652471524 2.5818344176394605 0.20109703398776338 -0.7637166263736201 1.2719681855315577
Ni 2.583336357382125 2.7699691762942757 3.2754193245301177 -3.0803080854960365 -0.0937197955526644 -1.0589456037508023
Ni 1.7166775284346112 6.313414298298682 11.018240081758506 0.6326577280508652 -0.8009456859284076 0.6793541036661397
Ni 5.927698491669464 7.009343741415472 9.360757949116618 -0.27731250210807723 0.2412772057510748 0.060609386151940774
Ni 0.9342415130150262 1.8087461583987738 11.297690198329969 -1.069392767226055 1.048282210499685 -0.21592304325700235
Ni 0.873972382249928 4.743726114881871 6.138967358365484 0.009288624390777553 -1.1118175120491691 -0.518285546355172
Ni 8.131728300919576 1.687154421046623 1.9686985970753608 -3.3316285344157266 -0.7899141107045945 -1.4483551183671508
Ni 6.402545351451625 4.883652383366113 7.317795752686786 -1.5666027238578506 -0.12910948790586796 -0.9655806204343952
Ni 1.47733408360579 8.854961553582651 10.214527354043243 0.25986422472464277 0.3967471859283425 0.29594631515918063
Ni 5.209898374801435 1.4923258549182183 12.925291004969587 0.5999828635256634 0.5148189279628101 0.304480834992753
Ni 4.909307834764408 4.351720762917034 11.852520183978974 3.745566630301059 -1.4464967250021732 -0.21459763957735944
Ni 0.12770539642728662 4.755043613004091 3.7447188605784913 0.327124797644514 2.1844030751809087 0.8154474790890085
Ni 1.2783063481171477 7.854739671124412 3.710376838001441 -1.270764909252076 0.08368580835543006 0.002798388680743567
Ni 3.665948521125556 7.659745348310736 4.9526320279422835 1.3892017479354462 0.7110820308970399 -0.7129607359769915
Ni 1.9741437041865642 9.030691266085762 5.831133251182047 -0.5481720495019592 -0.35738411074968773 0.13093240004721968
Ni 0.3038283206226843 7.061078244629981 12.82578358331858 -0.08161889852407234 0.5542437096173358 -0.223466402821899
Ni 8.228539413823482 3.2972043573272996 5.91369849785725 -1.9025451197939942 0.992756923738871 -0.012226109752546685
Ni 6.254985066740109 7.732926924858565 5.678024721866268 -0.6789738375085855 0.4640018453109429 -0.2622512368995806
Ni 1.098414301072747 1.2443446450457503 1.8510914662630673 1.3339808797889285 -0.08945870628346529 0.5263241003889323
Ni 8.333380517258368 1.339350851821132 13.092618695270328 0.5756951946228924 0.26288398538757307 -0.28302960709751257
Ni 5.129055155912119 8.790270402802669 11.615323288224435 -1.4200382737003285 -1.28517285714729 -0.16776370994295622
Ni 5.50627132806875 3.954844006146131 9.348884245228259 0.25839895303302596 0.2871508283547377 0.22094517906194203
P 7.00914114991125 7.492745487898644 1.9600866164049782 1.578534956519062 0.5789167868839836 -0.9049223833223898
Ni 4.904150960111485 0.3252588182874772 9.222448729184254 2.7179144373469 -1.732077380656314 -0.2501400554583434
P 6.715797860502528 -0.019798715185332043 7.534237148833784 -1.232233328835781 -0.10758858311495663 -0.48727032892058014
Ni 7.880017565628476 2.691805690483532 10.260824117110339 0.18885215518213927 1.0676410746422709 0.40045883045197483
P 9.028029950416665 8.998783104170796 11.451391768230833 -1.2888451637925544 -0.08399356940383598 1.0173816642660864
P 6.7745033532032215 2.8189226506781018 3.5533325082809135 -0.9989445406068216 0.2860354838033719 -0.09544834820799691
P 5.765505575130277 6.438044908214163 12.523744514026365 -0.19801685240054284 0.2473928317305094 0.5757926394327052
Ni 7.4206044949861365 6.982491158401318 7.5932437661793895 0.9394921508774594 0.08688271802617295 0.6931516716708643
Ni 5.55608121199315 9.209349346695356 3.8253567253521648 0.4608085351846258 -0.31654625079771936 0.13999116781537826
Ni 1.9145818019452954 8.021168591842788 1.1882240357648344 0.7443212525661439 0.018859555908664293 0.03952634022939644
Ni 3.326534081915803 1.245403646090547 0.661644514509111 -0.9104232585359612 -0.2900821430689198 0.73721935141404
Ni 7.273283636597791 0.8653456676519656 5.647874501685666 -0.15040979204554097 0.15397102703423804 0.30861645442768143
Ni 0.1645890215118496 6.51944064938772 1.8452688022576322 -0.07363305210511835 -1.0648303446663532 0.16210933987065632
Ni 1.4419174051858892 0.36138364610168144 13.040890638149135 -0.5012149640261304 -0.3822618478279739 -0.7504232516988236
Ni 4.6369419747474 0.6409212453681477 5.951678879676033 0.446112880845664 -1.2729498327185367 1.210313131723922
Ni 4.320724262771067 2.229906269562105 7.89179181550567 0.9789950940680882 0.5656545225574388 0.194026243183911
Ni 1.1477637497602793 5.695206323165242 8.314956661690324 0.2683727764162862 0.760321227538826 0.5993159193656259
Ni 3.11821476334716 0.15588863727598834 8.058499759977586 -2.9201460991597386 1.4518371633784803 -1.1398155399239918
Ni 9.014465528338526 2.611597872221094 3.696966201292418 0.7032597066391436 -1.3436117180104732 2.0178141022723444
Ni 6.5888006134695445 3.6350809428459123 0.7251514258598664 -0.993526969135676 -1.4837131861514707 0.7552432987952864
Ni 7.252269372387127 5.270196973421693 10.633406469043129 -0.9401025307679486 -0.5902352972205964 1.8007888270900985
Ni 2.6333672502202226 3.9139389397027613 7.4319938210053085 0.38470285316929875 -0.0726856005901845 0.4079476826298523
Ni 2.342040667148983 5.858301692768691 4.242146385247143 0.24989734331991798 -1.3387865287076879 1.183456159432078
Ni 8.462256340057774 3.669585959496814 12.876298854025864 2.1412180551530025 1.1574864748411937 -1.7612768850384055
Ni 1.7289066883258302 6.82991212960794 6.2436500720788874 0.15238208528056335 0.7442698305029182 1.3476534921800145
Ni 2.93612183587053 4.613432151552911 9.670425509413265 -1.3630690554041363 -0.8455221869872018 0.885143658033566
Ni 4.784539094277867 2.028042253014354 10.604536258821021 1.0587566276684475 1.0528562030236126 0.5692304128341551
Ni 2.627878862196753 1.8741555881482685 6.252707754058559 0.5838458487544849 1.6799667760040036 -0.46343080329882125
Ni 4.350661761872237 2.0241838057293986 4.14436467486392 2.406997102700184 -0.7541996880221206 0.6781235736931482
Ni 3.290776681420619 5.070091819478779 13.076256668692979 -1.8152461401660092 1.8893764436225202 0.9829481651785654
Ni 2.990121680450431 7.450919550981538 9.3850182817472 0.4895825219935246 -1.1579832119719542 -0.6766130505858927
Ni 0.4550435402444606 1.226516592674214 8.680583678934983 -0.3690718315002611 -1.1307400599852848 0.943182455244853
P 0.6335413893916244 3.197750346163771 8.160662051204374 -0.1313808004385479 1.9579907023568084 -0.35418745818926095
Ni 5.096134036476044 5.5310703699264705 1.0665484991995735 -0.18314867703945875 1.3181691095676524 -0.7142637710591312
P 1.2016438811785946 5.233583163385934 13.546202655813916 -1.2521606638873275 -0.057058178465572706 0.6880937975319826
Ni 0.30430533152807976 1.6417647153961572 6.392405646665314 0.6674591520007666 -1.3761981365869265 -0.667273775462838
P 6.645636739108554 2.901497106058042 12.212702094112432 -0.2972845743546299 -0.3622391248491439 -2.2435356196770067
P 8.052901788367743 5.481665669010513 5.86939726110674 -0.3395684227245055 1.3869265787480243 -0.21762099978471552
P 2.932162092833463 3.8393668487395898 5.158128878508924 0.6686644851627774 0.4984541134515415 0.16929865853024392
Ni 4.52768069303858 4.1242473384946745 3.2663349373067088 0.9357517099984207 1.591763539394194 0.9126056108992605
Ni 3.8950242601722165 5.761389284112675 6.218083024246071 0.5796130416200598 -2.6222897114620385 -0.30772299607913456
Ni 7.7655994092667315 8.856002137217972 9.345528593221966 0.7231785570502577 -0.07288846062960995 -0.6784264496455478
Ni 6.699341905136858 8.801827327248061 13.622891827996208 0.37174706433957916 0.12089866996030146 -0.5436183686930057
Ni 8.804949078154028 8.729143020756048 1.026696908578158 0.1028207294126681 -0.41676708069369517 1.1851991102651136
Ni 7.004011901372538 0.7877807476491508 11.160781622388159 -0.3010728377524686 0.549419291645499 0.7580018353770301
Ni 4.289580423349303 7.5550884189705965 7.4535044344013155 1.7202734460428502 0.4243891160153272 -0.27983501141961487
Ni 2.6104191580147114 2.1096866292158207 9.708029255208288 -0.19216090784039808 -0.44488209376235643 -1.8378073132959767
Ni 3.087936542170709 7.769181595409567 12.349220220973375 -0.9293612330910447 0.698699340961971 0.5902450674126092
Ni 7.012668083825661 2.4341829667510444 8.088069831759734 0.030121244865412643 -1.1456367745914593 -0.6821825742538702
Ni 2.3523175816358806 4.937145749185459 2.2386204668550715 -0.45935277657470563 -0.12904238211335842 -2.9915132380488156
Ni 7.855642124188674 6.751739435092459 3.890239417190682 -0.06502319894892027 -0.4523539766593694 0.10744048757286657
Ni 8.148966996187921 4.654392470224705 8.681837904520211 0.9870416185216485 -0.5979321516442219 -0.7133440874583392
Ni 1.6028395204713206 3.0990790749029187 13.477466121042811 -0.10937318581920519 -0.5614366278213492 0.8350439131636973
Ni 5.446829138989067 1.2513708867603588 1.8367507503755707 0.34484946861778676 0.7289828224368607 0.5764544413864202
Ni 2.9218667609370907 3.4046515242028597 11.565306208443443 -1.2765740597346853 -0.91160879420363 0.768209114927335
Ni 7.470920857671092 5.831384648821377 0.4498360177154813 0.21483058152377194 1.0292187661103307 -1.0818045106268466
Ni 8.79739794026939 7.760046560310101 5.8077624794290905 0.39409792123095355 0.45018910779756655 0.0727053980845264
Ni 8.922360063555415 3.8668548323806204 1.6491795644506824 0.9157989210255776 0.8150224757364479 -0.3123908338684491
Ni 6.063444008202943 5.336002377474894 4.917131550309272 -0.27862093650685565 -0.2815617643027345 -0.03950320030094487
Ni 7.249635682832242 7.589842070649407 11.379028845534155 -0.03378223865676763 -0.29081207925640884 0.9973710254721146
Ni 5.848319456833389 2.8225692977540975 5.956140497121286 -0.5705239348345981 0.4961151809057197 -0.8236030183166074
Ni 4.196517253273505 3.4825663749856943 1.1310867854809137 -0.8111727629730545 -2.1076003670985575 -0.7459456755434444
Ni 4.687101789451821 8.235270976986493 0.8483602117638982 -1.7427518296510243 -0.4257919099001247 0.5262289695719647
Ni 0.588114848922209 4.267019096742762 10.302740299333871 0.29344720288641074 -0.45216731456986 0.35759494120891316
P 3.1315121329879134 1.1659785677307848 11.780183966526037 0.13673178033781613 -0.5846434049551157 0.5812269230743989
Ni 5.2619275565675405 6.958907665568931 2.9527048713615747 -0.011446551274044802 -0.4973814492126531 1.9146203057909734
P 3.187685231885833 7.03684093376124 2.550444705801209 -0.1589114017586489 0.07318850836853202 0.30034778666098594
Ni 3.1434558230322747 0.07125235290535194 3.1464900912432356 0.15325857434824575 0.8136667330395018 -0.7005875591236191
P 1.112669376006186 8.332174176937773 8.009804129326406 0.004553680808953448 -0.6286696899373946 -0.5357780467129806
P 1.033732358997504 0.8235261768281756 4.143731115977989 -0.01160544544941227 0.13883828515785765 -0.2846668855906194
P 4.286578385604923 5.626656725100306 8.695638990310098 2.088717157040809 1.8825571067078417 -2.6755470281242824
Ni 4.255554259344744 6.357339819895907 10.971444206894645 0.17169929755193655 -0.19391054354165313 0.07680399363393225
