# total energy = -381163.6881368768 ev
CRYSTAL
PRIMVEC
9.32428525144913 0.00000000000000 0.00000000000000

0.00000000000000 9.32428525144913 0.00000000000000

0.00000000000000 0.00000000000000 13.64703397869809

PRIMCOORD
 96 1
Ni 3.9745790387200777 7.403734027691455 12.09783643554288 -0.6886175312459366 -0.9035501855652116 -0.08624302755964502
Ni 1.6321694638560789 8.675268121479485 8.706971622830892 -0.4704298603244737 -0.21470305480697216 -1.0480011889241565
Ni 4.228665804352219 5.132506044344364 9.670629015809581 -1.776735642795637 -1.2836073124323828 0.773267760397165
Ni 9.068184166139037 8.579489066192389 1.4028601206941869 0.8859257876152291 -1.8228038979086092 -0.14634719194039314
Ni 4.9337962071925645 1.285874844083158 6.455906473318772 -0.29913191197601385 -2.1390904672870388 -0.5224427630566552
Ni 8.133005004338099 9.714692789326932 9.134409900190498 0.3888197035511497 -0.03684133719806558 0.3403155853031752
Ni 2.212093368020887 7.0576631907579905 5.8711861569616275 -0.23943218212253606 0.6747829393556896 -1.199873681558153
Ni 2.909764342879371 2.949262014043325 10.107238659872884 0.4366018560314352 -0.0644945801389599 -0.8575238394337683
Ni 2.3229684406862736 5.08348827821856 2.738673037830411 -1.873896088598734 0.004916977685643145 -2.3300470704066902
Ni 8.025533295689435 4.301973332843958 5.572684092268491 1.273926080588877 -0.06836229062448225 0.2250856835928769
Ni 1.8007898333860473 7.8575190046829935 3.0581090547261436 0.5230446583067121 -0.8313692925255876 -0.3091877535501191
Ni 0.293519166801254 0.8825734108158599 7.256932485008429 -0.9718759665248038 0.9256606443110059 -0.5883097980631093
Ni 8.042913762887173 8.120724921022958 3.479488411707482 0.4069061287392154 -1.3715642373593413 -0.826645404687357
Ni 1.0598541762327691 4.58462038336165 13.872209637159663 1.1279776667487993 -0.0033519471913684203 -1.1206520796216637
Ni 7.858311568906065 3.5550514847352366 10.785769674958411 -0.7105822084424859 -3.6302130585287027 0.17054410090157082
Ni 8.799374354527698 4.911156843267616 1.825209203313167 -0.4387091321824251 -0.3377246846475474 1.1018115498763927
Ni 7.898862884272457 6.09660913814497 7.590561928496648 0.9188325656455789 -0.6669901827841481 0.3848056972957502
Ni 4.177018589862809 3.4725129141159443 0.47921789669569326 0.12294783917984632 -0.5354911116001809 0.9806038333161048
Ni 3.8511628027601867 8.119960329654818 7.557809445085292 0.4577532932980697 2.6275296197047395 -1.1533058611009428
Ni 4.524478745257896 4.433781425283443 2.9984849144386305 0.9782507597028959 -0.45711026039743213 -0.28768947446702714
Ni 2.4494243935487727 1.9839747360505993 12.31749887346723 0.693702659078328 1.196906628510029 -0.04279781189181662
Ni 3.6124611073406343 4.101706340100944 11.966497354637752 0.4173720612675458 0.579499398860331 0.1314425069144188
Ni 0.4035205539642653 6.707228588455136 9.438043118906657 0.6925235511685622 0.4095499941199656 -0.9651977831736797
Ni 8.095530703014223 0.13438159509322636 13.104986955798305 -0.24152068922044856 -0.35368557885217794 -0.053245489587701846
P 8.657971572846545 3.829549110182745 8.309214409411112 -0.8005296814369116 0.6121081860342877 -0.27057929714930173
Ni 2.1983213991093757 8.334502802698118 0.7170804064672868 0.4790574540924846 -0.9113627396310949 -0.3095075987833831
P 0.32445527949902714 7.4180747779865825 7.187619480200977 0.631385546206661 -0.9825650708075336 0.9004388936297395
Ni 6.676449123744982 0.30798299765808257 10.920342417893671 0.5794832009104149 -0.12452161142486942 0.9947873239053383
P 3.6356412797942674 0.6960401574159499 0.37900421147338137 0.33662785203894285 0.8673637083423256 0.08222413620823903
P 3.0240987252713456 5.787303956877103 13.231303976814642 -0.012072614893817918 -0.29014847753048095 0.1227022988279435
P 8.990251792298544 8.010772952570328 11.066570517050591 -0.6956518123848986 0.5013214076970076 -0.0128575726889585
Ni 7.712750156125026 2.855385112891604 2.9779733523455083 0.9803953168497246 0.6203647696161252 -0.6929511256242841
Ni 4.394703346943468 3.3915314990878658 6.024933359524264 0.2514243214874057 0.5016983314204521 -0.8061120606206956
Ni 5.351664038451442 3.1772967274488164 10.52126208843561 0.371372968829612 0.21906030333440338 2.752071799954899
Ni 5.1149763885869906 8.473882214539191 4.475598978549756 0.8073880991196417 1.0854937865529757 0.7693036335430944
Ni 8.312049924472717 2.7418805918626115 13.521821656281697 -0.06679726013020754 -0.30897383776710013 -0.31092350529430324
Ni 5.408299745403721 1.8883075721832319 2.2298841037576254 -1.1929975232636099 0.7705375059501954 -0.5575120959559624
Ni 0.04709136884948865 1.3824464635933265 11.530597288661227 -1.7558140621516214 -3.2188555788863535 0.11091250528186707
Ni 0.7709440034958074 1.458019793334556 9.337614042701368 0.18890074903188755 2.931091542427649 0.9847957599102652
Ni 4.133297017604126 8.886062231961901 2.3021184070484746 -0.1941468279221753 0.38982860443163836 -0.11637378550675442
Ni 6.5032878274310555 4.246475188658913 1.403993021318932 -0.3522514175088127 -0.581918806935101 0.42172365336802214
Ni 4.071020118240564 0.5527557350263724 11.810947767789001 0.5607349737686343 -1.1402827093683974 0.35573911894709703
Ni 2.6543535287804496 6.341166484530284 7.939830062748838 -0.8486841296549513 -1.6589724331405236 1.6189773808048247
Ni 2.944366764430229 3.990738024585784 7.629756560398839 -0.765097822991863 0.4999481814985648 0.2805225244049427
Ni 8.562518867533656 1.9595917308348914 5.186295979521565 0.3899751573118316 -0.02551948442734315 -0.5412328991799646
Ni 7.413561824057557 -0.1305073546851473 5.589197400963335 -0.1231427287994718 1.0845476205896227 0.4950872538618377
Ni 4.4075988330671105 5.879819512422134 6.286492607137233 -1.9503195589647961 0.860046605855622 0.04415741124350459
Ni 2.9308931726379925 4.70270312831451 4.7828761278350544 -1.4613044794389674 -1.362432450261402 2.331155987200153
Ni 7.37309442725596 6.763416729728504 0.9579919574264658 0.6950388613912483 -0.34633196670058414 -0.11900633803359505
Ni 0.7174114185839817 6.13444708658296 4.213794502241881 -1.0554237066404728 -1.0123986092291983 0.031186710015449516
Ni 1.6899707064305243 8.578780420534112 11.9274938705776 0.40209610894508174 0.07101361220440028 -1.5812785807024703
Ni 3.6930788752545975 6.541964961517006 1.6392950824357515 -1.5101243291551476 0.4770993019248493 -0.5315953760902006
Ni 5.2601182085440525 6.478485229391368 8.270634247888927 0.9019591869290079 2.0798437658105793 -0.9528760283835331
Ni 3.006662312363746 7.34645494507574 9.941905100797422 1.0872544779978244 0.03801556001182485 0.6692851494659119
Ni 6.512733328113088 -0.6267392741789679 7.842159110039844 -0.9442036974205159 2.601672035211687 0.5045669112174989
Ni 0.7809564207044604 3.2797519707796776 11.471818861021157 0.8907435207188465 3.5971666695966955 0.29458954402097004
P 0.91859778582576 3.4944249838126606 5.301668154831516 -0.9201595119871185 1.5701374764839862 0.42681700873052947
Ni 6.515978179285197 8.779159304696854 1.4893829582842906 -0.1467698813001085 1.255814972810463 -0.9810815442834716
P 5.989267969485989 3.5815697512107523 12.832196606930147 -0.0835045455825594 -0.22547006351548912 -0.2329226631387924
Ni 2.700322253718668 1.5453230735772618 7.82306670412027 0.8766549038362644 -0.24266020214153047 -0.5943991987902989
P 0.683412278271157 9.006252265319636 5.670424044686317 -0.24252187679145326 -0.10791819854023349 -2.1494054760598016
P 5.987291221070796 7.5982852337433675 6.291527721024989 -0.8415372341975248 -1.7731988332869717 -1.6275427538763325
P 5.519547789468201 6.746157478235474 10.299034539713999 -1.8201091246852654 0.4208340516742172 3.2686347071920094
Ni 4.915837634326234 2.981076474385963 8.328470922746286 -0.961541160257699 -0.4481795335667056 -0.6174931044952848
Ni 6.941072331401502 2.3126464572163736 7.135992779138517 1.3745395179375812 -0.1151414557615501 -0.2557391468126757
Ni 5.892118244307228 8.30544833070877 12.737977504519757 1.1590278511863845 -0.38373946081476495 0.7103461811722799
Ni 9.044733589421062 1.4330959795901628 1.7464516302521806 -0.5050322808896915 1.2472917658308005 -0.5843101899854131
Ni 5.988857700946988 5.1523294742061605 5.002388444771269 0.3713513715630572 0.3732619583222088 -2.2429260111174663
Ni 6.064291166413557 2.820391071371699 4.459318776979344 -0.6919226843597697 -0.9272621844701708 0.8407651319181907
Ni 2.454011941757617 1.5025898755261757 2.161717053573886 0.9143236220316319 -0.4573234048495027 -0.6010444720209585
Ni 6.8449669261402 0.6277742698114511 3.42002837883557 0.28652553606591297 1.0736859952847702 0.8180628052246685
Ni 6.113803119643159 4.633460988072884 7.321606658039662 0.5462954013045367 -1.445384722884917 -1.2988398131114212
Ni 5.208573561189392 5.816619508845816 0.24792527811912396 0.9704736868606383 -0.4209284111602363 -1.6521806070296707
Ni 7.668506423907612 4.954710578396707 13.059433161541579 0.0343692215084892 0.2739456425183734 0.006020752272783179
Ni 1.7459910105743008 5.551837788344682 11.296550276302353 0.5378976641591446 0.7760126701321539 0.39667159549540076
Ni 8.624562659772785 5.50389231499127 11.027103616027063 0.9977734031168558 2.009185994283701 0.32307145351074684
Ni 5.950861239664383 1.3402167769310156 13.298270059093301 -0.32355559223601693 0.6441492736302326 0.3085287798098815
Ni 1.1672606148865903 0.8261484327040676 13.561931000540163 -1.7724814955049732 0.38773598356866773 1.5979691539842737
Ni 8.118925334022334 7.022659824953107 5.507001031602711 -0.11527875267036275 -1.1994358226897859 -0.4257651704272474
Ni 0.7137544340158745 0.47589192424428095 3.5436021952115775 -1.3939647165417284 -1.070702230066098 0.5973515965504035
Ni 7.241491469085977 7.377019951231415 9.422512589848422 2.2625615259602068 0.705719738143862 2.1865517460927952
Ni 0.9763738528307668 5.191472822540976 6.787502290253436 -1.220944643295839 -1.0191379848355608 -0.25847891434134196
Ni 2.0535991719762947 1.9393393838641386 4.530978704315589 3.088725105915139 0.5888031927597601 2.340299344262318
Ni 0.9983978139472115 3.0743845941540666 3.100824536635773 -2.381708503336724 2.054528426974242 -1.6321812810896084
Ni 3.8953692378376914 6.572884290501819 3.9863397593619796 -1.1695007256932506 0.7147484240050336 0.6047383759327778
Ni 4.857243827528716 0.8639239084327096 9.652151080270015 -1.3256191380877944 -0.9962330552129293 -1.7597810172191692
Ni 6.781244762605152 5.056597040343951 9.50903449501003 -0.2485899373624041 -0.1461013944781742 0.12235905655591187
Ni 9.550771859425536 6.8933692894575005 12.885460652434626 -0.516070283871408 -0.24340247962419373 0.8651448463141359
P 0.9099607006512627 6.505917275794662 1.4267703846615447 0.10434487936667837 0.5794855149032601 0.508224305464428
Ni 5.700364323748512 6.902106144481256 2.7110517084420778 1.9813003236170266 -0.6569857632732685 0.0032156787238202685
P 4.211798172828235 1.329801550611342 4.090698089256713 0.6962794186665686 0.014216400709698098 -0.10806115187600099
Ni 1.2223018691077476 4.261533908897294 9.277949807988454 -0.9762031331452478 0.6254915493197292 -0.3886348412338533
P 6.616083702801772 2.0070616656544593 9.305707271937456 1.8225244189949774 -0.7494696295363027 0.1830805428056847
P 2.6626428181252924 0.848784066915025 9.943215162836738 1.012327903892263 -1.4152490798418011 1.1584784064408178
P 7.577305592544383 5.670722421805593 3.504135294188049 0.16165271194921194 0.48492368306527456 0.3537002341401973
Ni 2.7801474574095586 9.254147705726833 5.11948001823104 1.0191366992839803 -1.2978787347497325 0.2589676810523024
