# total energy = -340855.3075009955 ev
CRYSTAL
PRIMVEC
9.38434177449201 0.00000000000000 0.00000000000000

0.00000000000000 9.38434177449201 0.00000000000000

0.00000000000000 0.00000000000000 13.73493277077552

PRIMCOORD
 96 1
Ni 5.030851810507937 1.8662546749685744 4.74099670603604 0.6904954649949399 -0.8576379964141294 1.9622237666015496
Ni 7.9837757317776505 8.433623541638884 5.349880018420165 0.456728194467665 -0.31473130907616764 0.972496630827938
Ni 1.5480034905596958 6.272024860663285 8.176075910777827 -1.458405046403985 0.4293945396497186 -0.21565179187348668
Ni 5.349544058982726 8.670953546465958 5.10531562447798 1.759283765867777 0.9546773432583299 -1.0246617428672677
Ni 5.8390594817504065 7.345668640507325 9.804310831794979 0.5907214928283956 0.7468360485681977 -1.028615842419009
Ni 4.054730110939221 7.286810048562866 11.3316218486242 -1.0247974971141836 0.6026814934037491 -1.4857888377335764
Ni -0.01419944761976452 5.355446809992463 12.711473887009403 -0.13040352412694314 -0.733792328010362 -0.6132397285355696
Ni 5.693414496581717 6.09330007055132 12.910795430565198 -0.09149424865625533 1.5244320040270711 2.342390679573708
Ni 3.376120200339768 2.655487207035071 3.33084450475698 -0.7060917767713001 1.6473852425235562 0.3320348333516217
Ni 1.9738180009997295 8.59574743105733 0.9727789970096266 1.8364361439800632 1.3286913492552148 -2.201584472056202
Ni 2.1786218770513726 1.132727595992371 6.301518908594127 -0.4343665389430132 0.6249729578120978 -0.9327052098626132
Ni 0.7933597656023978 2.7109298985541836 2.226158260580496 1.303732365317032 0.6228335428715919 0.3860891919938641
Ni 0.18747756573482893 2.386381820778798 11.755715270773 -0.8068085724670879 -0.11805065898854507 0.6077576223750759
Ni 5.181451728161749 5.29762049564907 10.69345563600036 -2.799767049148333 -0.4224954985370401 -1.762871740329351
Ni 3.130081526296422 0.5822815186046347 12.772883143062682 -1.6640855859973729 -2.3499054998935143 2.08446738062552
Ni 6.0765114830212426 3.8170153480972044 3.8484050330772783 -0.712911885016927 0.4696433598674363 -2.8516244001392566
Ni 0.5555483440395543 6.917282820406453 0.6449445227261175 -1.0938629844532775 -1.0088201478493206 0.3683112991851528
Ni 8.586625850800631 9.084408878718673 0.6556154578185993 0.8871241787987045 -0.6496519486160166 0.1356308339641535
Ni 4.387423797421206 4.138719970298743 -0.048828607398822776 -1.4655966790564179 -0.5258759571079201 -0.12913519893748082
Ni 2.4220610884083955 3.049732791566118 12.951190329963307 -0.5912755655596527 -1.7538589953077794 -2.0437616753760413
Ni 2.219537607420927 8.757730555348358 8.274555193919594 -0.40994671533775207 -1.9047213015097066 -0.1470601588470177
Ni 9.258056739901756 1.1891462590615827 4.672294877948317 -0.2821199507990496 0.7602044994553037 -0.30339094436268393
Ni 5.096682968430512 6.391037083724453 6.107388782937514 -0.4848408935434811 0.2632526815809014 0.5449496859099195
Ni 5.278692278182236 4.054167050429548 5.798998664921371 -1.5833943414938922 -0.9647735511520676 2.644420996143439
P 5.613750818804847 6.219275475248774 3.5134093675449147 0.7066047118519766 -0.27303084401358785 1.8242126053306778
P 7.079857158232638 0.7620432784885811 3.825892935466378 0.20799478954886114 0.10382268831462119 0.02819985947298369
P 7.303683095169393 2.1568877413780037 9.84816667645921 0.8331394970521329 -0.9656790936854723 0.8757177367339757
P 7.581806833922259 7.783420033752422 10.934791816353755 1.445474454385246 2.942609056148945 -0.46918493217377905
P 2.9178077141497876 5.049367116934344 3.2845027479425455 0.39100231302476535 -0.13932705186881808 0.21795858562979237
P 9.50511830720434 7.728681167870401 7.019800185836758 0.1649046432276063 -1.013045241674262 0.2249977518647609
P 0.14985010874176313 4.506342177064095 10.244254407291066 1.6855190732808005 -1.1294447382126291 1.1198704642606325
P 3.03445508307033 7.152754725551607 6.697455551522559 0.4574576164345218 1.331822695795345 -1.0825724991411227
Ni 7.1988693812938065 5.833147346398842 11.182117083661703 2.719576655540671 -0.9245679254674594 1.7040726679132716
Ni 7.801409817036467 5.017310205250308 9.23748438574668 -0.8927515522878108 -0.7480889471386922 -2.427726364827735
Ni 1.743141494528623 4.342369572305556 0.6895295307503732 -0.6012187928152936 2.836257173654567 2.0877949023368565
Ni 2.711258350518159 5.314793841194089 10.339067228080683 -0.4143453586260799 0.1956072145177857 -0.01483912189536154
Ni 1.0793682283590478 0.5081264494807307 2.5033567032291333 -0.461194971989767 0.04931478707472797 0.9677411184208237
Ni -0.019042706437133145 8.772980110818663 9.238294254446425 -0.5419178410621311 -0.384777415160976 1.8926959949140567
Ni 3.391135147264375 2.2057332405921164 1.1178843825232139 0.6698626192359366 -1.0961134710503508 -0.3137964559667241
Ni 7.132090404846616 4.418166901249339 0.806441538110462 -1.0753479563682256 -0.9629637516368382 -3.7203014279763673
Ni 7.5836461649205225 5.611141971776696 2.5392865327855354 0.7027310878291833 3.230389804778198 2.155709306790642
Ni 4.991728489427508 1.9795706025402198 8.147260350761139 -2.356618650247632 -0.8357121428753156 -0.4936147830813692
Ni 5.243463458960377 0.3930350044352505 11.629449889913065 1.7703096846646351 -2.882870245527416 -0.699377340865602
Ni 9.268567202748981 4.646365941477885 6.990338983102313 -0.7271609387367735 0.2320250910251875 -1.0148200741864974
Ni 6.855899840510293 0.09063021963692937 9.027627980054906 0.08585093432754892 1.0006820921232185 0.6038713999467923
Ni 0.8512555240753179 5.295706089916181 2.9949986178550105 -0.7603831911250131 -1.762207624382791 -1.0128752917553008
Ni 7.04834453837462 2.4553285801882287 7.673569743617813 2.4107511704259768 0.45458877952715904 1.0176979099549248
Ni 0.7206395623439766 8.836962553401147 12.602680273764612 0.6105277289210453 0.08482892082093778 -1.229875884347198
Ni 0.18030135953904944 1.9451863740828692 8.955341333388933 -1.2954392720703043 -0.1997520899240947 1.322369006581613
Ni 4.928966011282649 0.6249286600414333 2.789153079860473 2.048030477954725 -0.26020258190066803 -2.0723446292200567
Ni 6.457938056615406 8.275347232369867 13.343968203432473 0.26650332730771525 1.4732619089111596 -0.3649380118375457
Ni 8.034460561990029 8.352843127184496 3.040337188528045 1.0978420237056836 0.5000176012839196 -1.3623501749602407
Ni 6.4997171464331265 8.007527500944013 7.278717930604685 0.03040663731631538 -0.307457915343206 -0.3791433568036503
Ni 3.2649720557303628 6.61037730526748 1.6481090801402354 -0.02799931342640339 -1.2231182539083902 0.2369317842981855
Ni 7.352265832812325 2.5258519090247433 5.442714619952462 -0.7957880529868682 -0.7116433027171487 -1.128639211592198
Ni 5.241483362834694 5.180541447004444 1.7374686598936697 -1.1421346749754717 1.0790716850767157 1.0225045873149488
P 7.039879862045871 5.1767595572478085 7.137687226312764 -1.3908878773886175 0.11001261917541698 2.528695385743645
P 9.014598759861078 6.675673555705867 4.033977577421048 -0.2522882121495978 1.13902004060589 0.8386596555394138
P 4.278039909075442 8.916485466050597 9.460058451483594 0.13430028807818808 -0.026131664090045317 0.03686987644315586
P 4.673195774763793 9.532895959014864 0.6328574904518087 0.3279928020717641 -0.6258713012566511 -0.5721948947791178
P 3.2396061797696047 0.5694850300881382 3.8833054003351624 -3.014633883226679 -1.0239899136112236 1.895838911418412
P 3.2391932687291773 2.915198867121637 6.895348798252151 1.0675264034412777 0.010274385342814564 0.5490469959077448
P 0.02973147177908793 2.4704936765820817 6.585117472369378 0.4254514958415705 -0.8542384838142771 1.2211744999184582
P 2.695999410706027 5.5565814083894045 12.72302507336534 1.0963006473604926 -1.9612701444390286 1.5433833483185935
Ni 3.9433473577841185 7.288921525474139 4.136892838944854 -2.5665880470243603 -0.46703009061430534 -0.8518841246494877
Ni 0.3751231111883769 6.66826931000367 10.177214546141062 -1.2929283327229926 -0.555589425011953 0.593005660876882
Ni 4.172878974552224 9.32531431778217 7.009513070325037 -1.066593350104047 -1.328867212711447 0.9546783716995946
Ni 2.691485542286817 1.4853630088586 8.663913413226682 0.1993178306001535 1.3936466710806772 1.1448860124683637
Ni 2.843483726872982 4.9923572403299765 6.751008236597536 1.5116070843482612 -1.0230972265936251 0.4766200482955856
Ni 7.100756087483326 5.414502473115309 5.160654149802802 2.424373132084786 1.2481643982437405 -2.338828673254062
Ni 5.069121156482031 4.467744379126026 8.110615434357452 0.2570563229622025 0.8334264321649324 0.5161936968231496
Ni 5.999344040170589 7.803887283279028 2.068192573025983 -0.8169202069797931 -0.25652050506339047 -0.7890602473447315
Ni 3.8832218796928943 6.6551312314446385 8.62512605158369 0.569814053251767 0.16838411713577453 0.3167624805735835
Ni 8.05060162993398 3.404413990950825 2.7258350486794045 0.6573272057730872 -1.5156565718272863 0.33290360910982025
Ni 5.397366664937601 3.139944469557524 10.039947901356301 0.6468059945267892 -0.2650527109041177 1.3930913127978395
Ni 1.3674769068167774 8.784109940226529 4.777119853034097 0.5022338922089479 -0.26477708864522786 0.6381228649304945
Ni 2.031775696128714 3.083103511106058 10.65964009865778 0.11532220431378849 -0.21981209389876338 -0.9531686199232874
Ni 1.4897173434667361 3.7274981114010615 8.45354931464202 0.9420421709928228 0.9031305815292898 -0.44197211920441304
Ni 1.621623652199411 6.176679947692029 5.214797109978753 -0.5679908840000992 1.064967898685482 -0.6490690795293531
Ni 3.9334562614975335 2.0060344464948403 11.525325925161829 -0.05420939616286793 4.088599871645713 -2.162585207974869
Ni 9.352575830792158 0.36974776018936745 7.310362869682478 -0.005852602126035082 1.2506485981181752 -2.3851111012603696
Ni 8.882270155746149 3.218069115274621 0.36840110713706675 1.3452240568029155 -1.3410758389624968 -0.997040124495257
Ni 4.015531715124168 7.606572112006032 13.491261079026138 -0.3167509106093577 0.9265682437269396 1.090914700458231
Ni 7.173419046256598 1.320301820448027 1.2585716199042356 -1.4083004164381099 1.1301458780447116 0.9782957540082183
Ni 1.5835326087200479 7.565609459927338 2.8288469689240383 -1.227437964329667 -0.8042577810207762 1.4772620312094882
Ni 6.992507704498736 1.9193794340562005 12.542452506347464 -0.637257945827038 1.9640466787429012 0.36083247430960436
Ni 1.656983852206861 3.661760796896765 5.0538922465637475 0.17027362084900355 -0.49721304195558885 -0.04081317736162003
Ni 8.162688208726173 0.4800475602975323 11.309179195142827 -0.28924062100423087 -1.2468451652116848 -0.9119409807320681
P 1.7235469887920103 0.678546097075023 10.789421792400622 -0.5310932396428014 1.2459118547641383 -0.30005519512123163
P 5.470283000940225 3.0284397199586595 1.9322444282680404 -0.30997168290399524 -1.0245056769053775 -0.7812608059049707
P 7.61862160691303 6.646901163661588 0.5421841028424711 0.7274856690660438 0.15820717660277267 -0.20643207304743158
P 5.94508377572179 4.1896394090568165 12.329244952188956 1.84184034571477 -3.5913426067157506 -1.118317517951216
P 1.7644439504779095 7.078271204463727 11.670242685404675 -0.24894012161297127 1.2955850536195495 -0.17364356576250095
P 8.922754206391621 3.7467641651736976 4.7345271407799 0.22034148403967213 1.1732596785150504 -1.7205593527143852
P 0.7635616649963319 1.3436406785739634 0.060340379519082596 0.20336680385854652 0.2526347968557391 0.900683662650694
P 6.052252959396174 0.7415122154375462 6.573085807711854 1.6153397840522374 0.47152360760928475 0.4493879520525099
