# total energy = -381176.35413591366 ev
CRYSTAL
PRIMVEC
9.17492598770712 0.00000000000000 0.00000000000000

0.00000000000000 9.17492598770712 0.00000000000000

0.00000000000000 0.00000000000000 13.42843159874981

PRIMCOORD
 96 1
Ni 6.861550810396563 1.4510236852334821 10.945809385972431 0.5387013910073626 -0.1479613305050484 -1.1009276046095426
Ni 8.995372471330962 7.934650128294697 8.639073404032258 -0.3546237743957312 1.4185843148626214 0.850330921229755
Ni 8.316015092793277 3.929161960412762 12.520038561889868 1.7769325892977912 0.7209170147095907 0.4975323729682205
Ni 3.517969312240389 2.8495300953673666 8.23679786621441 0.7429922493420753 -0.03760495483696749 -0.10917418243452166
Ni 4.495576002738697 6.669235191360457 4.591006240643297 -1.2158574585809188 0.473471732474591 -1.0622134758687964
Ni 0.3353251869916301 6.760333029317114 5.380987534158422 0.4762822053401926 0.4087892046945411 0.5194559125141892
Ni 8.395231401879567 4.621070637401921 5.823239141042737 0.0056289161510032085 1.3229817004649473 -1.047102588369287
Ni 4.537450363946692 9.099296855512153 10.393297191171115 0.4212246022444165 0.3529021637189341 0.39412954579983733
Ni 6.537877779131083 0.17514015799724272 6.083670326477675 0.5602670329932803 -1.208985928272066 0.08923604874969794
Ni 4.144369019241581 8.256690022773363 2.3154237191504827 -0.2413250282698747 -0.859104810767643 0.49903466854535994
Ni 3.7579670204960265 4.260000608703535 5.73727008659074 1.4616868024790506 -0.9012950709824478 -0.6258651306090641
Ni 7.773189784618471 1.3515858397531468 13.106336503341561 0.14797547157243549 -0.5777222523552503 1.0032136002958205
Ni 0.6237316385876766 1.3676144350709312 8.869290641418544 0.25551880327175347 -0.6315745222890156 0.20107312272836336
Ni 1.3103812481262616 0.9702667498834101 0.5198613864685196 -0.07964660528904993 1.4952769797296699 -0.24113373819467507
Ni 3.8799935332187117 0.055511053377899196 4.57730899396332 0.2857102392534692 -0.06100507892846268 -0.6764335875852351
Ni 7.33686701476584 4.6402462322583435 1.450270423827878 0.21801489278902453 1.7484982452164983 -0.27315888495101986
Ni 5.505349982981797 5.97244545386239 9.247032427731094 0.2632750501784047 -1.6804470580745319 0.8648699953861944
Ni 4.444480841133236 1.7868443182166178 2.6680142814535075 -0.7822419388713173 -1.3542072341381322 1.5172347149476837
Ni 1.4112779068038077 9.005217166680692 4.679768142499263 -0.5836414460531627 -0.3687033924172489 2.760764185522574
Ni 4.212474493222069 4.181362319940668 2.7878360595139924 0.4902965173414136 -0.46003026225770455 0.5985831549646594
Ni 1.8607942199117185 8.64159650861863 10.068154336797503 -0.46024057849629774 -0.08909695206867237 -0.2529919230848417
Ni 3.4612866208418365 7.097695049829378 11.188434792968204 0.963307251019186 -1.3239042122792166 -1.1515204870657458
Ni 6.276695167275694 3.1750289368608016 12.639698861256823 -2.0352443819336496 0.728045912444888 0.34052101644576194
Ni 8.988307778489121 2.8538606603301564 1.2583328117334405 -1.656647898772405 -0.8189549780216346 -0.2459674121378925
P 1.6195487217515476 7.175452545718457 12.130774903797079 -1.2223050139784757 0.6609465476932295 -0.2968734549591403
Ni 7.098465743593942 7.208418054005119 1.1068612097415143 1.1215622501407587 1.0105060201921758 0.26948477853354236
P 3.5218411309147477 4.978773468343222 7.856679774127786 0.19565066616121143 0.27231530600380194 0.5982175440951246
Ni 4.80349568645945 1.6804518790036664 6.410907816404264 -1.052338897067562 2.859031234126289 -2.946742361591028
P 0.3507152074759182 4.8676559423594306 2.1244714940835956 -0.2530631426424093 0.38576291900269694 0.7405090779089053
P 0.16264115662264778 2.107911670563808 5.555986398298828 1.029307212059079 0.09664108296451743 -0.3474866491303177
P 3.1695056315480907 0.5405361641955345 8.646875760905896 -0.44439744081645405 -0.0678717241413089 -0.7279183857280883
Ni 9.004951093833403 8.40207589650296 13.171733539235152 -0.29022226819120983 -0.052115232638000566 -0.24334051603800672
Ni 3.782629220962085 7.346179564420992 8.730857526436408 -0.1088463667814577 1.1614192342366965 -0.6728175880992026
Ni 2.8019856300343626 2.1864673849947573 4.419658996958804 -0.14079566599454463 0.5097168308495544 0.9176305749176776
Ni 1.7013615348303581 3.1113824768038643 2.5660258066094954 0.969251127307447 -0.5581795543366322 3.066533657419764
Ni 3.959228192156539 2.7405319772361265 0.6709623214593935 -0.1325838196077136 0.75465065951661 -0.1566264623792141
Ni 2.886642670101446 9.11709621150328 12.24985810033319 -0.27387108052669606 1.1788723967161374 -0.6819558029550449
Ni 7.444176946555654 6.229205751497302 12.380543907996302 0.10437753237682668 -0.21508486362642312 -0.09817860265496639
Ni 0.10292982222787299 3.191672252205083 10.4162730402809 -1.3720774295503337 -0.09674624108381402 0.5325651962026376
Ni 3.1469077893799726 3.2867336580937856 11.851987444376858 0.9462621226114414 1.1871842590159425 2.7508538683873978
Ni 2.6515902468350956 6.291833794793923 6.314262818327897 -0.68828457338655 -0.13303941908789346 0.2553375404988828
Ni 2.025181364908135 8.359082194351194 7.1178477742801585 -0.7139356982957511 0.6477771001908069 0.7630959620704858
Ni 5.458878983963722 6.238298102934007 2.2740246190973026 -0.942836384759344 -1.7824290936359886 -0.4795986713079353
Ni 6.251757719036577 7.976643763537684 8.300650762101142 0.8337676175544351 -0.8116635865665441 0.21229598802737634
Ni 0.37148723941608053 6.186019375904394 0.1548461396896257 0.09703549018945869 -1.9937246654233083 0.8578352000266001
Ni 2.406968375992072 2.0609177007769213 10.307609806940214 -0.09202903811380281 -1.7655251187917982 -1.6414012570259797
Ni 8.152820688146782 8.383368222860739 10.90130824351688 -0.8401375256365209 0.26371419459835227 -0.7014136545693405
Ni 5.746916603543871 0.4900731549755316 1.0640262338055444 1.0916001565610296 -1.29593035277411 0.4912164580525218
Ni 8.131021064520533 3.4565431842194583 3.614249148271164 -0.6008907200519136 1.4176162945223973 -0.3520495859106518
Ni 8.851573859759334 6.252757785945358 10.409759760477755 -0.2555753675413018 -0.9340157011439205 -0.1841380375359216
Ni 4.389367062041118 8.630889370246647 6.654781013304569 -0.3915941809724934 -1.485879083454538 1.079118222043935
Ni 8.825379446689915 3.3421869094393424 7.693739514925081 -3.165213882301497 -1.6348745116510555 -1.2390400673449693
Ni 3.3960528986269276 4.736344404758899 10.081582758152459 0.9861278484581275 0.09359355438744527 -1.1269296851002593
Ni 6.6266268360909715 1.143847170499987 3.7744369297432816 0.45218222696819543 1.2241168703762337 -0.4357693328278108
Ni 6.34141509364756 2.624184743564219 1.583816055853069 0.794835973486244 0.34798441470234265 0.15935157461986105
Ni 1.9517360841303086 5.111919991097479 4.184997425530197 0.2956125859688457 1.3996370843361574 -1.7365395301927256
P 0.34511116281644333 6.329735413144103 7.556285364522457 0.6362495591671817 -1.53729754713583 -1.5225743819930424
Ni 4.929889463847999 2.745055215640057 10.33042509484905 0.5877323282930846 0.0986444865477914 -0.4032626184493571
P 3.5753309481458193 0.5297510389545182 0.8019683340318295 -0.5125291034873689 0.23515489490342079 -0.2680094795395965
Ni 8.208356513824256 8.721244039216044 4.48289350284873 0.5732037956596063 -1.1153118983556727 -0.2670599711421336
P 7.89239042020442 0.1136791652583916 2.076196704659409 -0.2847165078816323 0.11789099348222921 -0.34764760018821417
P 5.153583329012795 4.67984521187572 0.6211305471322719 0.11658615862787662 0.34150163519147636 -0.02485691114267977
P 5.460530470602074 2.767102562262058 4.418316705318854 -1.5118389978534092 1.1820600504154997 0.5738450287880311
Ni 8.091165186981636 6.42989807776016 3.3907323591737026 -1.124965876505669 -1.8160424108150595 0.6699343530141366
Ni 8.919633459110978 0.20094280173634094 6.653048787319452 0.9572317342490676 0.338207794931553 -0.7072449165391368
Ni 7.300121437062506 2.5942928354100454 5.801941385856033 -1.3615564754143519 -0.9230720576482233 0.20872832528077603
Ni 5.091927827847649 6.226801920945922 6.845384591192248 0.43844893654250294 0.7583710457909906 0.26368719801515883
Ni 6.879744688195741 4.4034597480217235 10.696913834706384 1.1278622242168577 -0.8023027141769344 -1.8511652226601216
Ni 1.3344654282688966 3.799813856926716 8.699649933927015 3.9541075221613777 1.8421609622789823 0.9130691807992405
Ni 6.235591499832263 8.161243270002377 3.3000905150277466 0.033128150012536495 -0.6312657327993452 0.3513330194596014
Ni 2.215038103838249 0.3352022429863306 2.7627793372398832 0.13371947587405358 1.4738836016555583 -2.2245919886949688
Ni 1.9181742056686861 1.7147569264525477 6.9055574243531845 0.27991754383109213 -0.5490099720222222 -0.5264945645285255
Ni 7.49077639453449 5.528801093246398 7.788758716155248 0.3319224761434735 1.098950426278514 1.0461173416378822
Ni 5.810865836151171 4.047775400749519 7.161704836946752 -0.21771458793978635 -1.5971672269082686 0.567742515434719
Ni 5.226854286201018 5.486146863348069 11.809620389655088 -1.0139039901301312 -0.17309386390661802 0.6139398399263879
Ni 6.428209891418733 8.335098938392013 12.586992582686394 0.05261968307824486 1.8248003595133477 -0.1037139306508988
Ni 4.925246951409076 1.3131062010795425 12.437722045386359 -0.3056661135501058 -0.6938857216234114 -0.6229019342156821
Ni 2.1960918821260424 7.892592268571329 0.6934197872632518 -0.3846725141519956 -0.6151004358933923 0.8623084053066052
Ni 1.7865598955177906 6.323221215848381 9.217879101101296 -0.7745551117500209 -0.642372641345784 -0.7935851317982784
Ni 1.5079540996277871 5.095469349194338 11.388920683401267 -1.0880378931310681 -0.5859464400372554 0.09935976744726113
Ni 2.735531642692227 5.830610276405248 1.9835134395299343 -0.5674301264006227 0.7331580368604728 0.44276813274314714
Ni 0.06071415378128525 1.5241478436094065 3.399246690286985 0.4989099700420375 -1.4541349582737213 -0.40354595401773086
Ni 4.434351723084677 7.402614532823792 0.034660117076126776 1.067073632174575 0.2418040247888223 0.461369035673786
Ni 3.0462955534012535 5.56356488698371 13.11352138771097 0.9591495200970708 -0.17648386342477348 -0.14366578845348807
Ni 1.838122978337451 3.8482666399108134 0.6270621366416865 0.06338900577960696 1.1625651749156818 -2.7306835640871103
Ni 0.4220383279234622 0.9394389993008371 11.424291857224462 0.2846391176764775 0.3013803416905584 0.3360195290309826
Ni 6.156164167453295 4.91809050930955 4.512167938498675 0.18064699366352757 -0.5535783081191951 -0.00531884110975213
Ni 7.6252441065994265 0.7547761858483406 8.427683114323187 0.37713995322037625 -0.2795550182853508 0.6616340606785573
P 6.888525092156313 2.7151357827085785 8.651441203968362 -0.84584640309584 1.1718126616558786 1.075649289658728
Ni 1.4778695180324726 3.8812046234201696 5.87961171995031 -0.9888683873177421 -1.0298515145983231 1.5018705737867877
P 2.3452486503465453 7.413248271789626 3.556130580989822 0.49194870823285597 -0.5833586247054211 0.11727315739257221
Ni 0.27959485288786085 7.703753946401533 2.1505227783110232 0.7562475716900846 1.0374362689241166 0.22495789976576097
P 6.570402890980851 7.000238988315065 5.361932130829568 0.7209720363172422 0.7878392304534367 -0.7126498896047919
P 1.0397301128776542 2.8008204144617475 12.37345352536231 -0.1285780408824302 -0.5276590171502719 0.007135839713832872
P 6.034018380695619 7.360565848026193 10.804810961745389 0.08846574624257668 -0.2714321320679003 -1.1973930812281441
Ni 5.379992972205103 0.9146070627080591 8.318094130972447 -0.7353506736364174 1.0170227382647712 1.8829062625171444
