# total energy = -340871.86469880893 ev
CRYSTAL
PRIMVEC
9.25699712475362 0.00000000000000 0.00000000000000
0.00000000000000 9.25699712475362 0.00000000000000
0.00000000000000 0.00000000000000 13.54855100368401
PRIMCOORD
 96 1
Ni 1.0997497481160807 1.0526686617798373 8.263287923225311 -1.7982717170951996 -1.14358657693065 1.0585167437434997
Ni 6.2561192006051956 1.5982668032607357 6.6965069435893225 0.3078973168734697 0.05356482060033355 -0.33433185691591455
Ni 4.211628117802133 7.819227929562932 0.2612296759895571 0.015009328924638665 -1.139785972237637 1.9121520467561393
Ni 8.360382712522124 7.646696020963856 10.859447886089553 -0.44329469467057847 -0.3294251636429166 1.446940240297495
Ni 7.985807589142306 2.079482531161498 8.424542958176175 2.321692013573776 -2.834408293371286 -1.8423404252796403
Ni 1.1702788076512436 8.737086945193592 11.982473427261837 -0.7611694344717342 -0.9270251287587001 0.29288053174966333
Ni 6.987903321142497 5.00946091136521 0.8676536928338427 -0.057711495778855454 -1.6562974574115217 -0.8363194374420112
Ni 0.4489689791291727 3.7238214080941727 8.723939232467803 0.747036594614778 0.05572763257960725 -0.8049326956006136
Ni 0.21405416828472748 0.8582828348515033 4.846316523342928 -0.25338581608915073 -1.0824606561536068 -0.37531112754175366
Ni 5.677890144980518 2.733933699427274 1.2198333635645702 0.12374590960110947 1.1784216823319642 0.09755588146930295
Ni 9.121835508188733 4.601051464241984 13.003939529522686 0.07436787338861385 -0.15561139085113845 -0.6001132184559407
Ni 3.719590960501632 7.283349634848266 7.020981348237521 0.3954822031729898 0.23653223486692168 1.143033275530341
Ni 6.290212720262369 7.038215099403897 1.2564790372726484 -0.3655764167524929 1.8981906994800406 -0.2991313977553816
Ni 7.142124889833376 0.3480566043024609 3.793404402544089 -2.225957501583928 0.21752406919553505 1.0274686161884434
Ni 3.3676954795763554 4.446043050812886 10.488543161988604 -1.4960141150060107 -0.22017410522387243 -0.6544840798973374
Ni 0.761624975809325 0.09019184669340403 0.6838578703822413 0.1577855156843218 -0.15194988283915123 0.897166650636371
Ni 8.872081731281174 6.896657102499879 0.4745525415175872 0.5135377472575413 0.4961961706553003 -1.877755314443824
Ni 0.23302082927456805 7.519838135169148 4.591454735534791 1.0126073828058948 -0.01793087344680783 -1.5311425832780277
Ni 1.7292347956880207 5.203728248732964 1.0060735677819057 -0.9304912329304298 0.3811961255676209 1.3261953223062386
Ni 7.503101484737389 8.175261288111548 5.667588958807697 -0.042024424060901816 -0.06122002315274617 1.2092276119692271
Ni 2.211385480277725 1.0759314950403525 2.5880443536642845 -0.6628507066944778 0.2452487888043131 -1.7100836499940417
Ni 3.9316409889531316 1.2923785970289572 6.246572459681371 -0.08621705941771603 -0.2984017186782087 0.4790386850394073
Ni 1.8562130224426905 8.861269558878355 6.218310848083937 -0.08287925329373468 0.1369598371882222 0.6825803239129212
Ni 8.388209245264308 5.272748417770131 4.914357302105936 1.1251887911497525 -0.12485559772552046 -0.8340123865753895
P 8.662605147973496 4.779618934833045 7.03038368000939 -0.1370855641328091 0.4348398790350059 0.5123766370699047
P 6.433983139430319 6.395316663294556 5.0073410590704786 -0.693997050390295 0.9051812934107314 -0.26485576440196323
P 6.837838144068795 6.578290464419642 9.623007470050108 -0.911151137840921 -1.2788772539465654 -0.3852790373877429
P 8.444065964680922 8.36354860546884 2.6383366922321523 0.974266321133851 -0.6993678277839052 -0.6075804733672633
P 2.3865834039898255 1.5133616275084698 13.469373003374164 -0.9578631971854793 0.14561519887037502 -0.3578011436824483
P 5.195350666520165 8.999726461814099 7.347514509000776 0.006638074141807922 -0.32653190125552156 -0.4385934325401672
P 2.3677731862479368 1.1711952503463454 4.636259526328352 -0.21717825582034211 0.6893286983803483 1.493536085779163
P 0.8619930392171278 3.9238188265555447 11.00151779492326 -0.15298886562662686 -0.18608487684964725 0.24790705236276658
Ni 7.845073464964188 8.235626165028307 8.66910818830995 -0.2890596153416764 1.3447360614229034 -1.9778280487977098
Ni 4.8874166639690175 5.5204378843644815 8.986659284961515 -1.7851884015486805 1.129599004402306 -0.6302457761752629
Ni 4.951910161512195 6.69723361784756 3.310371526147888 -1.1033423846986223 1.403139441062461 0.5736496249477733
Ni 1.5590911922943609 7.488151434711233 2.3390079940180426 -0.9534681534415772 -0.23645458755145085 -0.9099617455185103
Ni 2.974476764399213 2.9467983436077527 1.3784834795820835 1.2325801706522386 1.751002756805907 0.04188789848303754
Ni 2.1148072314090607 1.5724582958471598 11.142287095689674 -1.0165763947559718 0.47493520439399495 -1.1361679158690754
Ni 5.276728926445827 8.824732192034244 5.0536501118635755 -0.7093473075941203 -1.1214522069254556 0.6938582108195857
Ni 8.880190860583287 6.058852596235289 9.093665540860808 0.06636814301258892 -0.4185966777032662 -1.5135755209285418
Ni 3.530590854381482 0.04374671604557982 12.466359798774084 0.0024032101248539256 1.2046813873594413 -1.657981015761532
Ni 4.264217117305907 0.8195922905237479 1.069757078094565 -0.2577173535849691 -0.13519503197831556 0.896136923820276
Ni 8.176112931828207 6.272818823049273 2.467827437460144 0.5302902841255318 -0.8820493353789582 2.4329978976393196
Ni 0.28502663797236893 7.0322721073811145 6.88171538377095 -0.45067401785378514 -0.6369607263015934 0.6155832890670817
Ni 4.136850096680588 5.661412690462525 1.1518703435756923 0.33752388149065093 -1.290937527545209 -0.3730354441336995
Ni 5.261288255582898 8.32795545231059 9.50475581429213 1.5291162968766179 -3.552303490535418 -2.2504842830806986
Ni 6.646857040607719 0.22521718087082185 1.2961563774720992 -0.20003413994088776 0.6049656614522355 0.5195299602852342
Ni 9.100757326201391 1.7208016714936996 12.174158988188543 -0.579077480831564 0.5364581034991406 0.40987061068417796
Ni 6.597776442936707 3.991163479150152 8.206641581971404 0.4049037535972058 0.5036310296667906 -0.33254365466724023
Ni 5.7702194322628015 1.2660054128032476 12.596914003439034 1.7730761916661788 0.6884190420818853 1.4831745400391811
Ni 0.7586969876834591 2.8592456667363035 3.7809259706956317 1.239899072911155 0.6879387600113571 0.48181599067422826
Ni 1.0245921901208075 6.276753046740367 11.044127751747036 1.431100187941445 -0.7411688229800912 0.44266143196195373
Ni 0.7102319803076426 2.669412430893334 0.966736885069119 -1.0788829661046775 -0.10483441740858719 -0.1422056589681938
Ni 8.077164891747966 3.5561771938689724 2.6828434077248824 -0.7374288963216848 -0.1625536264969265 -0.6209558662329048
Ni 2.259244154355267 4.022553955706621 12.635175023109692 0.7905288614704579 -0.7659347170708615 -0.15965367924131213
Ni 3.751684968824038 6.230560632108466 12.0520860441019 -0.48954292700484076 0.3599503288149672 0.5561391268678357
P 2.619258021579577 6.280316990554653 9.256721987412348 0.1996415324881594 0.8841098174524128 1.0830581805282895
P 2.3164431383253117 2.588848786696652 8.945268474632133 1.4056118138623532 0.7968347490838277 0.061759183485667835
P 2.139005021358518 6.631027575874141 5.780841836228754 -0.17222817347221306 -0.1698517028202365 -1.21348047370831
P 7.7423763411312585 2.2456826538671435 0.6269745500071761 0.49152884708661804 -0.23233028097043212 -0.22930460677023087
P 4.733278408250419 3.3505144932924256 6.686182614924201 -0.9861823558451466 0.007384465389529217 0.7467128927267721
P 9.252970126560582 0.4311946193426566 10.220105062497272 0.4848282951379908 0.3919711046959378 0.3515788169218203
P 0.5680648730062744 4.924379852671459 3.05649838561083 0.6940333029448692 0.2680117935324416 -0.058187664084325595
P 6.899832252443515 2.634541323494862 9.92218620491411 -3.054469527166378 0.29599259501608377 2.965352263382732
Ni 6.394668673510141 4.43534196237311 5.835455340958982 0.393731024809838 -1.6507688142838084 0.5181873302144108
Ni 1.0783938562211313 8.051874776161924 9.089993290182557 0.2699946282904253 -0.7056132944729848 -0.05279734630668971
Ni 1.7765102789595888 2.3480650398047866 6.51520032760957 -0.33633397494760786 0.10756750006903411 0.008367912348721073
Ni 2.90771530261058 8.546790859504611 3.8855485498879676 1.2544916260133494 -2.059882492197304 0.8512382635353727
Ni 6.050761980927015 6.422874743126054 7.3026958327118345 1.1162053567042196 1.4517240348393836 -0.9500123336824928
Ni 3.374878909186447 3.062325665172109 4.699314486550129 -0.15030077727150246 1.4592694512868094 -0.43746497536267887
Ni 6.235670494408428 4.878437376956403 3.3905250853810043 0.05803519766686134 -1.5671264575718042 -0.7059238837348681
Ni 7.958369850270772 8.94234233790565 12.95257708211084 0.16828204434027147 -0.02645382331615444 -0.49141931809194717
Ni 4.060803866980973 5.303685301477509 5.542413995053086 0.46869153747712833 0.22620154236487494 0.49003992124591733
Ni 2.7216311505202997 4.616094084237343 7.948731465077438 0.6457667546289976 -0.8495379930148143 -0.9998261718808265
Ni 8.785825033978556 1.1828590664658238 2.629800815372017 1.2143569627759925 1.1777902193955523 -2.5719444262402673
Ni 7.063727382916025 0.45789827835841773 10.576364291770739 0.3774525993647887 1.575261170863797 -0.2598251439565912
Ni 7.028513766631505 3.5601484455477475 12.43770476480754 -0.6930529413094709 -1.1054321773481155 0.21765699522897355
Ni 8.475826721114199 2.6464921065188673 6.147140278662203 0.3565703565991407 0.9885634544828136 -0.2211295271586063
Ni 1.7129609951022722 4.441747804241903 5.587218785846647 -1.613450280339008 1.801749391231155 -0.2677670245114872
Ni 2.8012783520218805 5.487881026196065 3.4329721190589852 -2.4198459336383937 1.5674316475170489 0.7697060111878357
Ni 2.9750969831928678 8.090800448211452 10.576947482576712 0.6713070649919471 -0.6094244685545376 -0.8192552828708729
Ni 3.250511155563279 0.12149345607943893 8.49361311499671 0.6710370991600122 0.7245834078175845 0.0018841043965903035
Ni 5.015440931375672 1.7558301478398153 3.8745058782618362 1.1810655477127143 -0.5574853564830852 -1.0598341770033426
Ni 5.814745587449064 8.408121045639703 12.080348581399024 -0.8916089540429354 -2.6581560863413447 -0.30434430941488877
Ni 5.7250730582828835 4.935877042846374 10.919630400166985 1.025518177330292 0.23962835729374216 1.6583988200252406
Ni 8.073730545890564 4.300930367091503 10.360210636584506 -0.16427318029119453 0.5179253348022758 1.2764069380292016
Ni 4.153475663149305 2.473701002006024 11.748991599540641 -0.303811062619238 1.1928121467256811 -0.10828020986534256
Ni 4.589017368245697 2.7188355374503934 9.089004642911478 -0.15030874769130242 -0.1356532025616567 -0.17339288320427557
P 4.681976131318556 4.40599728213601 12.866773977657314 0.12163477679537762 -0.6516399255803229 -0.15321795091829743
P 8.836951427968936 0.31584040362070814 6.766999900836497 -0.232599989692051 0.0039409869256190186 1.4647662127353225
P 4.142783831706449 4.1409972313008465 2.788183404178536 2.502642397410335 -1.7985205998812122 0.06834043624761134
P 7.066078660133761 2.535000835611727 4.489352836603831 -0.03623481396231824 0.10492363468828382 -0.7198577202071409
P 4.622129646229327 0.6805188715931176 10.384408426533962 -1.4308952710194907 2.8693997218448066 2.471362613460447
P 1.8661365231411673 7.222299740159409 0.12340224884438845 0.756066308917214 0.6129849322122862 -0.7329495203940926
P 7.021608046929021 6.592768407602867 12.548261079025737 0.5288075289324183 -0.030215861461747966 0.8952704620549228
P 4.911040520109421 8.827268609190385 2.836646560154968 0.39169779642989316 0.46048277641409086 -0.8850469845547015
