# total energy = -381171.0719522834 ev
CRYSTAL
PRIMVEC
9.17419374764028 0.00000000000000 0.00000000000000
0.00000000000000 9.17419374764028 0.00000000000000
0.00000000000000 0.00000000000000 13.42735989138439
PRIMCOORD
 96 1
Ni 0.9872074847775241 5.899061733501135 12.004475858508915 2.0461132063273535 4.827036383296306 -0.41667580653146946
Ni 1.4923752985980896 3.9520592553687197 12.297756489632986 1.1620373274366698 -4.3703087030492735 1.6772470630799952
Ni 2.3365204034410305 5.4525812381647 5.620182751987255 0.5903029172337382 -0.8589718847342044 -0.903838663339908
Ni 6.022463815872565 3.3335534499031727 4.071443958224095 0.02482785767695724 -0.7895672688881369 2.7646887173879615
Ni 0.08641081508053398 1.4342200833611187 3.7680258428222433 0.9740408353866064 -0.786570133933026 -0.19136180897787045
Ni 0.9763819359560024 3.6498613077577686 1.6773591576343196 -1.9731450414997438 1.353592740482585 0.99784153735063
Ni 3.6564942499594295 3.334590133815742 4.610109506292137 1.498537909869129 1.0550470400273444 2.112522229880207
Ni 2.570728399936476 7.928320034289282 10.959854433362876 0.24405194028273455 -1.1699460407607851 -0.539496118994516
Ni 8.080804311376156 4.279651371740664 8.95012799142305 -0.32122591566157577 -0.24692180563136182 -0.5079188584088672
Ni 4.393576511796304 6.119994671399342 9.195378047716448 0.2995484306881422 0.3569105135473789 -0.5552312703415857
Ni 8.719979575735675 6.578254831724619 2.3929701360289157 0.07857548371205822 -1.180774755945173 -0.8309026373018141
Ni 1.1415908200051224 0.3213013716033704 8.091448211158129 -0.20516297652702084 -0.4391446770579469 -2.354712691474171
Ni 4.763791933104512 3.0309243151781433 12.724438157078126 -1.1410298719470673 0.4625049490504422 0.881606848524901
Ni 2.2138063856133408 5.423801791848502 8.009017161398592 -2.19388273253657 2.1960046639755797 1.0962973049263829
Ni 1.4919349372900954 1.6296579363652501 1.1183571739114753 -0.027190958592495103 -1.4610072599135226 -1.05422711522921
Ni 6.0564542043333605 8.112262622315985 8.278692591575396 1.6209021086313633 -1.1460846607621553 -1.1818739025466225
Ni 5.21944662235749 3.055538677456231 6.379284914062619 2.1976745954788344 -2.202287154550181 -0.951008121936859
Ni 1.6534557953847648 5.933464960688174 1.033454596310821 0.5345685997859116 0.35703778315386253 0.17754135815501035
Ni 5.388095829125314 3.195445134683523 1.926960534102334 -0.7771904924903389 -0.4810174060323328 -2.2588665936071224
Ni 2.351015629829169 1.2736349930459367 9.974420320269418 -0.46910908463052114 -1.402923725507229 0.16960204870327567
Ni 5.20901556387438 5.466470967754347 5.421578884662524 -0.5330624475540303 0.5644646160143956 -0.6474533983028011
Ni 0.3748355453645782 8.823345218593374 2.23899872210817 -0.2995810836982905 -0.054913364208428 -0.5652315760874072
Ni 4.076158576477807 5.331848846222984 0.4267816661588323 1.0439625000784087 0.41640969735427635 -0.19339452313718308
Ni 8.0414561936681 8.320342514537113 3.8753510677743224 -1.147752021162249 0.6549579342099623 1.0776987159885891
P 2.4333356718423165 0.2080633786720792 2.7111320984740446 0.19339143781338952 -2.8464382279526266 -0.3566446614805019
Ni 8.495101734453355 4.788543908291347 11.287697005228743 -2.5284184779331746 -4.016753222017057 0.3251429913277949
P 8.8126572826806 8.863720846020083 6.266468016632096 0.8735222717445538 -0.09137854901399747 0.2672240075238237
Ni 5.8844655909799135 0.35977702346996326 2.3170922129839657 0.12764601598646405 0.7120755051585608 -0.8105207312113526
P 6.808848195816946 6.329423170126202 9.193230368920586 -0.6063196043769686 -1.9082959062348426 0.6861515862039473
P 7.331235971618865 3.3760483161246033 6.732250098549548 0.6043298276404496 -1.2656970078108654 -0.27658925078880753
P 7.117183679158066 1.5394939585534584 3.7543306061436272 -0.4594157686021572 -1.6926209744329044 0.05413637683308742
Ni 0.6963359969759376 2.460913298755447 8.772550459135646 -0.535589070630626 -0.17392587288961014 -1.669402627334912
Ni 7.187164430353461 5.741687611056743 4.147926460648146 0.2707998978005401 0.7885833077083128 0.9891560937614899
Ni 2.1386238664672645 0.4572638428659406 5.6710857669331975 -0.2754919039595707 1.2801350376130662 -0.2857824872523014
Ni 8.996838399749134 7.502408081713738 13.292307916640702 0.82269233357688 -1.5575128457414402 0.4480885165147961
Ni 3.1197488606781203 3.418020253292791 1.024658379183639 -0.13379095254193732 -0.7393045160778429 0.3486485306489027
Ni 3.237343678300378 5.122227689423876 11.268844954149637 0.8187919700812093 -0.09103582096259806 -0.6269776469469525
Ni 6.535145294510779 2.6995983018821663 11.449818773024944 3.381827523867621 -0.28777534931261406 -1.9200247646359965
Ni 4.617344275614723 8.735502311842467 6.666469293329145 -1.223493377859622 0.7848019862890097 -1.3855746927058201
Ni 8.687016696993535 5.119548824800246 0.36161920160840527 -0.13145819064370262 -0.42698310199474854 0.029120314404724047
Ni 2.466830653831618 4.7862411856182945 3.244950002476585 0.9334197194311344 1.2203265500958662 -1.9118712822909267
Ni 3.144785235876368 3.6032930994373924 9.03923143241809 0.9973607410594695 -0.991483456343086 2.126369163065628
Ni 5.827090182225849 6.171709602506899 2.2150981121167903 0.738000966775071 0.650504526424299 -1.6012635084648292
Ni 4.907826777594249 1.090380469562975 4.4291622925791865 -0.09066583921768903 -0.05275620865610914 0.533200001573159
Ni 8.27987514517124 3.3415625211923152 4.5560909350921355 -2.125691163161997 0.6583772443041563 0.944877840669405
Ni 5.583506159547696 7.924347608323418 3.8831124358277185 0.5589287737978309 -0.8042189573630407 0.7518137042884471
Ni 3.3971581363265706 1.755665489808979 7.68325621413239 -0.679500656546333 -0.8230034370593956 -0.8391512504638515
Ni 3.0949601887156195 8.554036756173232 8.6415539790401 0.5778526072855275 -1.0612477695214175 -0.6276353351356093
Ni 5.694669867234457 4.004260418753854 9.208819159223577 -0.23501734088429202 -1.2867268318979712 -1.8379332973508797
Ni 4.778911004678976 7.7584414855366415 0.344772629319456 0.22819337598392317 1.0904801840239735 0.18617023747460193
Ni 7.951567441673803 0.3036080212159241 8.402492833962803 0.475335268045891 -0.09620142432393755 -1.076196934632082
Ni 5.685835118492825 1.4894395565447955 8.015516160369073 0.9047593753819644 -0.40175209534210166 1.181144737690082
Ni 4.145075121178884 1.0700963268134969 0.7238998625981934 -0.2619074804069167 0.9693370021530339 3.2037423773939984
Ni 1.909269018553671 8.522257348446326 0.5514406130968289 1.6752557436815796 -1.375376669126896 0.5919854471424837
Ni 7.382143573661766 0.2126835027284506 10.757248782651748 -0.195459890306644 0.3267481310313856 0.5441210193610372
Ni 3.6016967896959136 7.051762502339192 2.3772198799129938 -0.5035605814401715 0.3374524048227672 -0.35179993179369085
P 0.1637419304418646 5.137328412610508 3.9429979040373495 0.4525064430768336 0.6964411410554134 -0.609167358238409
Ni 2.593150129868509 2.1371468212467013 3.2099715533309787 -0.385643105595381 0.1227084694755306 -1.11367899073794
P 3.0015852430330368 6.848416494178999 12.842599022465036 -0.5445313674255784 0.3250131506181499 -0.09707482806782636
Ni 6.7581882970097915 0.4890872867236476 6.091456506383149 0.5078666650146931 2.1090023896524066 -0.8089194481625036
P 7.492481603896037 2.0305885589060457 9.41676877789109 -0.4498507506215414 2.0148313654949366 1.120097492669774
P 1.0012073046941699 6.46514619492755 9.762012960777858 0.6427935309332865 -0.22787995850856238 -0.3372472307904966
P 4.02521427765924 6.687079119962661 6.770478047180394 -0.9182517534414444 0.13453297291428443 0.54019982992976
Ni 6.502090673829472 6.033885687298662 13.154959224677343 -0.23536315425948498 0.3727153417901194 0.9128544936852729
Ni 4.973027773759124 8.578495157154737 9.95683063827323 -1.2398594779224712 1.9899258605025083 1.5724175307674146
Ni 1.4373943544562429 7.04099199868117 3.7129338909340066 0.8776856590936238 0.39813198209101114 -1.5795834523882346
Ni 8.136968726533237 6.870902443468449 11.172248031563562 -1.194605234070362 1.591155216386234 -1.9876828301046026
Ni 4.903615822586555 7.0433497665177205 11.438150115782493 -0.39105450641893946 0.4471397794482815 1.6206226297177315
Ni 3.4266990407378413 7.75722131774574 4.584933683346358 0.18910772283637106 0.5495990117564729 0.9711794546784113
Ni 4.0354343296822694 4.518088671631637 7.205309151081601 -0.20266694957804454 1.0783132096441366 0.37809408960352947
Ni 6.241708702090128 1.0360600673831197 13.095784756496244 -0.25056325903869103 -0.9728054203176085 0.11032706509204225
Ni 1.0902979018177263 0.38282718568527946 12.156943622046738 -0.7323381120623388 0.8205194942952772 -1.0335677871076459
Ni 7.055303741190978 5.3902701130835355 6.928652159334308 -0.1795866707198133 0.24758000804065103 1.2165318589401242
Ni 5.756384669711046 5.030311440574024 11.140197067696727 0.859396373866133 -0.49369140195557554 0.585039869062586
Ni 1.9117643992989708 7.46670211899055 6.443414364378042 0.546834047416826 1.5530370693582736 2.1174752030101085
Ni 7.470582803017248 4.2068724914007225 2.389465593952796 1.346950295465403 0.8922450449650376 -1.2337762478428689
Ni 6.91758991630974 7.444445524549015 6.100707763528592 -0.2504434456313751 -0.13881565945003832 -1.1684769124144263
Ni 9.128616521166368 2.05438641792556 6.537096645556829 -0.48251995871978826 -1.0464060765228946 -0.7034851923863884
Ni 0.1307249239556153 2.259328735827231 10.969159818252427 -0.5131783070355935 -0.6438885637696782 -0.5556048516309205
Ni 0.24015012189519097 4.598206907104813 6.7186080721956465 -0.21179539424187396 0.09386094911621899 0.1120407053490393
Ni 8.554954175564887 7.1493667514173005 8.162975731447855 0.8510086640230698 -0.6717739773260366 -0.6303496487429789
Ni 8.417249524877565 0.386018887748845 0.13417258602945245 0.48784265648428243 1.9075795968941085 -0.06416367916210239
Ni 1.2922402583086876 3.4551023451034606 4.676628834122821 1.111642934144518 -1.2384857375033962 1.151358764676901
Ni 0.05757632360083697 6.840957874524849 5.385969250975459 -2.0199884842158435 -0.8182687505878876 1.5339067762867262
Ni 3.3928737877675443 0.4635848624744392 12.302684866604952 0.4221355440944601 0.3610646449250685 -2.2125224591249446
Ni 8.764538635588329 2.742166561654929 13.081713377867048 -0.580689305403374 0.02994975228455487 1.1900312415464345
Ni 7.706882515725665 2.028111526548579 1.7019175573295156 0.25312973421428664 -0.6729595129937055 -0.12061636283319227
Ni 4.830671806756115 1.7148678494621088 10.410165173884714 -0.1936917426626277 -0.4369710664453958 -0.8725861330835295
P 6.914571606511196 3.9788937725746103 13.065089738490272 -0.12311804620912345 -0.4456243712450196 0.7472062874234228
Ni 1.1223617095560467 4.28993564312111 9.881543533316506 0.25814749914385215 1.7510876032102294 1.161654233065638
P 3.1538768620476634 2.7171393606505974 11.187770767670354 -0.5664060560114825 1.833006549473224 1.519227062787364
Ni 0.463850914098019 8.463303978338615 10.052057853707563 -0.4496774582684707 0.8448704123358158 0.3129695891900545
P 1.9151221542724257 3.137629364621464 6.840085408683387 0.5764310443476525 0.17724979505652055 -0.04263454684107496
P 4.864552104889912 4.84469914925451 3.353268792629825 -2.887330595291614 0.4041280517734459 -0.33296737246822006
P 6.8944250766704664 8.02255735420002 12.428887830379104 -0.9894114043054058 1.8649954436749945 0.8647460682138204
Ni 7.187513049722289 7.8756142902387385 1.2683323089621745 -0.814052655624011 0.7150255889258201 0.3295483194843421
