# total energy = -340894.0981446292 ev
CRYSTAL
PRIMVEC
9.03572919421226 0.00000000000000 0.00000000000000
0.00000000000000 9.03572919421226 0.00000000000000
0.00000000000000 0.00000000000000 13.22470302123705
PRIMCOORD
 96 1
Ni 6.198871803205623 2.037719624679794 11.205595671907835 0.4052570231715666 -0.105797809763121 0.9205575187564855
Ni 4.442976578767774 0.33745648263532757 6.004914450020838 -0.22136246910501875 -0.25494056217078026 -0.0632779341230394
Ni 2.726856635184847 1.7721595373726204 4.58099734547812 -0.057696326270203865 -0.9257282643241476 1.3133644890901575
Ni 3.191338305413675 4.316747438935137 4.847938092238867 0.19857015380085155 -0.2734787301842838 0.033003451509214125
Ni 5.320354940033982 4.674589430688318 2.867102902048434 -0.3003644988315343 -0.4451705715370527 -0.3851836494604592
Ni 7.273129672547232 6.151714331424197 2.6101466362837544 0.10461381675734886 -0.6110347504644509 -0.8817911966215654
Ni 5.005694699122617 4.582298490512902 11.343277598765374 0.5707231953295977 -0.34081026555140664 0.30822230431305625
Ni 5.8287050765396495 7.90890166516742 12.378679120932874 -0.34083520525207106 -0.25979197672581067 0.3570673508402173
Ni 1.9422119648350569 6.408518796934819 0.29504457593909034 -0.5542902465845552 0.8478953152050688 0.2034161690392432
Ni 2.966023356890651 1.542742367698271 0.6233966576227096 -0.46708768332511813 0.37840365042414825 -1.0220302187816914
Ni 0.5160973709002636 9.2476172628284 4.676308026421758 -0.1939156857479757 -0.35945899100084544 0.39082542112726887
Ni 8.693284299364372 2.2585347799575315 1.4103481496904147 0.14705681641290805 0.7483535136539886 -0.15590732482500244
Ni 6.629948381812314 0.5516240517874479 4.803383814099945 0.7662339934788353 0.39815023692345625 -0.33374641672608973
Ni 0.6989678841011809 7.305125190381689 2.3834483175883343 0.21706718416377455 0.39208140502155703 0.18338856096440673
Ni 7.610803916261297 3.7656402308698382 3.5497884017560284 -0.10835425763638758 0.5043951615263248 0.5146068119520041
Ni 7.633519739993527 3.682755485008365 12.587549945505904 0.8149286304710609 -0.05493650413687958 -0.6009717098014941
Ni 8.218809112410069 -0.20118684028429168 6.965913969095287 -0.960467981798178 0.8800261343013424 -0.01800852076227866
Ni 7.02906558550218 0.634158211347883 0.5619582155116131 -0.3179698706181234 0.9252343554068646 -2.4073585998046605
Ni 1.8935455262424594 6.565695309990561 9.076021532783043 -0.509470004946071 -0.9562963669189919 0.567136506419604
Ni 9.22873258836525 4.7221354388342975 1.5483354842019506 -0.508166198532983 0.37436624712998107 -0.5333948911927846
Ni 6.290385670651934 1.9063852977315203 6.838190319618533 0.3601197645132959 0.25087873339658084 0.7915863562006948
Ni 3.26036224236296 4.270791719165001 0.38764905592497084 1.24584732007479 -0.11906881584041429 -0.30984441329751156
Ni 5.928495672123876 6.007729983304435 4.96682841264616 0.3322392360529439 -1.634777838172191 -0.1109839819497508
Ni 5.2267086404473355 3.0386886927914434 9.089140508310818 0.7476924830312219 -1.1814645829233459 0.0785078636989164
P 0.20898106047181014 5.377451714164436 12.543367035845659 0.30266512194025297 1.4309500355168259 -0.14053418480304183
P 4.098290609032941 6.0426530774671505 12.703795507915414 0.14766411097960377 1.204436618338487 -0.8683852076283045
P 2.488204950055311 8.47510757707383 1.559192816658851 0.5309250894960533 -0.5270041571750923 -0.9275295791989446
P 6.408500725476002 7.813113897711029 6.1012299040746685 -0.3436677896048598 0.08446639527519646 -0.0012091898167527564
P 4.782629647222237 0.9256472277648443 12.519205495408116 0.44924962670243274 1.0789955804231417 0.3670424597750582
P 4.067225771327529 5.967728809214307 8.264302202834504 0.1820415600182091 0.8095923058598122 -0.34362073841700824
P 4.791909341324464 0.9015064695049403 3.661404959989715 -0.5042964311649315 -0.03940806948397729 0.33131621001804235
P 0.05339664293779318 5.658137612500946 3.6814931936100384 0.17358777282390103 0.1103841435822228 0.09321585933305238
Ni 1.5773853542493328 1.0918685059582012 2.6113628454620987 -0.5056228632858388 0.7990831787983722 0.20310326578451474
Ni 1.730143395624463 6.528350640346447 4.839673110549182 0.09079490859638556 -0.7686148350061859 -0.5091578730222908
Ni 6.17184593654568 5.6295485646533825 9.269802689244369 -0.8140318296884046 -0.23718503795957216 -0.48432487313901107
Ni 8.831521923580516 2.3936821847160683 10.264697036474882 -0.6981884627638233 0.32715153711739137 0.6194813385699074
Ni 2.316182733581886 5.132953912107791 7.133484281689291 -0.4464550946764311 -0.5262922187097323 -0.7107151344759244
Ni 0.3664440061497931 0.24053292399232457 9.177865046088813 0.0009667347886434963 -0.9964981359488579 -0.12188031714728041
Ni 1.3650818560741251 0.6879099584514186 11.388109273797129 0.8587276299338824 1.621763428190394 0.544000691733089
Ni 4.107976910958538 6.7649060362532785 1.5372658121039573 0.5339371368494997 0.6752930462228885 0.007749562038431815
Ni 5.553829152212616 7.857235364411298 8.19513730850645 -0.1357161945891082 -0.06241070102673768 -0.29811401223446077
Ni 5.041927974049523 2.8274333392275874 4.742682687508558 1.373787470262905 -0.011055229372897088 0.7323903054565128
Ni 0.7673484771166021 7.128341144510139 6.791467466421641 -0.47130197851678185 0.24168138316802892 1.0048974157561468
Ni 5.076733603729933 4.436669639640846 7.037988368292783 0.7644452770095286 0.7498941186682311 -0.6048563895678809
Ni 8.060286275672503 7.170709679705217 9.104850931032864 1.2633141094009857 0.6967103355564 -0.5557956274854878
Ni 4.5658353915311505 0.22928705517087145 10.36849768877047 -0.6175632956115881 -0.20331872422943048 -0.2989388221286013
Ni 7.952363523620892 7.464217278071971 4.485396617620478 0.39194873609843467 -0.4138573632460679 1.071393856816484
Ni 7.212427642382904 5.8877535682222755 6.991477854736984 0.12368266046334184 0.6122470256049972 0.4258952682472084
Ni 2.339124450549321 5.587360744046468 2.6182001819052885 -0.06393639364264472 -1.4461429412071802 0.014580726027652308
Ni 2.4442913051314297 5.310975852908265 11.369145084915186 -1.1510114086398113 -0.31422840129782015 0.1647596330093098
Ni 0.9905147291863549 3.67245475348301 3.737830062897262 0.7624606424793321 -1.1700781954632753 -0.06952957145970605
Ni 3.844910684968029 2.713556041495968 2.7142779962756833 -0.30743811784886405 0.2207754862532972 -1.3138828234874729
Ni 1.1738316074200377 3.3583366563361374 8.483157508403602 -1.0126912007689526 0.7223051533063689 -1.5247798742847933
Ni 3.5912867962090953 2.7389554768624347 7.100303276156477 -0.8894862512729779 -0.8321779044698119 -0.13298156926676455
Ni 3.982271843431576 6.899601654541406 6.1923353565517285 0.03935587608980319 -0.5427063984016977 -0.589494819510146
Ni 0.8047365182618769 7.419942203971762 11.329008374883935 -0.1025978147685846 -1.5176100960092314 0.09545169064210658
P 0.06368291729609486 5.531212721503877 8.138786885625114 0.6672663192636702 -0.9230543170364103 -1.1897957284968608
P 8.506497701037938 1.8544931037401935 8.015955180049962 -0.2648141125307504 -1.486415158463666 -0.33554618893898985
P 1.8436592641797545 3.322600346526683 10.558854303786086 -1.2386808842333377 -0.5973215146434165 0.5176610253972955
P 3.9714741467887698 6.033599276600129 3.940181608702271 0.31623514731520375 1.2576957347729436 -0.07245908640167521
P 6.932708567093072 3.910618509224503 10.416728605205591 -0.1628541884564808 0.5541004991712523 0.11048184550235167
P 6.53744961986051 7.902874833652147 10.311644879334038 -1.8947492778986594 -0.751147531459358 -0.13406554635956267
P 2.2325932008265723 8.542170760741536 5.706354071769014 0.9592477362378319 0.00463724166169524 0.9791048801730752
P 6.893556751567315 3.890712797338225 1.3677257104989662 -0.09229180485688622 0.5506228250352968 1.464239393697575
Ni 5.308707884826805 2.9020774998687773 0.20444693145477238 -0.22626119195821676 -0.239098195821885 0.23013995818733268
Ni 1.5140358553684006 1.164371198729646 7.019513915944765 -0.4003333606177041 0.3934682580667546 -0.4636112947407435
Ni 6.70592079467651 0.8095850906623202 9.276362628794725 0.9103594951775611 0.11672808352237961 -1.1992309057678314
Ni 2.484608729750845 1.5117678872869407 9.259395336111998 1.432366199138062 -0.4291662256889964 0.24267845697397558
Ni 6.39531759626943 2.0012423850588665 2.400534881899252 -0.4549579899411197 -0.041480635742289856 0.9866677801219975
Ni 4.21715562939789 6.663001079987532 10.361952206387164 -0.16092457553393577 1.3218527290668267 0.2061212266752321
Ni 8.316982312430227 7.463277562213518 0.28016272960377514 -0.5530468610957572 -2.055157575917809 -0.35013051451106797
Ni 7.447564428772648 3.71536543244258 8.30282603516639 0.9581146510746532 0.2458725384312411 -0.7681517793268383
Ni 3.38617573864282 8.360353813589615 12.484661901880544 -1.2071187931563403 -1.0149889956641938 0.17091613952900886
Ni -0.045913251841917004 5.007050058533848 10.232005767475991 1.4162379261176319 -1.1230609461734724 0.02398042207499741
Ni 8.608203871256705 2.359888556729378 5.732829662507999 -0.10976656460288191 -1.2564343515620167 0.05998023720837412
Ni 3.6120870453067857 2.636924020384973 11.483340440321975 0.09966341473060901 -0.836342834480779 0.3472565353973826
Ni 1.1415379105151096 3.1864047971567944 12.804224025995861 0.44510089464138186 0.4242145381106759 -0.8654860317036385
Ni 3.011057432261149 8.302028180259645 7.891577461173067 0.16490490033792246 0.9503265224888021 0.23303656300883735
Ni 5.481597531323418 7.686568507349104 3.4042770153662794 0.6823826060798183 0.9718618254574165 0.02988418915394208
Ni 3.1589271440264404 8.129265033974747 3.7160494371587816 -0.22505405902399309 1.0726192445831526 -0.3544329985411638
Ni 3.342786166024615 4.182042784917602 9.378919964723744 0.08116124216136344 1.0728696700310618 -0.6477441900703426
Ni 7.327045869925996 5.979990294021242 11.42541599337773 -0.4289692791868419 0.9992649000607177 0.6551484529542136
Ni 0.7188519102368791 0.1408507571609963 0.4381967333803567 0.4352052327942247 0.4419893455955936 -0.04660587278399716
Ni 4.791050947030684 0.2938184274583968 1.4907543949752171 -0.3360406120769051 -0.8717849773384728 0.27069705367408864
Ni 6.177430017319951 5.655029321584522 0.26454266417580946 -0.490642844937239 0.23663610743463764 0.7999298430693835
Ni 8.005412290976468 8.90251564954079 11.485311132905904 -0.03432037054842477 0.30843544876512685 -0.2779362517350052
Ni -0.210658995422914 4.674562323500092 5.716510231623838 1.316788684280358 1.3236936389303076 0.2839685739720142
Ni 8.099591698598198 8.949781550075116 2.5008838855609055 -0.15814778411974698 -0.7727694806045079 0.3842878771190672
P 8.431031289020602 1.6807089200321679 3.511290773039426 0.05221062056528428 0.8991173466048386 1.0675739688497614
P 1.986875575299819 3.3462739575761824 1.7126384770419454 -1.130590164670982 -1.0946829092514117 0.9554795274446513
P 4.596773729024847 1.04654528724664 8.175286714569562 0.19453583583047787 0.04572758394410189 0.22967021763976572
P 8.639295816150343 1.6818745291258264 12.386111911944063 -0.679216549647011 -0.4416959827248909 0.8940427602954087
P 6.477325876378307 7.79169921901358 1.4336639458553493 -0.5452451056631512 -0.8471491810676637 -0.40487804256559307
P 1.6873772883354239 3.187696906462168 5.965478912591664 -0.2427887572995948 0.29913268330696224 0.4224245360897886
P 6.840489912752921 3.7815431146282807 5.749254811426236 -1.0704258364762596 0.7368239157478342 0.18120749415268791
P 2.4101723908860437 8.332379195341808 10.131736278233129 0.6795423084175458 0.5998900467015411 0.3447633366618837
