# total energy = -340897.1295342892 ev
CRYSTAL
PRIMVEC
8.98805807802254 0.00000000000000 0.00000000000000
0.00000000000000 8.98805807802254 0.00000000000000
0.00000000000000 0.00000000000000 13.15493152402642
PRIMCOORD
 96 1
Ni 6.130439745812869 1.9735797885921402 11.356560421857653 0.9617689599977888 0.7573947979206505 0.0880703105763709
Ni 4.618261912094976 0.05845743010239833 6.020932842970638 -0.4967229896930478 0.45732700439392854 -0.6124791962204613
Ni 2.8043100326986408 1.6999922926455693 4.832950664293793 0.4463201117604636 -0.8872581332734074 -0.6389268488890286
Ni 3.406617772058397 4.324019858978813 4.802589004537969 0.17801315558510633 -0.7790967083741163 0.2458591686948024
Ni 4.899633066226433 4.621875111390962 2.6520999677291477 0.8010133059415495 -0.9928888213310448 -0.7263690389630975
Ni 7.161010470384433 5.9152206981949895 2.489649808336976 0.6752848186927725 0.886743141310202 -0.03741957829903878
Ni 4.995364871454164 4.377669576883641 11.637351846251322 0.06353041645347769 -0.015676530194992357 -1.5377480044096872
Ni 5.693862806997114 7.751022546468296 12.359715772069475 -1.3067107312190658 0.8758306081627562 0.13184385611789554
Ni 1.6071276779039558 6.5568152388551315 0.37028282098656573 1.5045442639642088 0.2815756482598054 -0.22409195222103984
Ni 2.7172517033928654 1.55233647663945 0.3487528269726225 0.09002692008210947 -0.5222771840130683 0.7385673808015022
Ni 0.6369270421665961 9.229477186756986 4.790210651128935 -0.1478093783082164 -0.13362023129202796 -0.03103784314241106
Ni 8.441206528407296 2.6118038075209524 1.5329312595249376 0.03869921634241077 -1.3210798554565442 0.3145485036414002
Ni 6.9781574194452745 0.6701118509245821 4.786711600168916 -1.3319918743833576 -0.9423507033721771 0.09795697356246356
Ni 0.9968744953162104 7.243323105092495 2.5713943977825844 -0.6874751901113774 1.0039926445536904 0.3512098636181758
Ni 7.526024491800582 3.8696375773636826 3.8649188469398204 0.5538109929552913 -0.509817875203793 -0.2940426703785646
Ni 7.610323487315642 3.7982274569492307 12.518863718970737 0.06399604323598657 -0.452955100578478 0.31358382573528576
Ni 7.87369156137282 8.706749712488424 7.100242210583034 -0.06928994464507422 0.4871790547583545 -0.3710022157537546
Ni 6.888582433913439 0.7732704884365759 0.4694930046410304 -0.7387812965845212 -0.16718058374597658 -0.3284897963128407
Ni 1.869219447732203 6.452616683038299 9.095845437570585 -0.3168082462098544 -0.14784177420804862 -0.22092023936127758
Ni 0.2676356039719391 4.727260090857224 1.3153393646082012 -0.008553545996965914 1.3734172314076798 0.4265359871550009
Ni 6.300502790288872 1.893226550517225 6.851548938741171 0.09515498533729418 0.38162678534713634 1.037795194925432
Ni 3.3458135600251975 4.337214328049727 0.4010624254370743 0.626778643562269 0.8061480560649535 -0.9129231421396794
Ni 6.004921516538127 5.706347219489961 4.592031163773071 0.6855664031244386 0.0844270573968288 0.7628789609636732
Ni 5.285589262666583 2.7460045007756007 9.14500562052928 -0.38780951711908046 0.9879258208988148 0.236322947069593
P 0.21088230965690138 5.494247027980806 12.273643432720839 -0.540637945908443 -0.3882448048842862 0.2001254141031134
P 3.9601293448064396 6.230117308480745 12.350993760634585 -0.6123077036396035 -0.8671284524030679 0.9006291552636747
P 2.327187964469468 8.532911683673332 1.3541821558458471 0.7836455040870633 -0.024865652893428146 -0.3164272087213518
P 6.373315047743558 7.64466685674341 5.721908244219167 0.03169090334537768 0.34234624257995877 -0.19069563614878127
P 4.753541172303651 1.0353164191692767 12.644717202807023 -0.5485960244132552 -0.7664024007358995 -0.3923624265970856
P 4.034883022778371 6.081472806100102 8.191694444486169 -1.065721489022055 -0.1676680649053564 -0.2726999430367304
P 4.748543812083332 0.9192895790899612 3.8582227437669108 0.17608971331014836 0.5367499237079466 -0.022488925131135463
P 0.1657272053208201 5.521130309309896 3.490634542553819 0.11443208839935132 -0.5142553421498564 0.7559565228122271
Ni 1.2644759446679388 1.1388139064659937 2.561528206570634 0.8772228605245925 0.3225145525660123 -0.3317766945942286
Ni 1.933088587526425 6.299945530695959 4.781817602615025 0.24087817054044325 0.9055350772057245 -0.3448584674788513
Ni 5.946409259282233 5.561504665622259 9.137151855492384 -0.019393574035263376 1.0770842223330417 0.0390825678237585
Ni 8.41951834457343 2.3501794167061165 10.402682998163678 0.6528054066433339 0.5914532287880976 -0.48854816719173927
Ni 2.4180122900563834 5.046857455450942 7.078786817450078 -0.5820159946345975 0.05070292567150623 -0.5331920311533591
Ni 0.4954630992823794 0.25172224737108484 9.042844657449761 0.24371615420987056 -0.44434473320164763 0.5521469749893072
Ni 1.438925161423647 1.097621636880162 11.45919505559115 -0.7097661402990937 -0.03850098428867563 -0.6436983021357431
Ni 4.128673407488857 6.90666640650927 1.4124445450907257 -0.6259386641594769 0.4022084661532299 -0.058107959886325736
Ni 5.522469529944479 7.656746806628498 7.88857848175576 0.7090655146876433 0.8372095533564484 0.5118888988002087
Ni 5.30396984117477 2.8149878455434956 4.802747194357893 -0.1772222842526948 0.48878393735162917 0.33743594976253494
Ni 0.8997944813959466 7.338281937336507 6.8272910691393385 -0.4199387935534574 0.2127168776148788 0.2883474197660002
Ni 5.006339290211376 4.3570599600038005 7.202351042926443 0.44236395532619305 0.03398715557872211 -0.4556221058876799
Ni 8.225430221196504 7.085537747776484 9.017744606817994 -0.5845387610564513 0.6655562785510989 0.81837750825161
Ni 4.448738151095985 0.40807850347301156 10.425980044370633 0.4015505208542568 -0.6905042067456882 -0.024168626826403538
Ni 8.325853792674247 7.28297841676884 4.640178392600778 -0.5476264614111342 -0.6980401101114172 -0.05479920722806692
Ni 7.40380487979357 6.102540813935405 6.870609913236191 -1.319465974002205 -0.12320803481976844 -0.37406568517042676
Ni 2.5298686712467995 5.246608055336503 2.461234961933169 -1.2944301140794998 -0.07078195580956842 0.5487888571503516
Ni 2.2361838777235494 5.188401392050915 11.18338840813667 0.3216635174196266 0.6745273717014577 1.2137293564943226
Ni 1.1523948620287672 3.3410229251377332 3.7802144900112067 -0.5742998569372626 0.507988535304538 -0.4139121277434033
Ni 3.7697622774209023 2.552177031079231 2.63184178391516 -0.8152376770710476 -0.05572300459391694 0.04816524685131705
Ni 1.060411076966275 3.195236625185258 8.07041857856393 -0.822374545226145 0.6797911912035582 0.8817798837676555
Ni 3.6776346834312066 2.4832745788328885 6.990056709365564 0.0068900422516139405 -0.006996743032807304 -0.14433864615079656
Ni 4.214006029668191 6.42585024646256 5.999346224191609 -0.2085177519318667 1.3524961649842964 0.1378257847329433
Ni 0.8904190381480781 7.341976029154046 11.310952319400881 -0.946123540151048 0.3907521446871722 -0.5613075584426526
P 0.1993748990632421 5.518964187343895 7.8021636973992194 1.9185648922610183 -0.36528948163969344 1.4879074267384764
P 8.256933364312005 1.7610391822434244 8.061131218283972 0.232599989692051 -0.1697732841738173 -0.6127175374835125
P 1.6776389925233866 3.2116578070602997 10.306428087963244 -0.36919344467979 -0.4923058344619585 -0.2896854218511334
P 4.0172035127903 6.173474567278495 3.7404333455235586 -0.9115404028595397 1.0994235092601903 0.23682534062730828
P 6.756341137291937 3.9626729652063504 10.235483548950613 0.4435119528877071 -1.0262231738171164 2.054206267748133
P 6.344903796562932 7.73905944133656 10.326239565297106 0.42570500661327326 -0.5489449231122417 -1.4989091771656184
P 2.3997755204753988 8.472215328335535 5.781303128765772 0.8923545739597083 -0.40701360085135707 -0.333139122159394
P 6.754561501817794 4.014120608913377 1.5737505247058354 0.43529907805961165 -0.3386181429960942 -0.11012600482482969
Ni 5.232397935717214 2.884285772339647 0.4739079387061756 -0.03876040859764938 0.0019447824311966508 0.0480703731446656
Ni 1.5353939874032962 1.140845207562742 6.941896897256726 -0.5357664767487548 -0.3412972324901542 0.014942480242445233
Ni 6.762551885335535 0.6939535734433203 9.29848390047555 -0.4350861907178571 -0.504035721304377 -0.8035669256013388
Ni 2.7832060726315375 1.6239353462708566 9.121510837047422 -0.5446383253170878 -0.038284754512811485 0.27057261228108237
Ni 6.207853888938065 2.0880786588199194 2.6620452538510597 1.0694652723352034 -0.3758366610279205 -0.3105584086454007
Ni 4.094680572321146 6.836910088757658 10.26242525265638 0.37511443814991524 0.5687524447564721 0.08359787662731409
Ni 7.891640713099397 7.157505127783849 0.11426158549789342 1.4483993413415248 -0.8128470653516839 -0.5413460277190613
Ni 7.617019590488551 4.001762029231832 8.266768996126924 -0.24564808112526085 -1.1668663733941969 -1.5503093860144654
Ni 3.0002766601871618 8.310214571840874 12.158603481404455 0.9050265130004219 -0.25024752757048513 1.3253728264049431
Ni 0.0038262162694061978 4.920790954641237 10.077374621548396 0.7200322981117923 -0.8602119277888928 -0.17439381366496418
Ni 8.45437403330436 2.3812331569241065 5.83093608357265 0.6041444511025208 0.3233774147869399 0.07725033714273148
Ni 3.467242222932592 2.5487615690581498 11.401168153464567 0.63794185926794 0.4071727521370407 -0.05782308165605525
Ni 1.2849237765046762 3.4078041957078247 12.552553656585525 -1.203860948340675 -0.2611073531031245 0.17750073472506203
Ni 3.0597146874119283 8.322105772509008 8.016851550792241 0.7346665030851992 0.0757027901499535 -0.7088513417943083
Ni 5.481133451431443 7.8497204108195975 3.410166257337141 0.6097142318808144 0.017438764301737707 0.9205063538035759
Ni 3.036085083060815 8.492204769216812 3.5340198982795035 -0.03732599014396797 -0.6740422045349231 0.29105170607104064
Ni 3.373290053179002 4.282728720755529 9.325912756922218 0.6610301085459712 -0.5371577006693264 -0.5843438714368259
Ni 7.1674549079347365 5.859126228527702 11.29021956612712 -0.3273489978401782 0.9656806363473692 0.15881164295599098
Ni 0.3265918712905743 8.91381659154546 0.5496422138004757 0.8052553690473551 0.5765770830072134 -0.7454149998509549
Ni 4.626126462801413 0.37705712026364213 1.6079401983426553 -0.2671900689620947 -0.35645774228067645 -0.28361324751512446
Ni 5.825115417244091 5.547582163857377 0.3203604507136908 0.4467163187576178 0.22393562914883372 0.6756694557257009
Ni 8.035863090968535 8.94021451774524 11.195780243632631 0.10056664327116872 -0.013586223324866926 0.9901426260444753
Ni 0.195679009634114 4.787623888050864 5.69100730098633 -0.2727356813706722 -0.059425650256484754 -0.10744460133792463
Ni 7.938828017338023 8.747843113436804 2.541308671405832 -0.20540903109955594 -0.13383286152346627 0.4369173303893249
P 8.411087546216129 1.6837418838715819 3.584403355925224 -0.20460864668544762 0.5613088439942333 0.032543481153660084
P 1.957032773905796 3.251717581344405 1.6062306697205246 -0.7885691666409258 -0.8300220344690737 0.42695173453618085
P 4.7867160941978915 0.943656204192992 8.220187486994144 -0.42605416242257593 -1.1336019549141123 -1.0103095879106538
P 8.586363664303256 1.7355850021284176 12.662923412990976 0.1082681256804845 -0.49731999984709835 -1.3841693277178615
P 6.3385672157080295 7.647003751810466 1.3703885231358783 -0.9131000340371759 0.6120109983347911 0.7568155283784127
P 1.7503074410508686 3.1893224830540174 5.9614732444067915 0.2786001105712492 -0.0011428553551915803 -0.08088587701278974
P 6.778487712081265 4.119424695858086 5.9933206301417865 0.42946550209697004 -0.8026868369892305 -0.3456480532596821
P 2.344957355037042 8.420273341441247 10.046868254059572 -0.436023872040778 0.8375692506887125 0.6466666407354476
