# total energy = -381175.32303684996 ev
CRYSTAL
PRIMVEC
9.19333207416354 0.00000000000000 0.00000000000000

0.00000000000000 9.19333207416354 0.00000000000000

0.00000000000000 0.00000000000000 13.45537076679336

PRIMCOORD
 96 1
Ni 1.2640647825116182 3.321992181929979 1.0930540953862191 0.25433301049376844 0.3276575302195325 0.7277828885914887
Ni 4.312527753296211 0.912441892174367 8.328403226449867 -0.05641797377841251 -0.8784893859418418 0.2092129782266784
Ni 7.232486327435419 7.627054949528947 4.929791975803191 0.06054279458006347 0.17626994764175452 -0.8652734014722001
Ni 0.6540577763955299 0.5422457129157626 7.400682935592929 -0.6577131283575964 0.37140047963343775 1.1936909497862087
Ni 0.5960313025976796 5.7729345303103 1.8834830027388727 -0.33048034438030827 0.4519443999257765 -0.17356000490975915
Ni 7.33772240043583 2.920317114092646 13.519014631715638 0.813225017516393 -0.3188391605969541 -0.3074630575495285
Ni 3.9801152497975787 5.883089036005322 9.56170987762249 0.06754390848824497 0.8501136630126263 -0.5275127213803947
Ni 8.862317022447636 4.729426979156493 13.200270774441956 0.29014256399321 -1.5091128571714978 1.1942817892926723
Ni 4.244717735435547 6.582168398554222 2.159062326951358 0.745941047557754 0.4041815307192007 -0.12119537526511387
Ni 6.418251286507631 8.988265672758251 12.10142396047466 0.3270677191543335 -0.058196662945390096 0.05802954123990651
Ni 0.45026826352688243 6.96209204254959 4.249569056805541 -0.2754307117043321 1.1029376930610357 0.25729672110778273
Ni 7.523538029638616 0.7235373033727209 8.793151907429612 -0.07060120725733003 -0.03317622964165254 -0.15784696504987653
Ni 3.4523536316675365 1.9630246317427038 0.9845736954737925 0.48292696435021987 -2.212898097296808 0.3940336436519214
Ni 6.153253487587666 6.6746349332129205 11.381710163938742 -0.7689544777337919 0.43942698418505616 -0.892155827685341
Ni 3.319316922277396 7.926628870625426 8.137337285262232 -0.2425149348129178 -0.6848115272362851 -0.42919733603724786
Ni 5.362571763601176 0.6482016238226932 4.613927470155588 -0.08000990216573962 0.813802744396734 1.1084424249293492
Ni 7.785695088927488 6.77905279965292 13.042856106217604 0.7832549535168639 1.3430864416346222 -1.106478359224443
Ni 2.1265372371751585 7.781475349475476 2.641867631586221 0.7679023823201936 -0.7511141071182613 0.952311671239631
Ni 0.6549522876126995 1.6742804559065108 12.980517040313131 -1.2032670235104181 0.5133863092813417 -0.7678118794889165
Ni 4.689059057732119 9.010927236482024 2.5150511307216394 -0.16492906870763852 0.6621577943925112 1.0692855522242295
Ni 1.6495963591120577 3.3579013372667137 3.7868254415654095 -1.5671930491436816 0.5764014766612976 0.27910944610749994
Ni 4.696128730147365 5.6036301256299845 13.378971683902012 2.028735891391171 0.5566181233867834 -1.4492421489577945
Ni 1.122754074195962 7.588727947839534 9.400339318578528 0.7781531135139244 0.7412791233057104 0.44022119795157727
Ni 1.8241777364404232 8.60993247522301 12.250576581105276 -1.0893301295799305 0.39338623987590954 1.1177048240678815
P 0.6842459211418782 7.711624411879851 0.6607045555323603 1.054392694272797 -1.7739241414887705 0.29152016106702694
Ni 6.614924240967121 2.9036220229273844 4.447901407716204 -0.5632091463407397 -0.9011616307283771 -1.0828200963755543
P 5.924734830597082 2.467425992906375 8.689115564273402 0.445906935482445 0.32552402881629744 -0.10311537783495145
Ni 8.23020189120257 5.900317340434673 6.623312237211165 0.13835234666037463 -1.9748198580990053 -1.4723679363419804
P 2.2173581653808943 1.3007277910837889 8.737904577937522 -0.5355733869013422 -0.2862298592023651 0.8838820177123229
P 7.048123244710666 0.734864407901751 6.3109320044444175 -0.42993755663738215 -0.8634836565616291 -0.4903134866222781
P 4.256586327227591 0.1534633740708097 12.144158245591731 0.8854285362638363 -0.4834103317445417 0.4832997743086064
Ni 7.111685943122899 5.620187316813155 1.297230647537938 -1.1215902751652167 -0.5011288320702273 1.3855875482216267
Ni 2.711821534501808 6.233584823822276 0.418973241590943 -1.7032298602970022 0.11376283024646859 1.4482221923337124
Ni 5.015744115307868 2.1940714550716396 6.576850975244756 2.387964768659081 -0.03494463439598498 -0.6047262917479199
Ni 5.547808212879177 1.103052763421097 10.392215277770696 1.25534497515258 0.53319794469063 0.44204436720324514
Ni 2.569251339683046 1.1378311389046782 3.477970851674145 0.6201503396124739 0.13906222824320566 0.07516028738292216
Ni 7.388184600549331 4.167502938796213 8.759486844468121 -0.6419741203557847 0.2701046715057283 -0.7108166930507952
Ni 3.3823004407648436 4.543850376589331 11.506454487739088 -0.38496356302985313 -0.359670078570387 0.9267950150257652
Ni 5.504369718520224 8.203026401398324 9.527573196722242 0.30552084622149317 -1.3682727110922628 -0.48115470294114543
Ni 9.14163803284088 1.8174390239821985 3.555514769604071 0.393638979316664 0.5002261177502998 -0.6267711873631012
Ni 0.3873766783608293 3.7502819463110515 7.410707344957797 0.767812907930181 0.022966893208818513 -1.0966240921381822
Ni 7.313479583584071 5.327903708103269 3.6965129046269856 1.3795493124473466 1.3148593284681291 0.27642238619364007
Ni 1.0624642020253765 6.338324456887156 12.366911763997658 -0.15078491599677257 -0.10774927706253701 -1.715940365885135
Ni 2.449820761859307 5.485045334363076 3.486878271184069 0.8161972127708395 1.2325017520058192 0.4873418055884639
Ni -0.06253396454582814 5.6228166098050405 8.763657859259794 1.9674119956707083 0.4163163663095217 0.043629563764492604
Ni 8.86716190848513 9.508295698559007 5.075164298258061 -0.3196313174809463 -1.9865772557452495 1.2476702322161415
Ni 9.036025033222751 2.6045813150949946 9.367615652828118 -0.34914089690428907 -0.6281708959241052 -0.6346050815852232
Ni 5.710272778447734 4.49081404347678 10.367322492336678 -2.6732086097990932 1.7285187167707778 -0.5370155186645074
Ni 5.358618630781208 3.8244905233407813 1.0857702183321243 0.26157837920227206 -1.168277651919427 0.6095342546595245
Ni 2.4173682994070096 5.295405278990273 7.63834528072942 0.47743225978423587 0.5902517522808286 -0.4956346417248754
Ni 2.1594585595665685 3.770792270314189 9.439521300156912 -0.3770401944177184 0.24094681899484957 -1.6910150633983652
Ni 3.536491007407885 8.629597012669317 0.6370050646100436 -0.3202252423112033 -0.39903135397682893 -1.1666542573833907
Ni 0.8277998024995629 3.501298931978028 11.141598715120297 -0.25877407698425753 0.1849916437854685 2.7883125274544884
Ni 5.426805575259591 8.209103193942507 6.675990030370277 -0.6466964655321186 1.020046098472127 0.3212655106502596
Ni 5.953546733522153 1.2500081776703822 0.9236963693794952 -0.38504866654449166 -0.09929780386107415 0.2317345563679622
Ni 0.9298044192529532 7.439143240598364 7.064850512538415 0.5171043815628772 -0.6187313477777602 -0.9004049550680105
P 4.06077754598921 5.281210774166945 5.517563069473565 0.5660306749499349 -1.3303355697268573 -0.2829488744582482
Ni 6.0875119694583795 6.355332121345159 8.08405365151513 0.053796991215797674 -0.4726374094987537 -0.04154388488005748
P 6.705588882526486 4.840041151458488 12.405663497631917 -0.4432296457605979 0.21836764814275295 1.5384386027188086
Ni 3.126955640591312 7.090881432491299 5.929418833322137 -1.1998520842915978 0.5640203293881254 0.3798113294049523
P 3.128941400333436 3.8238929567517164 13.628272787527061 0.6318504016582215 1.5513224006600124 -1.2398059989767163
P 7.941742708662701 1.162450882374155 11.154596248099066 0.2516459505799085 -0.21977584134418923 0.03861514126903672
P 8.59305351741496 1.6745562558706946 1.5430483976153457 -0.2770746750656583 -0.6009431705564037 -1.723858335180631
Ni 6.2359658968463965 4.683589025109139 5.901431572289975 -0.45241491180429183 1.0833718551139666 -0.1509175849198949
Ni 7.1129178496295875 0.6284037830603639 2.904664546791999 -1.4194381782224843 0.670449087867026 0.7740398626764993
Ni 1.2494565777420146 5.310537503691827 5.48318460393805 0.6542524235025055 -0.9021034258163559 1.60535181960159
Ni 5.001439290498866 4.27603941803469 7.868727426144673 -1.4632117237640092 -0.07970419799986272 0.3116506132683149
Ni 5.051975037269484 2.331916277170719 12.451021559741589 0.4760556911516834 0.658182354684531 -0.3584434052521375
Ni 1.1444871113736481 2.05401103992695 5.718774772010307 0.03534007006219075 0.799092691880069 -0.6919108572852276
Ni 7.264681376587811 3.3108406700448123 11.063678789905866 2.5936332240676103 -3.814317671723528 0.6155611775798947
Ni 5.175211654598959 4.92138375422844 3.4757240012992607 -0.8183404843660875 -0.4113950177485044 1.1157690404977494
Ni 8.708282742450965 8.003246100675696 11.084224967904348 -1.0057132267892228 0.2674196684743975 0.12407655346765083
Ni 2.803607762582187 1.6553973516920577 12.090148338605612 -0.831638229916258 1.249784450345667 -0.8363019539405145
Ni 2.8509810030968303 2.6968731764430443 7.207800391974537 -0.6196955114632424 1.5248544362764707 1.068304933478515
Ni 3.559704171060024 7.198581318505086 11.655378194399432 0.9040790614854881 -1.83490222383404 1.0303209980355739
Ni 1.5033947980982083 0.360684757827118 1.4554267489941421 -0.7934038690254077 2.3732243771251125 -1.0507682101463325
Ni 3.660959531244048 3.0634664888361938 4.9690281980411966 0.1419053541189556 0.6561316428030893 -0.5112178408751131
Ni 3.258116910225003 8.88475794620006 10.265317875583285 -0.7085242974721926 2.0265010885233807 -1.3921073516180156
Ni 8.445629243226561 5.353939224722223 10.983295971011275 -0.22431923774049756 0.9950932851815314 -0.5989513369373556
Ni 4.854520649578139 7.510244471364955 4.479225848314989 0.35018425056713887 -0.8926335386527078 -1.1426717784258644
Ni 3.0276308801565746 0.566018750495195 6.179930698789954 1.3500181357574492 -0.018437894990213408 0.9140071192324775
Ni 7.748250647123464 7.9558085068360755 7.221134400909612 0.38875079798642725 2.11117651448559 0.3837245484164295
Ni 3.4637257835240503 3.64147886044053 2.5790578670762088 -0.9206521353528209 0.8453710061213182 -1.1499042916185616
Ni 7.463781370732119 2.81738856745924 6.834090521172231 0.273051155728562 -1.0148959217297555 -0.1686877644191224
Ni 8.784844812508396 8.461257907863645 2.526272511931065 0.7069806071341567 -1.538687485504821 -0.0829540723957281
Ni 5.881820356170077 7.998162188002573 0.7324897702101282 0.7566936580885678 -1.1087368162413165 0.20498325641604695
Ni 8.773693300623231 3.931114789494251 4.767116882928641 -0.21174037263422246 -0.5154496195682736 0.9181427386674058
Ni 4.071561324588798 2.771219653454866 9.981732078410545 -0.12979031602297647 0.050741492218925516 -0.30625643883593706
P 1.9299929893656205 5.7884344882974315 10.319502455880055 -0.5114497543802611 -0.1781126572774481 -0.08233675052670336
Ni 8.397272316172996 -0.19527464864107866 -0.03068366534866527 -0.6702500844823426 1.519740512088673 0.622174054910722
P 2.0502325804176316 8.699723750229127 4.789277410050811 -2.034800609528012 -1.7221554935569114 -1.668565476145597
Ni 8.445022483305356 3.7407944275431277 2.2671225915850113 -0.5914444870373492 0.37093536707156116 0.21494936648982335
P 5.048821724345649 2.3568577872650764 2.783364964544308 1.7481202930517896 -2.0185926323095815 0.8696543041487153
P 7.715963664649677 7.201661084771805 9.247539703088188 -0.2708999137135141 0.326057018501632 1.1108957715658478
P 6.556794801849309 7.318793329560679 2.820245855088184 -0.42265773514651717 0.030444946753418536 -0.15857330169293982
Ni 0.866980864744732 0.7815251651755856 10.551015381148462 0.4324667508171391 0.42572634676951193 -0.5378536982950866
