# total energy = -340874.1560674016 ev
CRYSTAL
PRIMVEC
9.20002543427477 0.00000000000000 0.00000000000000

0.00000000000000 9.20002543427477 0.00000000000000

0.00000000000000 0.00000000000000 13.46516717588114

PRIMCOORD
 96 1
Ni 6.9953863405354095 6.493313366780614 4.693364321821969 1.0823935503610973 0.7063069781058997 -1.6563643060937152
Ni 8.806678096529591 2.082508498088098 8.915206193480435 -0.41081600531658286 0.2059502483150066 0.49669547888922194
Ni 2.2928210735381307 3.1728954815674446 0.6148625223656776 -0.5692656369474648 0.5828873414959574 -2.1676788204476924
Ni 0.17779784648434996 4.302897773440835 7.705171962626408 0.8839452668500906 -1.0795455393893407 0.0017650623202227667
Ni 8.018042738692658 7.3598729378310965 10.160437880640533 0.07732027114871846 -1.1905061243003239 0.33855386541706206
Ni 5.162069724277564 6.697001924106237 6.215884767690027 0.13320962611717058 0.4951934404223988 1.8579945868771293
Ni 1.7072670713654174 8.520621713831959 3.327889225655994 -0.429487356473841 -0.21553763489312558 -0.23383129099599081
Ni 9.184937131508947 1.6751865835878907 6.348408370296549 0.6636564904252248 -0.08545781265418831 0.034612704977862965
Ni 8.873773880114765 7.409323073134855 2.871271736274931 -0.12542638262732592 -2.1283411991903347 0.5473415831808638
Ni 0.9831974901911432 6.681702282243883 8.332810559949541 0.14732395403136564 0.36034139360579875 0.6606578128082171
Ni 5.780366616040246 8.551818999192898 5.01127763168543 -0.3811035658538146 1.1896098377382995 -0.9033740649986636
Ni 0.6413245547701802 -0.07240603811491017 10.43355166792508 -0.2872423596272795 -0.07132728679007716 0.12792703756199258
Ni 9.13328819018889 6.683772287907761 6.076142825332933 -0.31770453277187866 -0.5748973813119455 -1.7160290689441995
Ni 3.9431583891343096 8.490142030434498 11.964824097740014 -0.3380285890412114 1.0315548704426751 -0.3186499274042835
Ni 6.094391075263166 0.35621301465779426 12.218588392081145 -0.11859521863810542 0.2983829496251313 0.0019998040388481686
Ni 7.5550422718467125 4.521103970489123 5.764478172566833 2.6339931159418954 -0.8809982684066247 0.2968937666741145
Ni 2.067015655697116 4.972264004937686 9.822112474926197 -1.5955746856101682 0.27968743009815705 0.24147620913575832
Ni 4.970212399324154 2.7628871597167817 12.877209914178692 0.5823754348565453 0.44281415548973413 -0.5641103179987704
Ni 3.309681455836521 0.7638228899459101 4.09269743829791 0.7088641973101146 1.4269419427986973 0.1370750226098478
Ni 7.454752797438104 0.37970343893148495 10.181025696972206 -1.0029894001001565 0.34090873880248385 -1.0438879380867314
Ni 5.524973917243531 9.182269124208837 1.0152402578654616 -2.6860944646228253 -1.4269311441654198 -1.2070745701819665
Ni 7.471671643730868 3.9061190877886474 13.014271889202954 0.4330434492562155 -0.9975625726576304 0.1915207031532379
Ni 7.034725648174271 0.8202291642828171 7.503464170720488 -1.0369948105113238 0.07320933430413844 -0.29763295883298424
Ni 7.652222137746918 8.446717911618919 1.0487384695221156 1.1170188537444503 -0.9761895062984929 -1.8147807704938168
P 5.403837185793375 6.004976030608797 9.354304994927467 0.37956707460463013 -0.8107176777135071 1.1313506969860903
P 7.036400052755718 2.643572033250838 2.658548754229627 -0.7071608414657627 0.392679186506556 0.14181536550831061
P 6.784816164380539 8.130770647134884 2.9662684362016325 -0.783480953484741 -0.08114067333607317 1.1828398660043178
P 8.358370069884593 8.040472400063928 12.2543654499731 -0.11164938344789159 -0.5330485635969594 -0.3036444551343867
P 2.0791872890007204 7.19508208693604 10.375234548359785 -0.8063509161043789 0.9832849796926936 0.2331424924590824
P 0.0837147090573065 5.098000748974239 4.139434486178213 -1.6206655671405248 0.291332213425937 -0.3485996796888383
P 5.629155002300232 4.829387614004221 5.208178410438565 -1.2980384002560486 -0.5771980044206639 -0.9443458794253348
P 1.0523172793143318 0.9927839164211928 4.526261504600991 0.046543137866861775 0.3917384198598415 0.15736694008966448
Ni 0.24761499751563634 3.3213930878814857 11.186860769103523 -1.3125090830683976 0.7885529686910097 0.9290966665757483
Ni 1.603233186711482 1.3267724302690727 12.405282662907586 0.20693960881146942 0.2939434257965389 0.5916213789348456
Ni 5.767836181754903 7.259997464555263 11.508650969574797 2.2490665767975653 -0.7777754184595315 -0.47310535027410777
Ni 8.820818535220173 2.8187865126666685 1.270018394980634 1.6546280401288986 0.8589006651766369 0.1324742906130428
Ni 2.3773233047502287 5.699765195501413 12.958499496600451 -1.4469515531514048 -1.5919985382231356 -0.4546106339040299
Ni 4.060265509558783 8.154285911476542 2.607637654928429 -0.5626913261640567 -0.5120040842218343 -0.4704676555409446
Ni 0.30919904601979087 5.899911743135509 11.64223901509381 0.3706332624501101 0.7052327712051145 0.7267608750848773
Ni 7.142733943702852 1.504305316028446 0.7292878354522823 -1.311802029699044 0.973820234735368 -0.1041888134047883
Ni 2.5455641650850818 2.0882125136952294 6.151467111432652 -0.013027008387287242 -0.893221549945694 -0.20786931971459038
Ni 5.957329100238907 6.469632501985847 1.7314861376327935 0.28122649245050274 0.2399823981990512 -0.03373673013081287
Ni 1.4820136550347704 8.659422493613876 6.240364194669793 -0.9680370523946876 2.331145959897824 0.15361055837102577
Ni 7.7343967625903 4.794280317944846 2.47206976399223 0.8153991423495764 -0.200652490251177 1.0664678802697762
Ni 1.337168458714328 2.5097668671377464 2.7905746354743 3.32290966648549 -0.883990004045097 -0.5931678974863591
Ni 6.5827192114098105 4.131630104824133 9.033282076555603 1.7073955616389176 1.1200854084849161 0.07383359815169865
Ni 8.404765796830985 6.231811851269165 0.7723347532357776 0.28187826710188874 -0.6808818531645757 -1.5249477673212253
Ni 1.8739623274712418 6.272282762004279 3.7117409559378913 0.8640243595564475 -0.3173666898164857 1.764325442056742
Ni 8.781985228965816 2.688514156219929 3.939585099357197 -1.8487761536026546 1.8209107946509542 2.4784817410037316
Ni 7.940431326334983 6.059955381041404 7.932167863724781 -2.7525083732716853 0.6581180771054989 0.8176917950384951
Ni 3.749240258542193 8.785628438934241 7.083149060668744 0.7045699408101349 0.5729055476928973 0.675715735582604
Ni 1.7691464406776187 8.149354697983924 12.400771890565366 -1.4874346008671158 -1.348350518247039 0.5919381388443161
Ni 7.213813338187846 5.278312042335796 11.245447449406381 -0.8827666731609571 0.3170198480000282 -1.4436284023154429
Ni 8.293105091308805 8.817322525654511 4.943076005074485 0.7940479303673098 -0.8278016297789872 0.7561398424676269
Ni 4.6707055798239 2.875090666724157 4.235737589679451 0.4529509868134199 0.6266904547238369 1.2503220680166918
Ni 5.782629822232753 7.87297674176807 8.390952879036554 0.13766869032978873 0.33768997475487 0.566138661282709
P 2.449147901274218 3.8942602553409182 7.877795714953579 0.886505314267783 -1.0186736436046326 -0.7181931880205245
P 2.914218373784043 3.907959092823206 3.3422164248575834 -0.6339383945355018 -0.4897118484825373 1.651313373933369
P 2.97469933926998 3.8496861333787393 11.599473618080603 0.807380385810158 -0.6925302360367815 0.11181367693989776
P 5.097927148772857 0.06937922983306148 10.047613371933993 -0.44930233431723915 -0.33711224787452904 0.26094305961111836
P 3.7680451099953807 1.114159848525842 13.626075403198676 1.4485507793177246 0.20138988263783383 -2.423082695408137
P 6.809021430610156 2.2451373430675483 11.282894311867198 0.530150673223874 1.6174853696403304 1.3499006363429784
P 0.5447868506270358 4.282344917204817 13.346430518043965 -1.0487954026906776 0.7457631272189931 -0.6954322401749249
P 0.16016323823314163 0.6180392910578429 0.7956862571293591 0.5919245119975612 0.8099972546077145 -1.8755819609415891
Ni 3.7708879177737735 2.3245151602584 2.0538688197251957 1.7559400462065242 -0.4636105234097951 0.8299862961351318
Ni 3.7394606317835146 4.904607019816972 6.281473587151899 -3.3033042335497367 0.5053613820943361 -0.13874598255436751
Ni 4.181761041990678 4.091674395498695 9.400625281667443 0.28236034894462986 -0.43232174059884254 -0.31156319576083114
Ni 6.960867846087093 1.488941273989883 5.088337962535255 -0.636902105149516 1.7459240567314191 -0.12525283316393912
Ni 5.8169643161776134 2.067549257157138 9.44355259912369 -0.7704768279155891 -0.40371153306131763 -0.27103361107790097
Ni 1.2977371508237399 5.030141363299723 1.9330724892064324 -2.7673287261139694 -0.994802750524306 -0.8069738944003585
Ni 3.644111570892695 1.5056301196533282 11.263086657670176 1.2745045788001663 1.1164766080877353 -0.05995298351486449
Ni 5.713372032731972 0.9676494476491241 2.9809590363975476 0.11116550183293758 0.0601031359394836 1.2549464541625808
Ni 3.3329483194985126 6.723810797459754 8.565676997110675 1.6221485794439547 0.055448153665975476 -1.0073456201863233
Ni 3.845730122554439 1.8178237738668628 8.087098127639639 0.012406086973836699 0.4701879195169966 0.5447087735437071
Ni 3.461794672043469 7.852607886035508 4.991766218298971 -1.1350286600583097 -0.7739017944367381 -0.23873644160709206
Ni 8.774836809406557 8.592492310481813 8.211543188141931 0.1266885371692012 0.3190667032267279 -0.9259766328895278
Ni 3.80178160230401 6.176059698722044 11.067060801310971 0.5707867015776815 -1.2755013954957968 0.26502571432092425
Ni 5.457224931871088 3.6221879109059305 7.000337794083407 1.009836504928977 -2.145759908887414 0.3606895209738369
Ni 8.788922047946102 0.5776134604460762 2.780893448984971 -0.4215791573703578 0.9578673109505375 0.5314017720221558
Ni 2.8295781421943533 9.126774572366553 9.573531474767417 0.7983735543258573 0.4259849997475373 -1.1511705599254949
Ni 2.003185881048283 2.588703083120305 9.96534122682378 0.3423956077606555 -1.1570601859370524 -1.410471970168132
Ni 8.478430398389532 1.1422659254287224 12.23257887036141 0.07100307068143902 -0.0953879272837067 0.04398823265549198
Ni 1.4346887255459266 4.105824034214451 5.605118096531277 -0.2171474025824067 0.7919776781018425 -0.5374073547862873
Ni 4.609783013129669 6.170953684751144 3.8742520405951297 0.21783594400899903 -0.8893556392323845 -0.4456855635002583
Ni 2.27084221340033 0.5393339957071218 1.3540707449617821 -1.5855512399358953 -1.0532601233302505 0.9492448593888491
Ni 4.168476205641166 6.911123309977805 0.15955511656922006 1.6005641684049596 0.5426187237838977 0.2773983769536642
Ni 5.757964554744496 4.033806237161833 1.2895620084551966 -0.083699692312501 -0.2689453610903046 0.5275739136356333
Ni 3.5616333452186115 5.115002395493559 1.8572771618178656 2.386387139759316 1.0125171370849337 -1.1736936807286755
P 5.5884356908854524 5.285506462020919 12.890917951686154 0.366062355249976 0.08523489801010482 0.5065692863595083
P 4.972034004308366 1.2030412917201885 5.97737595509042 -1.3826624041550317 0.6414143911975728 0.36476471948447503
P 7.131693913495502 7.790857317075726 6.678695714017414 0.7956106468687394 0.2963312093024251 -0.37711321374749895
P 9.059292387724122 5.200985830758476 9.657042863268407 -1.6913755320615773 -0.25009968913871117 0.7103551800333444
P 7.66283896679632 2.956041688219557 7.1926882403860795 -1.3113505439839224 -0.2865023961374614 0.8864343518205314
P 2.015412714502924 6.677258670085424 6.3747462023612185 2.975131968477315 -1.750784470147514 0.06584209530578984
P 2.2752490254580975 6.8721152032451664 1.2764584126015888 0.03405143315775426 1.755745413697215 1.3835355507886045
P 1.23872818936545 0.9652022409531614 8.142951480463662 1.3012584498552429 -0.8522430506508032 0.2870569830893508
