# total energy = -381173.37305561255 ev
CRYSTAL
PRIMVEC
9.17242180598960 0.00000000000000 0.00000000000000

0.00000000000000 9.17242180598960 0.00000000000000

0.00000000000000 0.00000000000000 13.42476647567428

PRIMCOORD
 96 1
Ni 2.5863660921769225 8.3694128717433 11.248558078439542 -1.47200335391371 0.8261792636842158 0.21769144801133475
Ni 1.558082584844329 6.4067347656205325 11.751490215543736 -0.7641693976403227 -1.1884762383544887 -0.20654880113095395
Ni 6.549659440582233 4.584899194733094 5.089342029691619 1.4756504637479941 0.023093905704986033 0.9321254260997431
Ni 2.2560671866852746 7.526614076070026 8.977436196014654 -0.3190363642094247 -0.0927242644086145 -0.3703177880922203
Ni 5.200139380399639 7.417755775309824 3.275280086196688 0.6294353644588256 -0.6588138176209427 0.22831061828807778
Ni 5.058471327211121 8.350086579217033 12.44426121288922 -1.0795036304078118 1.3247948424142864 -0.2807261557753165
Ni 0.8289521078718244 0.4096467739097708 4.195507879668011 -0.647145380144079 -0.3549017106474662 1.1610888474804713
Ni 5.2022673822345205 5.6341416856549245 12.014387414642039 -0.11105880105174423 0.27699882752240035 -0.20395455804121648
Ni 1.173492115298111 2.739756500300689 4.465439408969636 0.027892869755526156 0.1695423991099338 -0.138729013273503
Ni 5.73067225164754 6.701316261004307 0.7857967810057412 -0.2808955914736453 0.5451659156857838 -0.44692149278988835
Ni 3.5177704814922217 6.810183734186212 13.120897003218593 -1.2618611790045429 -0.3196642276014108 -0.22918710735576012
Ni 3.2006248287213457 2.5042820903650718 0.5628023680379641 -0.29097097343177636 0.4884142127170362 -0.5979792028320734
Ni 1.006838385393147 1.3341470814099192 11.136944382200035 1.0529829584094639 -0.8483295745290099 -0.4384620491686255
Ni 5.265447022918399 3.849674560781732 9.746917073296748 -0.21314188096743936 -0.02264473398270939 -0.04774769969792422
Ni 1.6235094688452154 5.791072648555691 7.352946195289486 -0.14582525799865206 -0.4834368141071029 -0.5830092117858023
Ni 8.430776372930168 1.2277378172441706 7.980070170513238 0.3629101827742395 1.5254180220894245 0.3033359227550324
Ni 1.2939810467765416 8.637687861685531 2.201688484624535 -0.05745001458735267 0.7202387576956435 -1.2185879701382045
Ni 1.7032086410145277 3.3863755406100258 11.807860250355995 1.1830607237658721 1.5051692991427175 -0.6328366768308907
Ni 6.510557406866296 1.7663882816984064 9.51653519189012 0.7060185003312034 -0.46700000870731834 0.5845716711769159
Ni 3.032485166500646 8.507531197733115 3.783944986864677 -0.14534214771464646 -0.0183893011404651 -0.35358710560110074
Ni 0.08292694736627161 4.857411843501683 5.37678004305382 -0.621056139256195 1.2451433520292297 0.2859663211283333
Ni -0.007796558446762033 8.502412986423357 12.12442987504398 1.6050594851721518 -0.8288287854919208 0.4571994776771287
Ni 7.050207665286057 7.427707852856574 12.338649032169384 1.55532123740676 -1.5377246073709194 -1.147755620706675
Ni 2.2263210231054518 0.7527026835046619 8.537909341168211 0.16983190532589462 0.18015128497403168 -0.3448942058127932
P 3.3004666389484103 6.496202566902551 4.442389113232326 0.4482378976084668 -0.34005461833230466 0.6675000325410311
Ni 8.490360424306834 3.89793984377804 3.2986532511779103 -0.04495162501002581 0.14561828419416856 -0.17885339209821455
P 3.2426253476951383 5.213200908903391 10.863428270497241 0.04865375645196137 -0.7332930197764403 0.5473089301707155
Ni 8.054789634940494 6.657591326750525 7.300065349692696 1.569701417387832 -1.7651507661715147 0.1044037576290718
P 7.866433955288426 1.7753313928579275 3.989827329905067 0.13554830155267622 -1.1026870105028106 -0.8227033893204735
P 8.532214184533393 2.722411450862069 10.700035336507364 -0.7111787043759042 0.8481619386028941 -0.24043645501733432
P 6.065107919326823 0.575585054921973 6.857813368358566 0.721335333193932 0.8505543500944707 0.11449250932364152
Ni 0.8306792748783247 1.6341953401281304 0.07058545396613242 1.3269247442730956 -0.6763703384474674 0.5428640070254844
Ni 0.8790885648953554 7.210027941022977 5.766957434658771 -0.17207519283411654 1.226456574253004 -0.7875173283376437
Ni 8.977278430361379 7.054867255510711 9.747266542563596 -0.10701702688220278 1.0271585411471922 0.05071989495237072
Ni 6.651473321475243 2.8869738686189605 7.573219150738259 -1.5251544840153928 -1.2117002418794358 -0.5219429406021011
Ni 8.048451491544363 8.92506900603318 5.936257408224783 0.07561074465677946 0.5306399541554668 -0.023784246903791297
Ni 3.3739744264688234 2.1672414549223995 6.009019477860818 -1.188234811767644 -0.7932948542513693 -0.25214165926940446
Ni 0.9451905391335145 1.4683487833329492 6.451607169829243 1.4090506643405734 -1.1176086648096495 -0.032531654079118164
Ni 8.800700140174772 6.9557133769113015 2.661392832731199 -0.9272819819645126 -0.07866624365365162 -0.7981840640228706
Ni 8.163978142881971 2.7630911411107624 5.903621931808807 -0.03718020859472306 -0.6381706874492945 -1.1409180289595513
Ni 2.47471937521929 4.045294798421843 2.7078153762075603 0.10044194476784636 -1.2188777334644814 -0.027552455696971904
Ni 5.067194300249794 0.7672217098168732 3.025848002157026 0.7902054166927681 -0.019374290761553732 -0.03924403310228726
Ni 1.311133475359418 6.835389549023508 0.7292066080726318 -0.5658825794078448 0.29434554633096405 -0.10900268985366389
Ni 5.763005038147348 1.619904707116301 11.682070576375935 0.005389289336371364 -1.1178565191543974 -0.5840106564671231
Ni 8.72127614065652 5.118779999902252 11.034862666593327 -0.30775127821390874 -1.30330479086131 1.1818589901482872
Ni 4.293794047174404 3.383302779339832 12.028617509670635 -0.7469121532217717 0.9004622906685071 0.14664749678963132
Ni 6.171095252094277 2.939678603719072 2.924639501096353 -0.33767249125337334 -0.48214997697487927 0.7667908944235697
Ni 3.5361520145831755 0.9888971285438922 12.190707959778818 -0.558882751051244 1.3250671222390662 0.6048322211981648
Ni 4.493294219194492 2.0132089772794886 8.203203087048715 -0.04610605032944318 0.1930872763094094 -1.1666753404293133
Ni 1.3502446814970575 5.3120979596951425 9.543263628729962 1.2741268837457733 -1.2115822282443327 0.6299128183158765
Ni 7.879128586924096 1.1638794173543385 1.615201089267478 -2.002267927007629 0.845362521480886 0.792588572212964
Ni 3.438025447214399 6.18739464545886 2.057265035956715 -0.1890447308089196 0.5944588483836407 -0.06675792225183988
Ni 0.6340555743040075 1.9194943447494086 2.3106972131006507 0.1038064903647051 1.2796053903618414 0.7844286621099908
Ni 7.996783240096585 1.7123076833429842 12.562601045962856 -1.2051069049326342 -0.19454766290501976 -0.4420893615085677
Ni 0.05329543905772485 3.8445104873634652 13.191644809048851 0.05046021353308085 0.32051783385095767 0.12259482671580177
Ni 3.955597686597271 8.621305916525628 1.2732596289093885 -1.131480023475103 0.009107104507590768 1.0935027729003812
P 0.7903802401302671 3.548874163483951 6.927931028817893 0.8151335473930156 0.7344806123266382 0.695366419933996
Ni 2.768154317890307 8.885572558184053 6.102549744714685 -1.5599764767905844 0.06720452287095523 0.4512005797812165
P 6.368228939315229 8.642485038235714 10.757573937844468 -0.45179141928767996 0.9565941006650686 -1.9779537757422967
Ni 2.825197608455499 3.7105564408263914 7.942628345125376 -0.3611152956573458 -0.6711312015357151 -0.0686142587342883
P 0.3912147924994551 5.002473692719967 1.6928493079442064 0.49537058943021134 -0.49310801864827986 -0.6882922866960339
P 6.6065926620869995 4.94063322560459 7.52384308747383 -0.2801916234280852 1.8557556702442812 -0.10184833819706976
P 0.5035751238655087 8.54764219783628 8.16985674795083 -0.540351782126592 -0.07272802379234572 -0.7652068377659015
Ni 3.937271188036529 5.635966997573637 8.792000098190355 -2.4078761628710272 -2.5511791686684577 -0.5329840289076111
Ni 6.631257304043874 3.844987453291973 11.922817294305904 1.86114315980844 -0.4428007857532955 0.036141225807247435
Ni 6.239255517762381 7.137630016528515 5.9838613596163714 0.15270013074161443 -0.613788401950188 -1.4414766460797626
Ni 8.319358966515088 0.3270518682091142 10.23882762848373 -0.4577080418824311 -0.061166544206991434 -0.024542979446686763
Ni 4.680237345904441 4.835746583441386 3.723533583050484 -1.0222305077179556 0.1921421387873207 0.4755388994162649
Ni 2.351909821050235 4.65161021777227 0.36385712753085225 -0.08546398330177539 0.6042341826028498 -0.25531362923948286
Ni 2.880232138667937 1.6354244446362085 2.5262188541077495 -0.3862367733153219 -1.8724531855046205 1.164123520541737
Ni 2.514912927117774 4.362908244699524 5.46500773292172 0.7452756460596133 1.3926364846486081 -0.40498062958172837
Ni 5.643139831344659 6.817218981631701 8.317327275108077 2.0009222116130116 -0.2278629892276979 -0.7144566037962277
Ni 0.9141052019851891 2.796065997129715 9.083263928644492 1.398984281243507 -1.145662742733388 0.5818663564306107
Ni 4.196749825566472 7.218099672120802 10.256185519312734 2.2776878400786837 0.5305309393814281 1.4433149848400821
Ni 8.374512738209653 4.012200700920763 8.632473339947902 -1.3293061000210786 2.2170931092147623 0.05358564653593997
Ni 5.552030166577967 2.40250489915887 5.323054417418269 1.8026515913304502 -1.4404407486160806 -0.2697552585861096
Ni 6.5223256239100555 5.271656752410703 2.321638994949054 0.5751943437270738 -0.6872185940158809 -0.36754305356056055
Ni 1.391814096650852 5.857921257920399 3.567148379240991 0.23338931836256577 0.5694530703679225 0.9374437529888631
Ni 4.734446358163692 4.214966255066789 6.555084928019009 -0.16694635624798346 0.7812032131941579 1.0534465283094439
Ni 7.352970960828082 8.68126603719208 3.5563148319686726 -0.018575191899026074 0.4735802330279973 0.23758998670747467
Ni 4.893441115947425 8.900110846581837 5.251365521121377 0.5913997498423428 0.845698821774382 -0.10084303686100697
Ni 8.111154166299734 8.36029548457144 0.7629400233663456 0.3786491907760511 -1.6111573705397735 0.38244079660799946
Ni 6.740033053008758 5.843318762570698 10.002873500893093 0.27045177043250196 -0.14416381113582916 0.5004773145291573
Ni 3.020918742734332 2.4527055631343155 10.14373988442485 0.911646846530417 -0.14074758636542856 -0.4704625133346221
Ni 5.496958946678721 2.062033777999623 0.543912682784715 0.3526692217725217 -0.7839758908432886 0.4998882747949069
Ni 8.098808086688742 5.773956909659623 0.21029611236342724 -0.6314827339061576 0.5108344893937654 0.37491054966922527
Ni 4.477526826288628 8.625708678942622 7.791022890264832 -0.5516561513958177 1.041420450382845 -0.43004580008047233
Ni 7.3206565191716795 8.509374854495231 8.304909650607811 -1.7822486021940658 -0.1681249499371169 1.0175500715231507
P 5.9962046875008514 8.90378898768437 0.9384304643390867 1.5653115158502524 1.3603575700102444 0.7901640219318714
Ni 3.883043830933874 6.6966841880447605 6.6853993576247 -1.1206564504970378 -0.6153989409704175 -1.8240403414188717
P 7.32220665843933 6.2200576391399425 4.034746513464459 -0.16592382852074003 1.832785177491037 0.9291714856777418
Ni 4.359532793513161 0.40954129106019693 9.797018675117812 0.4568305243734842 -0.15993727192000198 2.251739238533722
P 3.9909481998370606 2.769649422627745 3.888040966277163 -0.2806505653423747 -0.137779247765724 0.5140859064515275
P 2.1783767748687164 9.137117050941702 13.616069271562832 -0.7829333085113872 -0.8335102501279903 -0.9205971137451694
P 4.641282070935737 4.6450335914118845 0.9971523080757579 -0.18875316771042977 -0.35837372835646664 -0.40418847269773617
Ni 7.41375659944772 3.3737818056130795 1.0231185166721564 0.07264600560150068 0.8714147384832477 -0.47204631288197413
