# total energy = -340868.76378324686 ev
CRYSTAL
PRIMVEC
9.27612806437915 0.00000000000000 0.00000000000000

0.00000000000000 9.27612806437915 0.00000000000000

0.00000000000000 0.00000000000000 13.57655106761522

PRIMCOORD
 96 1
Ni 3.396834685061813 2.4797038836164975 10.608975246713326 0.9055656733333437 0.7592557623887891 0.25786493490642687
Ni 5.271512378797971 5.851224014646307 11.292636103499017 0.26159586270376883 0.245780492938067 2.594028916844133
Ni 9.290413501360788 7.064810599275508 8.082854544877426 0.45056705996227564 0.623211752146617 -0.724856458973313
Ni 2.073882548202003 6.672272679534824 10.748732177974736 0.18158287521423566 0.5181148251052625 0.4006313514740971
Ni 1.1737919943773518 4.096134166487504 10.7511217086155 1.873728709782934 1.054258739798094 0.09840717372600472
Ni 3.0331084197085993 6.735758501372508 3.8810745535931117 -1.8818526244416491 0.6598085774340443 -0.12988287573678275
Ni 3.0678939006979786 4.365262475806133 4.625653599913058 -3.1635305810618033 -0.9689037712703571 1.4655858804231405
Ni 5.7277494713264065 5.0398317992804404 7.1893268517994375 0.23337620573644324 1.1862923433292925 0.1416212472196335
Ni 1.6561135595836893 2.4332861377842705 2.1218521902927705 0.3472840462012084 -0.34053849994725865 1.0541836635857844
Ni 7.981997057490407 5.524045694652601 6.8688932046663655 0.24612964874736967 -0.3117660558002566 -0.02982942465660669
Ni 2.589356995823285 1.3270336332958972 8.816843035558552 -1.1825796703643956 -0.0941586828622959 -0.6857885464375737
Ni 2.974102967822348 5.175003540341037 12.557997398032812 0.37687590092571227 -0.41266951358555376 0.06323088293518787
Ni 4.636338772060168 4.966865774357118 3.3344684919055747 2.4367355103048807 0.18981451909540858 -2.3112391936715677
Ni 3.4967942432328933 0.2963268450010189 4.960926269429786 0.816842302554006 -0.7280289431640236 -0.03347113517425203
Ni 9.172578844025299 6.570736179558892 2.879830603889825 0.45200816328417637 1.8301513394126159 0.5924713856399667
Ni 8.553295245003445 2.9452263805370316 10.230678039083282 -1.026240143097981 -0.12220479036623469 -0.03958676115368666
Ni 3.884823964637354 4.352452142673778 8.344080520528095 -1.046724636204578 -0.21965499949560882 -0.38393692153755166
Ni 1.787324393875628 7.389530745279298 13.625291091425906 0.0055949775892742346 -1.0568023321555542 -0.37587677023723653
Ni 6.207752004466785 6.637561407571556 13.5210236992891 -0.09152844432830043 -0.8189830030460927 -1.1417533803766529
Ni 2.221892450779746 0.27783302808141214 12.076396587992573 -0.08209223861606507 -0.7437198715367191 -0.3475707242036917
Ni 8.69516435067053 5.4897518484612045 0.5908281479597153 1.9555399268234706 0.003286126950439502 -0.48593412660765983
Ni 8.848981109541432 5.0136545653199 9.152686186963505 -0.08833179176787367 -0.0029197447499562617 -0.033852686883386864
Ni 0.28434950818675586 2.214768384273121 8.086302481753094 -0.6509362146450789 0.5928863616901983 -0.030152355213664203
Ni 5.069932835496584 0.8531839560329195 11.453789352213786 -1.659055222662317 -1.987216689101461 0.9044572707605133
P 1.2152284593319005 8.678745603643542 10.071493184786096 0.6378390151414887 1.4195340803704004 -0.2457216146756736
P 2.439751599184163 2.0451451028406438 4.313379235200855 -0.5865663330094414 -0.28167412151088267 0.8208799629584895
P 1.5262663161465342 7.83731728495938 2.234713915266018 0.9877962372994858 0.3193814062536693 -0.003358374949271635
P 6.771119102314245 5.105005876462141 5.067298415069654 1.6310134860337524 -0.43624627246422937 -0.3231431872889467
P 4.08613450021909 6.375761239581355 0.4851377977472379 -0.2965875482876053 0.08016545390699742 -1.769297955570669
P 5.940024390515995 3.5122204445356506 2.1434117676035744 0.15133976005897806 -0.791764790760088 0.5626625298086503
P 1.2007576992403186 5.575639520056048 4.6327266477142315 -0.9443510216316574 0.25477369757561286 -0.05215122808225857
P 1.863388645639071 3.6301385870255145 7.30897684743616 -0.5388026924719173 -0.17274522231794764 0.6412459839405086
Ni 7.962591397162465 3.1920270491246114 5.963731391519876 -0.9507448409731433 0.002514796002053733 1.4991426333326634
Ni 8.965776840511372 7.205891234040167 5.397263283993817 1.3858456869790199 -0.12413903127447007 1.08382719748383
Ni 7.424817137194924 1.0043727877666786 12.265939427258807 -0.22688314181293184 0.8260543080705773 -0.8917323669946772
Ni 8.065769771841095 9.373342088039468 4.5921194686264695 2.1303492307592986 0.9892010880668126 0.5865434501913059
Ni 7.188804605778183 7.396413632451063 3.991628377854318 -1.904273415339011 -1.4063265805411909 -1.117537959472714
Ni 6.6749720328596 4.368574053596322 0.20602559157824302 -0.5412940914352032 -1.091494741331417 -0.8875841491542585
Ni 6.4247855774557205 7.764360536164323 7.249592929516744 -0.3580770230516543 -1.5286416712330446 1.0055306784647715
Ni 1.9039438784085552 5.523090253441425 8.663427933041472 -0.4169133764635723 0.01072895638172991 -0.5180919422871271
Ni 8.150655621583445 2.7871333265365 1.3514882902378442 1.8403678749343015 0.3396023612862345 -0.02892671033667921
Ni 6.274809135686045 1.5729437935701494 1.1119387711141033 -2.3960341759307764 1.429946791063292 0.1826365132897306
Ni 5.683919765279788 8.625166686791633 9.562643747970844 1.4203126104076378 -0.36439885150462403 0.5935003411251134
Ni 4.111458330379358 2.3838629263945603 3.1946030299434787 1.5253696853499923 0.5693268292027034 -1.3609167849478239
Ni 1.1815746659907087 8.960916149301124 4.375681423072072 -0.0006466324450634025 -0.14690614976765667 -0.87265915241331
Ni 3.373254767015146 0.14869077039230846 2.5287412080704326 -0.26525788493638836 -0.9172251119491429 0.006418244821517978
Ni 4.030292208070806 0.29365346483538185 7.3189152912580315 1.721204956718184 -0.9453313832670558 -1.3582929741717318
Ni 6.2535946303466545 8.921121559049274 0.15545121267099105 0.02068143960875148 -1.2553676008603991 -0.4967085915153445
Ni 5.312373723800162 7.13518858441322 2.0187925500559163 0.0501118290547266 0.3303412476992827 -0.1277231490813026
Ni 2.372536773784418 7.504536183494317 6.110696802055112 -0.581656811522966 -0.1937025412959051 -0.6223046669513154
Ni 3.865817177824757 8.736563711112023 13.630585905438902 0.6085844891517455 -0.6492737393409915 -0.04346552738280256
Ni 8.473260810343081 7.755752289135484 13.288457249522374 0.10130660676098681 1.0479621081561048 -0.6123424135322809
Ni 6.3984320970581665 2.0374366402533974 10.09392193531522 0.6349652931381193 0.46259673743330004 -0.5713713704365578
Ni 7.701524043305107 5.657659046164873 11.772798186045534 1.1377308894808214 -0.5768010260925615 0.4662322773033583
Ni 4.178487633213826 4.047462321487164 1.0527746974345404 -0.17571716046207803 -0.8702752255621657 -0.7010369879562119
Ni 9.149778120752794 3.1606551833363232 12.68071593689921 -0.3302075503348958 -0.6468723289883506 -0.7284804288791453
P 7.017632210925647 7.852780590775192 11.44478872495939 0.024597486833706023 0.1203566814139024 -0.04017451533635662
P 7.027733914604962 3.336103873318489 11.913492006261592 0.15333622166371655 0.28031606482109145 -0.9432138227034207
P 7.465270332553507 7.395931273781344 1.7247244422871413 0.5499576806474722 1.1680994744703497 -0.758699632775003
P 1.1286079736042138 3.9061126790028537 0.6803335095774542 0.07798181599211731 0.8483195472266809 1.0098275060679125
P 8.996573586347303 1.437901918305247 3.145280000739018 1.459986789068808 1.269731325781239 0.85244051137359
P 4.701512849241869 7.940375069970582 3.751459213362553 1.019049795997129 3.5499295909866024 1.9593662425480964
P 3.672641806730404 1.5240493214914779 0.8311577894704445 0.42451407162896565 0.5584220093647415 -0.16460896636405845
P 0.014372433131985149 0.7933714809877148 13.102892941668497 0.62954000835749 0.20143487694315632 -0.42057976957156595
Ni 2.773237686397276 5.579609702952969 1.913194033513251 -2.5615561410274075 0.04204370733461146 -0.2871192037858539
Ni 7.654354931083509 3.0925405734949867 3.62959593352208 -1.306223507170002 0.08832407845838983 0.45524029706822894
Ni 7.0007589336137315 5.372863356208627 2.250475912411926 0.4034454238841245 -0.3257963086410776 2.175917920528033
Ni 5.963196158919053 9.029921267455789 5.442323932261045 -2.6552201436414724 -2.7815710949655963 1.1950058119428904
Ni 5.374941208939726 2.747060452436735 7.853478155620633 1.3742086169607237 -0.32647250877249584 -0.7004147809911808
Ni 0.1827239573794908 4.396318953233451 2.8427529916064516 1.1634365217770417 -0.7784086811681563 -0.8942798160068792
Ni 8.308980578790573 0.5439948315812677 9.819607342684282 0.5702783944826952 -1.0154103994723287 0.030975108225275685
Ni 1.5854294622132707 1.1739125840447815 6.333759858415539 -1.2774073542692579 -1.4025871681034168 0.12066392824167604
Ni 4.361180979370046 6.764811335094837 9.534662307062987 -1.644844992600206 -0.5389114501356397 -2.0888832503050283
Ni 6.57266561423777 4.484330858200712 9.945883276739862 -0.7815009469402348 -1.2609029288563318 -0.4618218069404885
Ni 5.085266275516702 2.88892955810382 12.647996249674186 -0.5471330667144836 -0.1765759089179475 -0.15655138616690456
Ni 8.957020175430312 7.2128761586228345 10.31755454595105 0.2866656611882031 0.1907205758494457 1.522264049841475
Ni 5.124569230970569 6.379722146350012 5.1345429240798435 -0.7954702646361334 0.5685786381827691 1.965925383822853
Ni 1.1139887954604109 1.7215009877154588 10.637526241896582 -0.2844596546758198 -1.1600452367073053 -0.11865743933460854
Ni 2.60097998453787 8.088885883474571 8.310750464063311 -1.7187824633196207 -0.2986822260331049 1.707324084971034
Ni 5.124290947122654 3.617096350686563 5.190207114565461 2.0117344717371677 -1.3317861861304547 0.7510259182798291
Ni 8.218918649477002 0.2840007257640357 1.6484783784097272 -0.013371279100583423 -1.3857266449026522 -1.2206217127387817
Ni 6.9147599484797215 6.660427063741908 9.498400066454007 0.20300736363659874 0.26656117712884414 -0.9187533756682112
Ni 1.4982431326614902 0.4263113751364788 0.8843109320350425 0.7926937303322606 -0.9471995468240461 0.6655866175684021
Ni 6.115074206982815 0.6663070760297101 3.3697140688568403 -0.8362615876208824 0.48682064297767125 -1.558058433832265
Ni 6.92133672341878 0.8895565825682409 7.590351501288703 0.7590732140643378 -0.00517125978829432 -0.32655941205934724
Ni 2.6715434922408585 2.7499731567115795 12.875770651579815 -1.3075460826361676 -0.47540931581693613 0.7379626573379678
Ni 3.428577595980655 2.4186113028708838 6.463850136413207 0.6119089255392881 1.4928462588009903 -0.5228423124879189
Ni 0.7454630613434888 3.228658479638494 4.815969140663671 0.22666922602991285 0.32881529797305953 0.6010185038790294
P 0.013318664961213552 8.89878464218996 7.073057077302057 -0.07320264943591909 1.1717226730452335 -1.1801975432854641
P 4.115400684891488 6.827100536386486 7.2338986481071625 1.202893442221083 -0.013755401912879536 0.08268539211537372
P 3.7630005721484157 4.638463005432587 10.401118547415802 -1.1379496903598467 -0.04204396444492759 1.0157816667688184
P 6.581867533475494 1.6110315762214538 5.339888575456348 0.1009566796207358 2.9195223495328104 0.26958685132904536
P 7.471912040390412 3.4917665817138954 8.200929453934949 0.495475747549508 -0.2296463063803658 -0.5381177505897506
P 3.8110694688116062 8.039499776597916 11.353133156810092 0.654165520215654 0.7579516988653849 0.48627402644558193
P 0.8368403456448696 5.594303090122883 12.294097114603677 -1.629781156288548 1.1341357159303953 0.04645083526337161
P 4.815266010141271 1.0920229237316506 9.071363298087295 -1.766226515734197 1.5132114527209035 0.714307479812873
