# total energy = -340856.8710235742 ev
CRYSTAL
PRIMVEC
9.35749752038846 0.00000000000000 0.00000000000000
0.00000000000000 9.35749752038846 0.00000000000000
0.00000000000000 0.00000000000000 13.69564349143032
PRIMCOORD
 96 1
Ni 7.975395312256892 2.5439012594206525 11.788361349089032 0.08427381964841615 2.220340412507466 -1.1710174194480931
Ni 0.32552301640925196 8.631458835356321 11.39265242098251 2.118795207373112 -3.210858933834122 -1.5325260938891154
Ni 6.9584411743413055 7.89649289142743 11.266529259376044 -0.15421836715835377 -0.054910793105266725 -0.555607679844398
Ni 7.1193714202408644 3.7225155280584614 6.950402148044509 -0.049541558373553396 1.5031556111467983 -2.503719689634914
Ni 0.4400063865937829 3.9793039806678165 9.931738353683713 0.5000798219804227 0.6895822091520512 -0.1827648113374788
Ni 5.5729887759579535 4.027195654031809 0.1971231756059383 0.9819989138914185 1.7712725627985366 -2.124001948385032
Ni 7.731202051587345 5.218012099704914 10.988193296751982 -2.291130595847151 -1.8656469612160642 -1.9452639988187594
Ni 1.2685585367844865 5.67840098784646 6.304365183758976 0.7090284908021208 0.7103551800333444 0.23289232412148922
Ni 2.311021213502387 5.594969538117395 10.493917166343854 -0.8542770503616964 -0.41630479634529594 -2.3640280553378257
Ni 0.7282903050508377 7.934175534771861 2.6343845194363738 -0.5572997228348402 -1.0130565545281713 -1.117043793445115
Ni 3.9517929373520415 1.783819791593959 9.951049421741798 -1.3653326546273326 -0.3361110603035244 -1.279750400580138
Ni 3.177188633053891 5.953876363415544 0.7341892716175945 2.938269805343643 0.13384597414958885 0.288335078470826
Ni 1.4780635533820692 0.2837352388122255 9.581897072182954 0.6580514855336215 0.4343274581749616 -0.6157720080391201
Ni 2.3276494869622963 8.546146528584238 0.9196997925450032 0.9049043856002609 0.25075943420989716 -1.1650478321282196
Ni 9.293071354607536 0.8728262149336489 2.506261660565763 -1.10551290998738 0.6485995960921024 -1.0099573467775573
Ni 0.09484385395624892 7.020004151883648 4.641768967961912 -0.682747959839037 1.083802514893482 1.2418173729797906
Ni 4.116587829812626 3.9920395350735207 10.028005483044158 -0.24541025408284184 0.6220835520794448 0.6102806459072457
Ni 4.518501714661559 1.3745883435229387 7.160712845196339 -0.43714204480562135 -1.5303334571131708 -0.21351211982266455
Ni 2.368392032063278 7.3157197950350525 4.609666200511766 0.47592302222856103 0.7674956338000781 -0.3596117145286258
Ni 0.8238790158261124 3.0264487021784414 13.275680403472338 -1.8886953583950958 -0.6158959352114942 1.7968414124065764
Ni 7.292251190737105 8.790901239117373 2.897971194143998 0.02624273574661287 0.6108293193218642 -1.4351386196768767
Ni 5.526818882175628 7.03575282055727 4.180225364600923 0.9765144937380794 -1.1232537789105688 2.158258555575057
Ni 3.8337387460350953 7.368074994814564 6.892963019750215 -0.17033147067013246 -0.6770007729426147 0.5160144909328082
Ni 6.069076517925922 8.72237628326655 7.746981600003464 1.071262473444942 0.1749759114206793 -0.1253677614752486
P 5.28239168406292 3.0140219451977104 5.696045485559462 -0.33465401614202367 -0.13522100012024452 1.8157050820802987
P 2.7723926389052105 7.774087463667684 9.660564619819482 0.48776835160292126 -0.04561934050101176 0.4592445331316155
P 2.1885034957699228 1.0016827016260135 7.281918641747554 -0.5802563316310135 0.07012349628996309 0.325501145998162
P 4.755134117168133 5.607602160048107 8.494682162588285 0.44711921062299126 -0.7134929543313777 -1.09729103629822
P 4.486845299852964 3.3453990121846315 1.7852131230054282 1.7409926808680725 -0.8683327571238142 2.1250005648528756
P 3.9560038113289457 7.639629578836264 3.129837823058488 -2.5330899152669146 2.374291384937046 -2.4468471448175864
P 6.4172128633409224 9.599014742773956 9.860096415340209 0.09207197553659627 -0.7885820221567322 -0.2789387248575905
P 2.360279081534442 3.5604904549249072 8.778428630397784 0.455800540447073 0.3787705468452638 0.47914538582060057
Ni 8.451579656560693 8.533663626617148 9.41947991989466 -0.7153523761376196 -0.01106808488870352 -1.1159217640255297
Ni 1.1208878651633132 4.86985703929446 4.07586493545687 2.206898685180264 -0.24441755115226937 0.8042225569074666
Ni 5.92034844906166 3.7921165961478276 3.884454512212932 -0.822580490589364 0.6249786142390527 -0.9112274996048113
Ni 9.225257568583922 0.615397709479804 7.355971071505395 0.36702420494261306 -0.7261206703977172 -0.8360620700155665
Ni 2.6354456596785534 3.485649188108727 2.7555772154907725 -0.6241676883019831 -0.49472138588198666 0.5966604840206499
Ni 0.9452663478332212 2.2613796880635477 5.288860522241217 -0.9623633990486781 -1.654046970814448 -1.685610347443026
Ni 6.225459019930423 0.9867949227432248 12.008052937711634 -0.3831447646535595 -1.2427208586306662 -1.040252655326989
Ni 8.320986418290298 6.526124779379122 12.68576783905053 0.3808659959217118 2.8523630780774942 1.9092785818630857
Ni 0.7577982383814383 3.01373186276819 7.398222045239881 0.9928556541002643 0.2895270418963981 0.8229466156795311
Ni 6.936544629661403 6.162164905308687 8.572966052818028 0.4941308034858394 -0.4964751353482998 -0.35224190442711595
Ni 4.961953531918223 3.3957891374415876 8.031577728606523 -0.3987989262510487 1.5637837663518166 -2.0125536252043537
Ni 2.8251221385937795 0.25935334273617655 5.330837321292318 0.9543837232773112 -1.5131805994829681 -0.16885822855871566
Ni 7.254989634790365 1.6251166301532962 6.412958009124704 1.040456800917995 -1.1190479683593373 0.7651605579089984
Ni 0.4846388434996513 4.92725593034853 12.193833890323335 1.5793019165920736 0.28387498581694337 -0.6137200106060979
Ni 1.0023190114714124 6.712685211551439 8.830854947160015 -0.06626581310676975 0.8988862044306389 -1.1104990503480616
Ni 6.998435119624171 0.3038950319140984 0.5629826217148436 -0.769686727914126 -0.6516617799571939 0.8384066589883432
Ni 7.895875296577485 2.5153796063504203 0.5976755445356725 -0.21686998055130394 -1.8276823090468328 2.152291539358345
Ni 0.15817914156798135 4.164545005660703 2.112306327533179 -0.057736949700152175 -0.31442534779997466 -2.345758053384044
Ni 4.520934664070437 0.4617401108132453 2.525983522774038 0.8241136394044387 0.40148984281965044 0.10702062642662859
Ni 6.805932676395555 5.139577553761776 1.87357784553588 0.30418438679825677 0.621312221131059 0.7439888089273896
Ni 7.47992516513887 6.260399916441004 6.011483926668913 -0.2882579453759874 1.2334862274062757 1.2073059694664823
Ni 0.3727540504337567 0.0776560021322979 4.557855607099935 0.1756323140577556 -0.4876901900668182 1.013495698948119
Ni 4.282748916941273 5.383770814431324 2.9699144439142953 0.3725189095085972 -0.3618177210410091 -1.5678134563365
Ni 3.0575249521279955 4.1461855951214 6.391866209249276 -0.462978546252751 2.58917364563436 3.905386145696274
P 6.201457038262069 6.410475464977876 13.28922538143138 0.022284265319497103 -1.1516153607723973 0.5912375132328656
P 1.4104743473038905 2.0220429687140293 1.5116017609834533 0.19985056317517194 0.5724255227326851 -0.150843794259166
P 7.61467313239981 3.9015712470541617 8.884254443685798 0.22135629845743168 0.5565631017791318 3.024875615559345
P 1.6942498233563397 5.743313949574873 2.2903224285314705 -0.07577169571467596 0.7841525256304689 -1.3629047619121302
P 9.333205662356297 6.468501308379618 10.697708494829666 0.6281482702162859 1.2209410437514137 -0.8373368229629321
P 5.657954855314157 3.0396240589772883 11.746424787278155 -0.29626513195118004 1.3011818309810366 0.11626785605650944
P 0.10070726203164511 8.338943456427364 13.646147481461748 0.15247284522215676 0.6273075194825455 1.0968128111102209
P 3.237591280878153 5.395364754114401 4.751484693054816 -0.024833514103912067 -0.2406089760394566 1.2849391438699291
Ni 1.4581975857088068 8.210277862688619 6.601943904707718 -0.07837853720990372 -0.1241500870180636 0.7311163238400957
Ni 5.248536257288608 8.250346667953295 12.864756184062601 -0.5024364951380573 0.3529916381089469 0.6292286477646583
Ni 5.144190800140917 5.21641196759369 6.012510444169506 0.12052097490590856 0.23517752061124012 0.42287627891522656
Ni 2.317711824376802 0.2005096540331421 2.994936392834834 -0.5274476724704141 1.0885336018205642 0.5524971592398743
Ni 7.951318470606726 3.0873005098935726 3.3078408235599626 -0.10152695030190902 -3.3474205071426613 -0.8727673958564002
Ni 5.7102071226186775 1.0516049519966464 4.950208000771977 -1.3760685529875978 0.1514282060077263 -2.4543354827748307
Ni 5.443743017360169 7.840694132484584 1.6034446654188286 0.284262193953033 -1.4026486174689714 -0.8488743912888864
Ni 8.844117328687718 2.083138071370049 9.091277851886325 -1.3325230642964794 -1.5707781953917788 1.6184371920306384
Ni 8.212972822033837 5.099770758433439 4.115171104656841 -0.38049421440458986 -3.3421885693197604 -0.4809798679261781
Ni 3.1234110936199593 2.4177715475657764 5.386263651825652 1.9058381887229692 -1.7661136443054164 -2.4360060883380243
Ni 6.162230407792772 2.4304696719805747 9.608302059267462 1.5918080194788844 -0.9698311681806329 1.5082409960895058
Ni 4.5063837551058015 1.9970678072821233 13.396599860593124 1.1321281985820633 -0.5738637978411084 -0.22521603852315408
Ni 3.038809956675087 3.561454277190732 0.3191019014693591 -1.8066391152232886 0.6536032199542807 0.18047061598666336
Ni 7.4382094402743375 8.830034294609405 5.0989706923778275 0.24859019447272024 -0.9320385228128917 2.231643753335428
Ni 4.785508554788202 5.735144854059678 11.175946809884422 1.7962482589072677 0.714579245417021 1.7612717428320828
Ni 4.2830857868594245 9.102505913408297 10.655511794581994 -0.597996429223254 -0.6525770926826115 1.389603097138923
Ni 1.5771594543052188 0.8414205810641234 12.857264571382801 -0.2228953608097774 -0.4866170116072974 0.9487748617309659
Ni 3.1287355098263117 7.150737752619938 11.972348469386574 -0.1954110393465796 2.395269272740294 1.0542571971361971
Ni 2.5386236307029324 2.9851727797070517 11.767118893500207 0.9796535535876933 -0.4175114150588874 -1.8043366923423572
Ni 8.893028969303893 5.132456497991944 7.727917569885358 0.3794020097816756 0.3646395067605204 -0.33714490088467747
Ni 8.560500930096618 0.5476859201814089 12.526487320000147 -2.0630662892419247 1.7601414858823816 2.092494364695054
Ni 7.953461337586084 4.3816015229235346 13.363346120922621 -0.5586796339015024 1.7784269144551308 -0.027938121171164787
Ni 1.1730465574905686 6.597410197059251 0.35279450778322996 -2.6057233224629255 -1.029829660221452 -0.9832204450033454
Ni 5.241555563984673 7.334696800424302 9.522539656854736 -0.8891170408590171 1.2266933728541585 0.39123834029497134
P 2.674297990238791 5.0718479852177 12.41682680414383 0.6143946680756194 -0.18714957066873575 2.31776542482586
P 7.497021313485101 6.820970175241968 3.7614539475977824 0.38441848915966054 3.6123755161266495 -2.1535035573885755
P 0.735557337785202 1.8930498625548589 11.184862633718186 -1.161663746147335 -0.2444394055291403 -1.545653632410009
P 5.232862448596798 8.485959103207684 5.7256142426252845 -0.33969209278656337 0.8275576320889811 0.9592109694626255
P 6.284074385688933 1.7078462675528778 2.185235857563845 1.321825475373317 0.24833642659070135 0.2000395392575265
P 8.915084591445147 7.731651211478214 7.384649930537432 -1.5041038339926807 -1.0612338855643466 -0.20332977997302404
P 3.5290305475685684 9.59499101875158 12.979375237964165 0.9682010887763778 -2.177122739469412 -0.4361148890926876
P 9.279652702867802 4.031425243004167 5.57927701443013 -1.6542899400631899 -0.05837664016668011 2.425732731436474
