# total energy = -340889.3777845095 ev
CRYSTAL
PRIMVEC
9.09351924735455 0.00000000000000 0.00000000000000

0.00000000000000 9.09351924735455 0.00000000000000

0.00000000000000 0.00000000000000 13.30928460552060

PRIMCOORD
 96 1
Ni 6.467501864175883 2.235450747051188 11.489798901697753 0.35139601148705285 -0.47539054676385867 -0.7093719901844686
Ni 4.913419422026878 0.49792019403797494 5.755733015023566 -0.021677999194065895 -0.23285478601533446 -0.4348535058817607
Ni 3.0666529688596853 1.7825662071661856 4.946129720169967 0.21477401725422368 0.2801689977202659 -0.9803238401818407
Ni 3.757587656027173 4.773742966138002 4.85235189341218 0.48358722364203816 -0.4599009357686918 0.3805430653646543
Ni 3.8913624179139723 2.764084302401968 2.5445085488554096 1.9071926458683348 0.162060746020908 0.7150415297654201
Ni 5.499951414528989 4.785991936586069 2.4792534546198257 -0.5316357424098328 -0.11333242757726933 -0.4305389376668069
Ni 5.7324454215414145 2.943308473568233 0.2657480976074801 -1.2359506297863683 -0.19894784885524447 0.2792377441552481
Ni 5.840740142451612 8.014218555721374 12.202550760282467 -0.8972733514175644 -0.2839850290322464 1.016036977312734
Ni 2.176370152395588 6.848083832396013 0.1914649574469956 -2.0754528358317352 -2.6001347726315545 1.0880083254447133
Ni 0.9322221273078138 8.97186616289021 13.291729758135771 -0.7068327687023827 1.1198077293434974 0.4555958806354347
Ni 8.224578936846202 0.3403049526977989 6.623179276560987 -1.1281802696779086 -0.4410948588057822 1.3418947353193662
Ni 9.0184340750391 2.2437349431003266 1.2724343261091242 0.6289208867162523 1.2672738653796818 -0.551116991062896
Ni 7.303314500251025 1.4148333816655205 4.521816108459266 -0.49528445747430827 -1.0357583670010615 0.12692276466719432
Ni 1.165743701997027 7.67529399924779 2.394752836214762 -0.4438760210953452 -0.11329771768459197 0.3661711129136984
Ni 7.961457956953976 3.9030657772062236 3.3046285492842085 0.49206440787511385 0.1766162752375797 1.269581687577252
Ni 7.969287477039934 3.9311010970958984 12.36412622926194 0.10796576394871729 0.5586618932896894 0.6572613855321583
Ni 8.600668706550115 7.612685119117914 9.093662031851073 -0.5732958411527804 -0.48725335963971567 0.26069289127352524
Ni 7.2954849801650665 0.7751161230463994 0.0305951455623776 -1.829472053957404 -0.6856995862681933 1.7037402242745174
Ni 1.9519148164121831 6.764177930150789 9.025411532370057 0.12791958136282486 -0.11965219914771005 -0.006659928518678852
Ni 0.14767966219276818 5.07403825277982 1.3267562821340835 0.6434663886305951 -1.2366764522087992 -0.7554847253821312
Ni 6.442394657489087 2.6140321410333267 6.654123613263087 1.1968662621903967 -1.3856736801775298 1.0454118309304254
Ni 3.762425408275407 4.431108253804869 0.5276741890684697 0.3455806903568564 0.4746806651810276 -0.8258961852261582
Ni 6.433273857667698 5.844568514061587 4.356328607492593 -0.34196083421608203 -0.199998658717262 1.7839280467790182
Ni 5.406497317056986 3.0346801551288722 9.378427406294515 -1.0243254425737713 -0.35615692321080594 -1.0661084400478285
P 0.4357932704290691 5.669518268237313 12.39609449623312 -0.49458845984854816 -0.394192794937605 0.4056894827232949
P 3.9052664088680147 6.313339432100096 12.470360358707005 2.829437322519256 0.31463052183224527 -0.08037499881464223
P 2.708350122835372 8.660849617036611 1.2445281341929926 -0.27241043682076954 1.6038472100316057 1.1186152516972927
P 6.45286129816149 8.098242673717026 5.764730142982969 2.3249601428020865 -0.581374761506173 -0.1473319244511656
P 4.905480779709756 0.9879744939129371 12.54783350542516 0.3723294192056104 1.2558957054497273 0.3795925285259269
P 4.279919402528279 6.47300344333036 7.958925411839064 -0.5029630570654886 -0.21212732365999595 0.4704398876268027
P 5.080394622745076 1.1719363886155374 3.5865994852579486 0.27613879351495024 0.9765764573242665 1.2155779796672872
P 0.2803795701026103 5.879078419666944 3.382901016345634 0.9963425842076002 -0.45733060393835434 0.9677249204709076
Ni 0.6939482794514443 0.4759084213085081 4.9992467848925 0.6434877287868337 -1.607499462072212 -1.915779101985765
Ni 1.9558886843303755 6.601640366833227 4.604387082076594 0.17284215290712815 1.200274002320365 0.4341392534235555
Ni 6.094840351234348 5.823089621560967 8.964069379473601 -0.36606698323566633 0.8876273436873681 0.8777522506655011
Ni 8.80329050278162 2.8180543392314257 10.178341556372748 -0.4225646612120787 -1.222444110659501 0.9885416001059426
Ni 2.501599868858193 5.759180368176395 6.854015535011659 0.2896023752190238 -1.504722441413286 -0.009139757517739098
Ni 0.7376817416458693 0.6162377918805095 8.961634135014808 -0.07963863486924994 -1.4256767029330286 0.6859456408407284
Ni 1.5768708014235846 1.0977787390208906 11.29267504721302 0.2867808466098287 0.5828156077177575 -0.324177542090732
Ni 4.321576814274824 7.114523946819453 1.2901312239480134 0.971033158908534 -0.7773905243162871 0.4936127261988403
Ni 5.989237312026177 8.455136024255482 8.017140303460769 -0.46575585188757207 -0.4512440314246422 -0.10605517718956574
Ni 5.5046345769497425 3.162625971167705 4.559375071073707 -0.006855332358936581 0.05530211500641443 -0.7351807237174565
Ni 0.8928944751966026 7.594625389860408 6.8025216634776795 -0.4488583048012851 0.48872968707492603 0.11385256174679748
Ni 5.413999470449455 4.8423717560203805 6.780281643414696 0.5245549243036514 1.7119147896655098 -0.273808859830193
Ni 1.308066371991609 7.3177277282838284 11.303708214135543 -0.8207478082559995 1.1440977122391136 -0.5849928178747344
Ni 4.591836206788975 0.6974592872391198 10.412811585121155 0.5522575324252423 -0.6724108395790872 -0.18765324977803166
Ni 8.261098510208814 7.739703396191859 4.478121748397674 0.11781128928422936 -0.1293930805845578 0.8088862809317232
Ni 7.5723462676645905 6.6066872700245245 7.018225396521797 0.055572852169297846 -0.6032818459919095 -0.6889065232412652
Ni 2.4895873299109796 5.574463711374916 2.4685931219871096 0.3419724041803078 0.5870257891443631 -2.040727002314776
Ni 2.5830596144215097 5.233493113067022 11.302536968854392 -1.2411252320087722 -0.96615011978462 -0.2114048436716746
Ni 1.8110016419034587 3.966674944455096 3.821947038615292 -2.0612433771005727 -1.8966053572707915 0.5051999168158073
Ni 1.9033281429867754 1.3257714539978356 2.6712667512784165 0.5386273432363174 0.1889899663115842 -1.0299523018422456
Ni 1.1696266347225832 3.307849473807375 8.32385288664691 0.21796372783611492 1.1779151750091905 -1.0245745824701
Ni 3.9758230248342765 3.2027192976009116 7.156934301961025 -1.8406725506589139 -0.8875993186629102 -0.40326313266998937
Ni 4.50608432013324 7.077376920627653 5.746735887064161 -0.5925688304497795 0.24854057218170744 0.5545309018404515
Ni 8.492264863408755 7.228274779287808 0.424431827461129 -0.2823865741968749 0.29193385156567786 -1.9313252772504805
P 0.5024405824639099 5.508753941176153 7.829639211060776 -0.5089424145773751 1.4361673180517072 0.8383621789036529
P 8.482762135778295 1.9498687745778733 8.115230277053355 -0.8745370861623133 0.9938483570308367 -1.7968758651889376
P 1.9174321913646168 3.2187147979855815 10.449012885309541 1.1854783320684292 0.6241283504236155 -0.31627808473799723
P 3.986598845161641 6.515197372713459 3.648234449474694 1.670082427010756 -0.016314420889307388 -0.8151664575134799
P 6.994271248077625 4.115190301068189 10.304660541815323 0.1450744958755566 0.8029223500388043 0.3510309148381503
P 6.573386802481226 7.857582686405888 10.171101296335072 0.0714139329666125 0.5547872408256316 -1.1661364372067078
P 2.5478586013521194 8.663841384874333 5.773674528530646 0.12226006908420232 0.33591488513231826 -0.9299057927406048
P 7.236013364181131 4.061238451277259 1.2746313203632096 0.054727730560183166 -0.23433934098066092 0.17116116566027942
Ni 2.893676045427512 1.743364045620812 0.2006494119032302 0.11326480756412752 -0.9394957504218853 1.6031231873813876
Ni 1.5878557726940117 1.379659649153921 6.847387268820422 1.0653173116051007 0.18053797888948908 1.3005853350476182
Ni 7.074858015791636 1.0719167702352161 9.49082421374452 -0.3483559391091484 -1.067210929083388 -0.4747860804106403
Ni 2.906970770590893 1.7394265517796739 9.082322413329363 0.8483082343727713 0.4453546625234007 -0.16408137599536257
Ni 6.795796096630321 1.8969263054252021 2.2178993455205167 -0.472398039794438 0.4651719543596441 0.29095477548186016
Ni 4.190093619242451 7.249008003208814 10.175414352521797 0.5673954165079454 -0.46794823155320053 0.03944175093539013
Ni 7.386247395935045 6.111299621101462 11.17684452688908 -0.1704872795217064 0.4714266770201042 0.8875484108203165
Ni 7.659907764653782 4.228159090879875 8.18646072279705 1.3768306279646028 -0.5361084334692057 -0.3963864601548141
Ni 3.234946729871105 8.572487890352223 12.458182317709193 1.696987478931716 0.5989467089516654 -1.8338285311538869
Ni 0.2128047191028825 5.1565346595391865 10.201886496450058 0.6998378254417883 0.08213954691423273 -0.832066318592612
Ni 0.015482625898203034 2.7179892532547867 5.639902494699625 -1.134762807991433 0.5619307938489484 0.08870588727784078
Ni 3.8002544484119776 2.8613576779646825 11.705009765997785 -0.23954016845531 -0.27732252941040625 -1.1786661942426024
Ni 1.2245333040361919 3.3001927305874252 12.61154542944171 0.5845737280594449 0.7400588777453642 0.17465838018026048
Ni 3.2739215534348887 8.695404990238284 7.804138254989867 0.8743434820942685 -0.4415268041368783 0.21347201061334847
Ni 5.836702619898573 8.056694384201645 3.5832457953535335 -0.5912526827415172 0.6640583538493338 -0.4110867424794662
Ni 3.2327188176515236 8.653483866433096 3.4986378734211594 0.9057806175576271 -0.47552090169413586 0.9463978768583572
Ni 3.4566012619213216 4.6449969204039725 9.073378937133615 0.09914636588487441 -0.06609869140128617 0.13161708481907008
Ni 5.100182120662666 4.737077896467172 11.350863567628862 0.162364650414572 0.34109977176736733 -0.9167368594588148
Ni 8.570241791094114 0.06636177552996375 2.1217399260675927 -1.168218259436401 0.05236437253432918 0.7177198479285316
Ni 4.871407363029051 0.4018344320910864 1.6185418534490252 -0.17860425220188594 0.17520216849887246 -1.468682517070593
Ni 6.037623928027785 5.499269400584219 0.06704469882666 0.4953793311809598 1.1862928575499245 0.6870249899478362
Ni 8.147183994393714 8.708981614498839 11.505863512828828 0.880493046635432 -0.3638473498765282 -1.0318034961183715
Ni 0.24103191224901901 5.151424101713045 5.617676114915536 -0.2547559569638 0.16079242083144565 -0.005981928615047763
Ni 7.633427436558182 6.616926572715336 2.449241203642245 -0.9269971037342423 -0.8860895668866029 0.15932586358824818
P 0.10608590508106802 1.8296797304708903 3.518535402921839 -2.0632064143642146 0.9903087193086946 -0.6452185954350114
P 2.2214467273852465 3.5012049739092728 1.620072292741089 -2.6182163127236135 -0.3985467010309265 -1.1763725131124192
P 4.996570562173223 1.3816875039497034 7.701244175170322 -0.7727090596802175 -0.12801959727579887 2.6201379552263586
P 8.766925519246488 1.6663874050544496 12.200927567093913 0.24440135320235332 0.5259042392426942 0.09731291222056145
P 6.459372257954227 7.921073637904334 1.2769101562906675 0.3688262911483583 0.4549014256715714 -0.814142644234656
P 2.041476887639366 3.489110593288687 5.965168585239284 0.8096329292897604 0.25802022953736853 0.6541277249991831
P 7.2588653780905545 4.359760501662674 5.743795042934313 0.3412139287477285 0.34118590372327046 -0.735499797619772
P 2.529726123940504 8.71120952671842 9.973938339717504 0.13206651365166286 0.31478864467666434 0.0818271578801365
