# total energy = -340861.9976284302 ev
CRYSTAL
PRIMVEC
9.33246098072832 0.00000000000000 0.00000000000000
0.00000000000000 9.33246098072832 0.00000000000000
0.00000000000000 0.00000000000000 13.65899998490887
PRIMCOORD
 96 1
Ni 5.600484364879846 6.9186664505813935 7.561363159605948 0.7724082406103472 0.19816443372200063 0.5433782276577417
Ni 6.719493072930595 3.2389424980902257 0.4211972854851788 0.8769004441881671 -0.16137169037368337 -0.6781551982620321
Ni 7.856121466906031 2.710015951762015 10.019176825157171 -1.4070066373273509 -1.3970122451188005 -1.0471475826746095
Ni 3.674749750903318 8.390115539429743 8.566747291348289 2.1604211104440147 1.3799228937366816 3.204664374987636
Ni 8.265779164655045 0.04781672922263138 7.250006137588889 0.568822121652143 0.4722910819029285 -1.1299039372372348
Ni 7.073016019176959 2.0528427295984892 7.583202984288659 0.7166055318184305 0.6199382236016677 0.17281695609614753
Ni 7.893292658133804 7.033138414327279 11.777554286723603 -2.007088488324724 -0.672552507363274 -0.2771456375129098
Ni 8.233404858260583 3.597570300375153 11.994158834591635 0.03473097572328212 1.6899758235005733 2.080821042122184
Ni 6.002694758938236 9.000075842582145 6.437227197610802 -0.49438868513291634 1.4210435750363914 0.19160349267503132
Ni 5.704662624401722 4.396690250777299 9.123105672849716 0.3976871812441086 -0.16317377657942864 0.4372646864264147
Ni 7.7408935738381635 5.900392324030165 7.529359351903864 1.0582992284160548 -1.4061293769287202 -1.9952423876194154
Ni 0.8743115867873258 3.609291871096238 10.045948855354286 -0.12136352541186196 0.3617457301524931 -0.20052522064469336
Ni 6.659205376387432 3.1671572098843437 5.283177899124976 -0.3505789149023962 -1.6206532258453508 -0.20652540409218623
Ni 6.9439480867943075 5.398417924391837 5.312926984306189 1.7673279763284917 1.1996605371060822 -1.3352494620887068
Ni 2.0125824938574364 3.5621162819281755 0.6492135663768905 1.822755818279493 -1.4309518352890387 0.6318177486480732
Ni 8.77787928422361 6.942557550140293 2.5571969067319413 -0.09009942519125774 0.256527704152242 -1.0834993818307663
Ni 7.610015144067065 5.671289744705383 13.625152872943536 -1.7519093277805764 -1.4403764710370484 1.2385849820854216
Ni 3.8248810472330157 1.7612126631468998 3.1908383290760263 -0.4000788214047368 -1.2519544614137923 -2.186275095392641
Ni 4.550993157069039 0.6652793975841744 12.457349393781964 -0.0332955288283362 0.4018695947565724 0.06983167608115716
Ni 2.092347036017561 8.284920041684462 3.768708965887305 -1.3636629802343934 -0.09227149314191206 -1.306635912117072
Ni 5.5588615898670755 7.157913414757941 5.105406653746999 0.2437493214406512 1.1776786335183524 -1.1322927491843853
Ni 6.144818803931395 6.140189903391859 2.53164089617253 0.6014859304337512 -0.5317331872196456 0.5444460068006236
Ni 4.713499296373386 6.519843739780771 10.161544447376302 1.503844923904339 0.05636475194297389 -0.803585694654416
Ni 0.9263204573856828 8.552826992870925 5.741710627147395 0.028213743430054637 0.270077932032851 0.7766862991604108
P 5.934147834617876 4.68763904759303 6.9961809364510295 -0.9442080682958901 -0.31856893765470295 0.05976272188092933
P 5.213523211711787 7.062964958932843 12.35149222456843 0.5960876422363154 0.8853683724498623 -0.9728249607016342
P 6.929650756902028 1.880845477695939 12.005769349029613 -0.4630441093833638 0.9965068776996064 1.1608181103175879
P 4.320070747895046 5.005213354971862 1.8969075759189167 -0.7056932557813008 0.45169680269134466 0.7100643882658029
P 7.356116216489159 4.165151899192803 3.344829531178209 0.8573538895148073 2.064978932883605 0.8502964684473937
P 8.435508628591654 4.009803757295361 8.491827229571378 0.3700344525238466 0.6463861333805513 -1.0389632470916041
P 9.283045385443634 6.117017403311879 10.503988829448305 1.2529816171267258 -0.9777805049346967 0.8383850617217884
P 0.17590941945532004 4.0849487313767145 0.09517243488346211 -3.929322601907214 0.6607007502310104 1.0265489325876516
Ni 4.771640526940553 4.957113852188045 4.329028976983556 0.5790358289603512 -1.1254070778081455 0.30133406183365524
Ni 4.410296978572954 3.3106437941492217 0.40509972391129334 -1.113330863369902 -2.4493434288768783 0.3331159822309424
Ni 3.100551437403144 1.000981076753322 10.394115902367506 0.7042367258404323 -0.5927261819632501 -0.9805236148974726
Ni 1.666562846066289 0.09244082361748944 8.121573047665171 -0.7440402309906153 1.537368252472765 -0.10976167950687549
Ni 6.228027024113877 0.9550467048670306 3.1237724662791035 -1.577563079524096 -0.9117252651768363 0.291430172456382
Ni 0.08616381050681904 6.059585439762867 4.642899230684683 0.4184249280120923 -0.5310855263333176 0.3832954312988109
Ni 0.36853794237148757 1.8821053598992403 11.734842413539535 0.6192543101607658 -1.2203576604441175 -0.2978661578897128
Ni 1.0099309066271445 9.142041235742298 0.6306410362080752 -1.5297639577629458 -2.334411260912657 0.5299107892989261
Ni 6.561223870813646 0.7758765236203513 0.88373550566802 3.0858102462611887 0.7341345418411291 -1.8547562824454895
Ni 3.3493828387855475 4.141466113770737 10.18318082441433 -0.1476574261113844 0.4940408148751943 -0.21290045438059463
Ni 3.0649014372800982 6.897799068310416 11.65747818028822 -1.3338916625092319 -0.23211996473183893 0.6004739442294691
Ni 7.805054241598882 8.528973223155084 9.398634444743113 -1.3721175387596498 1.1018835407649088 0.7997400956560807
Ni 4.444463117434335 8.191492776964092 2.4567618972229854 -0.5006799174582668 0.05173522359076252 1.7981009958452903
Ni 0.17323380295393853 7.580627225117464 8.136720564733158 0.44265706108657954 -1.2921803988133747 -0.16809846757455565
Ni 3.3514639775361865 8.268280264140119 0.2409818686327976 -0.07760643493056957 -1.2616099822256852 -0.5937443388151193
Ni 1.458560960531615 1.6455648093445994 4.192630396669844 1.21983084140637 -1.5434954484164256 0.07565908139621164
Ni 8.63721110310982 1.538633473896991 0.33869646582869894 1.4015006199074573 0.8485522320627774 -0.9172251119491429
Ni 7.836831270504372 2.318939183396504 2.456051696958754 1.32196740026782 0.6002381740695791 -0.632059175234918
Ni 5.525992663052058 3.3969970536095744 2.722347865417144 0.017786891669775817 -0.844248719591417 -0.6310461605893712
Ni 2.895050651353543 3.9600710738776357 7.080347600354097 -0.8315688101309033 0.02726526347385627 1.2273616025657765
Ni 7.729330654950086 0.39555728277888114 4.806533664495542 0.17100792791186678 -0.5049788019439367 0.5431802527143225
Ni 3.687217918485619 0.9516870189915603 6.785627556143151 -0.341710665878489 -0.6185827380150379 1.3296501136240584
Ni 1.1765619935897071 4.717484257120125 12.120531552305298 1.931833841455783 0.27908322085525483 -1.9343324395079204
Ni 4.844788354418154 2.832420507158317 7.44119092882468 0.47789994344927367 0.1392558323112505 -0.0169602820034224
P 5.549911759993253 8.562598079292083 9.831979794406347 0.2998582486190772 -0.10465058353255526 -0.5043979897398023
P 1.8247200586540542 6.504482509361258 9.342714339838063 0.9704618597860964 -1.1888696171381652 -0.8778360686285592
P 1.840379927818052 7.324180535750662 1.9263421571723427 -0.43407060496914923 0.046231263053397795 -0.6171963991904725
P 5.200532426326635 1.6385374663884071 4.868395747169791 -0.25141969350171534 -0.4319545870674109 1.5227106504605905
P 2.3128450865168313 9.090843355984436 12.068832519404346 -0.24764479984031543 0.4107807812032732 1.512926060270001
P 2.99953688208067 8.041921428280306 6.745100412024215 -1.0619615077589903 -0.4263372408806335 -3.91611870162243
P 8.176924805709621 8.24811281642653 0.514559222980193 0.15672287874776233 -0.2696662984167291 -0.2765170027899754
P 1.8115799538966593 4.443137908005677 5.099669056868557 0.1571432541146326 0.3075592168077606 -0.16981416471408173
Ni 5.952654104315258 7.803449058347268 0.7044682668293827 0.7683955199065282 -0.6746091327819866 -1.4819072432909832
Ni 3.8345961388895837 9.247460712545944 4.722721634101552 0.9022810890448008 -1.2115806855824358 0.7920640671680617
Ni 1.622522963715332 5.847953226990532 6.795434105915219 -1.2792827169151 1.2863046567588878 -0.627962379457725
Ni 2.608460113715159 6.017850675220913 0.3426711608685956 0.05788324547002934 -1.1270883221653107 0.9900130424451467
Ni 3.548621543661703 6.174132063194874 8.039564048691016 -0.6886612399996784 -1.885523131314701 0.26276700019373456
Ni 5.566542205076831 1.4249734342376768 9.4255427288674 -0.2730706961125878 -0.39296817850188454 0.246576249366485
Ni 0.6515830781651737 4.713125997942777 2.191695747093448 -0.475735074587471 1.7418100345630454 -0.6711353153007732
Ni 6.323339445908818 4.979530422946045 11.413323274995253 -0.04210952757554038 0.7943757460203739 0.2508028858533229
Ni 6.668967130347827 9.16344056827689 11.66108424312789 -0.16313521003200937 -0.9837313232014929 0.037721168699857616
Ni 0.041044162445329116 3.447205692526325 3.93441987221842 0.004764511268178891 0.3629083830020266 0.42963108114055687
Ni 7.453883075465346 6.3818726398281225 9.5356620329124 -1.782738140235975 -1.1815342598190168 1.7827779923349747
Ni 5.215417701247121 5.320407884855569 13.601371896421664 1.5324607878688188 1.8243380751649483 0.836962727452965
Ni 0.23701277306936003 6.469271134894177 13.286218429365325 2.515834984841209 1.6531159743597468 1.1344499047367043
Ni 2.6628403625939523 2.4842917232342354 12.000004688014954 0.04165109988188311 1.312426036436288 0.9590844711870902
Ni 9.19092466523039 8.745532975211443 12.211377458378017 0.6951998124491446 1.8242866531017226 -0.2645775710399121
Ni 2.864878805699666 3.8818090579007074 3.0829998784420414 -0.8995410644058187 0.6803930864536153 0.1540227062077799
Ni 8.634299375351079 0.03514884697995522 2.458032978379205 0.03969346193488003 0.1401469766669522 -0.12205000995592528
Ni 2.662663045839414 1.1291344279809845 0.5170911195857906 1.5166207355127688 3.1603334142807444 0.0560680466381615
Ni 3.399507485555412 6.558424132584088 4.744917958785492 -2.2725389488878927 1.1367093901948424 1.2381260401711323
Ni 8.869356064644055 3.8458884164154705 6.180479069761284 0.463934225297801 -0.11498179025523422 1.1434680490749145
Ni 5.059761588144428 2.8787841722398078 11.441939399439574 0.10118345091956123 0.2030628994648825 0.16015118770302095
Ni 1.421109795480886 8.319058183163545 10.276539962171116 -0.5694934366875547 0.9484239061494506 0.16188822499878572
Ni 3.308217354350271 2.6755698390776788 5.2728795286705825 0.1540993250819862 0.6512506605617042 -0.48693017197234206
Ni 0.4568696835140615 2.3405065002248704 8.086769501733528 -0.02570151853116219 -1.3733843212872154 -0.7344443597720642
P 1.000542451097358 1.656017165401618 2.1215837691027652 -0.3070956469077808 -0.07634736571248786 -1.2569850818591641
P 9.030294350539847 0.7882933626684436 9.91542319260011 1.5232814353623958 0.3877910051763192 -0.5153606593988931
P 6.809681973765442 8.209756402681577 3.2909177718298284 -0.21299609941819445 -1.5032057476584435 0.20802538567648043
P 3.5454765043838323 4.6732203957108025 12.524360195060373 -1.4525303327907628 -1.73098646158498 -2.46093499036922
P 2.7933548263952095 2.2173926778104134 8.633239207808153 -0.24530972394923561 0.5072475433734555 -0.9641919676169846
P 4.678969191542163 0.5226980620135199 1.0420037745388913 -3.556485646937565 0.01965685499897905 1.2830866640422225
P 9.27445018907889 1.5523801886041235 5.708546794572197 -0.20541597307809142 0.6601129960483405 1.6633312243298515
P 8.361754191164314 7.376143677291269 6.075864984321673 0.15618268997357618 0.5204987519564068 0.11390784046476511
