# total energy = -340891.09609033767 ev
CRYSTAL
PRIMVEC
9.10879139462736 0.00000000000000 0.00000000000000

0.00000000000000 9.10879139462736 0.00000000000000

0.00000000000000 0.00000000000000 13.33163693678455

PRIMCOORD
 96 1
Ni 6.634497461838546 1.9694208796197135 11.68776613628681 0.19130473048768987 0.4635688715385823 -1.0989403989761848
Ni 4.774336534076224 0.30948393733117757 5.98011916092812 -0.45934043527953144 -0.04069439239556862 0.5145340497325396
Ni 2.518480602675974 1.3515897821138239 4.716452897888798 0.896978960105597 0.5677191183959513 1.600240980737586
Ni 3.3753081667791327 4.614668531065951 5.12957393019687 -0.2806467086876328 0.6281071325657054 -0.7988790332073662
Ni 5.2138539327442395 4.738438787492649 2.616506682201084 -0.14027090383932617 -1.5534510169672409 -0.3529186187791664
Ni 7.523706779076597 6.116535152341363 2.60941457728102 -1.0041438254195738 1.1453858349229178 -1.8618152461747999
Ni 4.892896561869121 4.806536111384759 11.527720118436845 0.17543305356275593 -0.028166949352519233 0.6982607107626555
Ni 5.728127181757701 8.01217482228664 12.58105254851872 -0.4146929717734858 -0.30041514956381166 0.0903753045604637
Ni 1.901915627163263 6.351960972742042 0.5399645949254054 0.8011457177543557 1.442826732349754 -1.2021722477843424
Ni 2.9034454501414957 1.4760978506372657 0.49562664230672765 0.8479413379516558 -0.04552600945625707 0.38947096398190345
Ni 0.3149820037706208 0.03828424990884671 4.63638297868853 0.5683798919084018 -0.8316482572185872 0.4195554420721097
Ni 8.617326482278107 2.2135455957289216 1.2713886963185792 0.45652713420045243 1.0794951457673794 -0.04186090189984403
Ni 6.936508546772575 0.6928492810412883 4.90342905726993 -0.507566874386087 -0.7099800560821127 0.283974230398969
Ni 0.6294894395135826 7.301279203886464 2.5671935077646064 1.4489768111115497 0.5945557789728212 -0.2889739976064056
Ni 7.564750992754746 4.275411598433309 3.866654588045611 1.2321384551291297 -2.29074750147612 0.5825476987683516
Ni 7.834544282797603 3.8602875429144468 12.781680053447886 -0.09169196648935822 0.1982027431591038 -0.060741026633798614
Ni 7.9417911917737545 8.797216002013966 7.080552240035369 0.27781643832768926 0.6268454922444625 -0.17956558767389075
Ni 6.609266109888153 0.9366479024213178 0.44660586007155273 1.6150788170813668 -1.4818743331705189 0.5808710823968771
Ni 1.7330932888785697 6.476769631378971 9.43378661589803 0.6983067335092425 0.681120194427627 -1.0731069828528488
Ni 0.14763802231681183 4.841459217297325 1.4722257034480553 0.32469819048089243 -1.2660729030930453 -0.6575676039186675
Ni 6.336958793441573 2.1477892312054943 6.952595583118997 0.3949587265693521 -0.11878522316172445 -0.08560693663754289
Ni 3.682602350677503 4.430525205784665 0.52205762207368 -0.7007821916329287 0.6162093526868548 -0.4507542362724173
Ni 5.921379298356819 5.719911051989017 4.679391047774804 0.0626708966666598 0.42376690905029596 2.17473598440479
Ni 5.174959393817098 3.1547934377657443 9.819670540407522 1.2881072571852656 -1.3141576744154142 0.142641975174664
P 0.422978566272229 5.460438022509263 12.474399532736491 -0.22706337614453798 0.3227809188535215 0.28214591894097857
P 3.9859797543092066 6.40078409420562 12.740725105924652 -0.051423605887614666 -0.5943086959590216 0.3090694828047
P 2.5790267385656014 8.357270490154011 1.6460706292654008 -0.22777017240357547 0.18493147997149442 -0.9037355621031404
P 6.486980586446261 7.680705906230744 5.791702901639639 -0.5256180754608432 0.424588633620643 -0.13553698869876657
P 4.780284574806768 1.0838824052827496 12.536138009409624 -0.37424771927424577 0.0001586370650513397 0.391625548431061
P 3.9211798128741515 6.215338211765884 8.289718782861842 -0.6467090639376089 1.1962913635235333 0.5029972527375337
P 4.697576749640857 0.9793225897453594 3.91699523414274 0.12237268340266666 1.0460114121876374 0.6127108526152932
P 0.4464992872131341 5.449789845458717 3.56233351363338 0.3056056926258156 -0.5133608553600449 1.0131845954656034
Ni 1.6351282382552896 1.0335016805038224 2.601708539826134 -0.9198484085046029 -0.43327639120262795 -1.1729598878864445
Ni 1.8377715187030919 6.571637692954189 5.0327729831040084 0.0699795145129311 -0.3623949337007178 -1.4991593455032117
Ni 5.797445083686401 5.654664779779388 9.48026058008074 -0.063087158268472 0.5468702999714001 -0.658770365977517
Ni 8.820580051744205 2.440144997342621 10.348843039379561 -0.1988815143936833 -0.554921966631283 -0.2952415757826722
Ni 2.1667172995639485 5.202222006231369 7.077446142195989 -0.0014796698693200323 0.7736490549959838 0.640078960215601
Ni 0.3553248405172975 -0.10812408558005784 9.166513728412818 0.22804168089740726 0.32370703021221664 -0.1385778324076194
Ni 1.6286336700456756 1.133825908078421 11.420959618917069 1.2053269913632403 -0.09543343580966145 -1.1473308744644306
Ni 4.61963282233417 6.75265670281346 1.5958638824006441 -0.9128282684330279 1.415356551953943 -0.4000826780594787
Ni 5.950409016286748 7.869148581014046 8.000368917859598 -1.3421654724822498 -0.12591772044144767 0.4294549605740087
Ni 5.116280560147627 3.2868526942916687 4.745089116033798 1.50425861440299 -1.7368748020449571 0.002986079211517438
Ni 0.7296342238992198 7.310907196309412 6.992830025248991 -1.0876054335793397 0.3239209459952357 0.6769807183379567
Ni 5.0677762463801725 4.708534625596207 7.305164103383519 1.4511835889548814 -0.15782151112857984 -1.1342879252375433
Ni 7.9420917818872425 6.978153940677702 9.269393882831201 0.8203487730453679 0.885363744464172 -0.57326730190769
Ni 4.678876401065347 0.3660467987775172 10.324046176775028 -1.2267941600980807 0.216382242281608 0.43212325143479124
Ni 8.294346959730431 6.977379693415686 4.638423347943725 -0.21072273000298547 0.757843969642927 1.1408966888033125
Ni 7.2645070133363765 5.963124888966441 7.074046741276174 -0.030552418865560288 0.23111543472672455 -0.3416232483710052
Ni 2.5615014240700935 5.2738990851113865 2.4810307180518407 -0.7437859488879642 -0.8312947305339103 1.7666312073717831
Ni 2.435772777510062 5.141994678037866 11.43373196610293 -0.35080440064964097 -0.10619247409837841 0.25844034779392266
Ni 1.0160856715041282 3.103829750342476 3.7143273599583795 0.04729827086533144 1.3425051152098557 -0.014067533836659644
Ni 3.5415709347035147 2.6707249407622133 2.792284493536073 0.9858853934300182 0.42834784355275907 0.088210435698661
Ni 1.04229166412553 3.2622953928987943 7.952667999486377 -1.0588257903434861 0.5498679491471433 0.8930793679408748
Ni 3.671407646147888 2.9398532890388696 6.842889300487031 0.35536168100302024 -1.775688432478045 0.9033067020958379
Ni 4.0284813745982095 7.027496263246396 6.286067065469716 0.33418710380793415 -0.3788890747009991 -1.0071641003031364
Ni 0.7011911121301585 7.526803768124659 11.469207064769359 1.133388039131093 -0.5035677805290231 0.16675995126879023
P 0.1038074293745374 5.604785038522941 8.157108444461187 0.48209521247754394 -1.559390265269811 -0.18275735513831107
P 8.52897120649514 1.6674917738075457 7.894582148131696 -0.9014825044029054 -0.1327098036626166 1.2959133834932455
P 1.8926246600190744 3.2562744818377074 10.226712365390073 -0.3682123117134432 -0.2751538038938616 1.1282712867298184
P 4.026513875673558 6.2314880987724 3.828526098468299 -0.45056654574164345 0.7430824950630364 -0.16505248165938027
P 6.966558449330101 4.223582575834847 10.754830977206637 0.047992211608562506 -2.0556064905297693 -0.8116463601753635
P 6.150920839566178 7.837522857558534 10.331752214229914 -0.38528829335912357 -0.31856328122774813 -0.6621878762994983
P 2.2110133517425643 8.50191809628118 6.010782085141337 1.4512879757432295 0.029013099402898417 -1.0642073663703735
P 7.109302318071842 4.045815404476043 1.7000365743070265 -0.47550213264105856 -0.9014969025806087 -1.2674911235968107
Ni 5.279081987371233 2.8098708369334107 0.663708435857281 0.19486853657954825 0.3818769536847294 0.11243511257398056
Ni 1.3880431649677862 1.0277084892256814 6.998656008175877 -0.8254182171484753 0.26177686836632336 -0.5762934903285236
Ni 6.717004893595465 1.045160933390647 9.353476224606974 1.0692539276553457 0.20657194105940554 -1.2245938100126523
Ni 2.518717431250238 1.5451789239917015 8.95386079718585 0.972442380551235 0.49794092126054895 1.4583253422059852
Ni 6.453897456379897 2.009791042740344 2.851316748308677 -0.08447282303309968 0.7285580761946162 -0.7957569426386166
Ni 3.9453181098664056 7.060643154851985 10.562562610069847 0.10085332127365212 0.2506416776851103 -0.2421570372528668
Ni 8.445990117589695 7.050978727263766 0.21768007315527885 0.14921911417154946 0.5870162760626665 0.2511237595278514
Ni 7.579170209410874 3.839382866840023 8.417542451424973 0.20249802810034803 -0.011345249809490138 0.4084603606002127
Ni 3.12007072526217 8.516847405251106 12.693011435243585 0.965700433841711 -0.9713789722837272 -0.7318102645833268
Ni 9.234128286365083 4.845758566799343 10.358122165095036 -0.43529779250803097 -0.09376633251988367 -0.14413450055979046
Ni 8.670275886208664 2.338117425791588 5.703154519480734 0.4951345621600054 0.8076814619903445 0.9073101668282761
Ni 3.469074064604892 2.815709572168141 11.926869175742496 0.38073718365333137 0.22849830881885164 -1.0365744351444535
Ni 1.0480119850731284 3.2636343852225154 12.675733879871922 0.6512079802492269 -0.2324693776514577 -0.028149465851022487
Ni 3.310061894569504 8.624312925218884 8.015820160572037 0.4116806673097233 -0.6605511120270237 0.2959342309743226
Ni 5.88276713196053 7.840383018032334 3.5299772651141788 -0.10673343420351297 0.4126067786684184 0.2966777940085664
Ni 2.99782163698555 8.311981579721753 3.803182708384696 1.1862697176214732 -0.4188890121327044 -0.3164344078102034
Ni 3.4120985749118544 4.253896633340591 9.010906424572035 -1.237249808213766 0.18107585367083007 0.5623177448747219
Ni 7.299357248918401 6.1943242301956465 11.42778574713065 0.2556507008639275 0.48338976291925134 0.9130812649840985
Ni 0.9721539709782259 0.03927164288769967 0.19037282766355113 0.01797458220054969 -1.7514681264780998 1.580746105237768
Ni 4.8568986185810505 0.28307755130078344 1.9382597045214114 -1.2303232562972617 -0.42293232896414257 -1.053641160818753
Ni 6.248403124249613 5.544111379554864 0.22641540402907945 -0.2870222731966734 0.2932050049686176 0.7358834062114359
Ni 7.911531787015917 8.738692017796899 11.04514090881378 0.07766119942790496 1.091614811849049 1.1091471643058575
Ni 0.024302255235975023 4.930023995280604 5.756267881655011 0.47285980992220494 -0.810819493398694 0.21399857254077984
Ni 8.416231696354338 0.02887577935665833 2.069296954661475 -1.1128526381819028 -0.39544595061841575 0.6419980316151847
P 8.443312132942252 1.6744235640004155 3.667493598518616 0.20977399293647098 -0.27462184264979156 -1.4730335949504372
P 1.863695138793641 3.0858854314463473 1.4590543912024705 -0.5515065131918309 0.8200620950428844 0.30056273088526947
P 4.751965342599629 1.5303953556828604 8.329380282017944 -0.4589462851649063 -0.5958711553501351 -0.36206557538575707
P 8.88277487886236 1.195000550568979 12.390569504480222 -3.243456922374801 1.964961991468319 -0.2453955987948225
P 6.741762588397332 7.763386405022703 1.3574941006460424 -1.0859375589586135 0.8177992671506368 -0.04782946077845311
P 1.8427449187626281 3.188887643668388 5.9070220214816525 -1.530997315949415 -0.08733137552781733 -1.0391519660636428
P 7.00639119376298 4.011147344720375 5.987464490246819 -0.8647141865346204 0.15789118802425064 0.3713737401605604
P 2.3568268831584147 8.626945365909737 10.070171410439212 -0.2035328971227656 -0.2614886477019432 0.47362085645794566
