# total energy = -381176.49594205414 ev
CRYSTAL
PRIMVEC
9.15417744057548 0.00000000000000 0.00000000000000
0.00000000000000 9.15417744057548 0.00000000000000
0.00000000000000 0.00000000000000 13.39806400272791
PRIMCOORD
 96 1
Ni 8.03509739784604 3.168672687475981 10.116890957635363 0.028316073335873812 0.11435212709103533 0.49002423751663343
Ni 6.552175606876983 0.8568245835614283 11.262465754491958 -0.4924675568508035 0.9149314308189598 -0.7659781687142873
Ni 8.069773421304877 8.189134738590983 3.2364364846391385 -0.6159962082347843 -1.0490360579465738 0.2725968417999628
Ni 5.106612013303786 5.250872692735625 11.110251010439372 0.626862461525327 3.3781259066463174 -0.08066913301629333
Ni 7.623598821678768 6.721784203140269 13.133157578754036 -0.6035065604082058 -0.1500873757091157 0.4001819226415043
Ni 1.41175721695401 4.139637961032445 9.582844495077966 -0.43749325749745305 1.022169315462717 -1.412107705999342
Ni 6.77810070164047 0.7253705981155745 4.9776351482243415 1.5747860309995911 0.8129020869593354 0.14363699209808165
Ni 2.7517548383711086 4.49016971665171 7.6261775534127585 0.3369350988667165 -0.4838307071114119 0.05451947120411901
Ni 1.3813561942753416 7.991514359913747 2.9452558372815862 1.511690388090687 0.06269223682289848 0.009371928133203214
Ni 8.855503918016156 3.9620377680216508 5.5046347251274055 -0.8411381989868932 -1.281296662021335 -0.8599501894870739
Ni 6.2202909103352395 7.491751206610758 1.6762717459547531 -0.2223222619151268 0.47637142261988924 -0.049625119226295186
Ni 7.995359114362722 7.606224193240312 5.835218613080579 -1.1022455520900176 0.7286948588827967 -0.9898927148171984
Ni 6.761870345359447 7.492813091172855 10.51793546337233 -1.2529183679889584 0.1072211724732089 1.9323557753975238
Ni 0.7002222423483843 1.0402807037650998 2.468566703178792 -1.808717337908556 -0.5655694190428002 0.5930840795233011
Ni 6.442032546091153 3.2292733409336103 3.755745637226529 0.7341648808584323 -0.921228319571265 0.2224047943266041
Ni 7.6375772503539645 6.951398431339318 8.663281757668825 1.891781710629903 -0.5790458562626802 -1.1578052916331933
Ni 4.177261629568829 0.6606752811697887 11.797504529864279 -0.735557647440901 0.24712517989141955 -0.2721175881706991
Ni 8.089610523426128 3.956536107488715 7.849938600672109 0.10411990784006586 -0.08655387393184448 0.0955391081495903
Ni 0.4299479050159887 7.753368438508881 9.785222299676944 0.38125037584432403 -1.2508213762506135 1.6027709462482913
Ni 6.808657345332549 5.073245037193051 5.849286752692917 -0.29004434785244887 0.9777640498744644 -0.028866546522705126
Ni 8.499973981613227 4.558551420779881 0.6852322770860176 0.3656116408658026 -0.4832717492841483 -1.5174105784039158
Ni 4.7652527432985 3.2290353323248646 11.671200684544596 0.24609673862690518 -2.547250780148329 1.999700166280453
Ni 3.7444246662097544 6.993727346987065 1.7629837746272676 -1.1178050970911715 -0.6727247712750801 2.1189957534196924
Ni 7.5108559745512515 5.241050260536223 11.421031666727155 0.008047295784508721 -0.5311063522689241 -0.558642867126296
P 2.720575710625386 1.3387709616643308 0.05569767611746193 -0.09866891202782362 0.14667295071092806 -0.7842610261838752
Ni 8.229825056509286 8.756538107664127 0.9560439646235437 -1.2995800337115555 1.5946177210135377 0.10262198313830069
P 5.124618279973144 4.60692209341887 7.264671770094852 -0.6822928745794895 0.13300805162932577 0.0718924152649278
Ni 2.701260396607924 8.938568922468502 4.883822224251664 1.3650282360130361 0.2349918869629953 -2.359956199261297
P 4.444893155926418 8.576301511602608 3.2786939977042597 -0.3060278677648987 0.24849789186923008 -1.0531994452956444
P 4.874526157244681 1.8583162920250158 10.021228889856275 -0.31046456338001366 0.11345918296312073 -0.6345521168601007
P 8.479734095692558 2.0510025691594014 3.9578414931659145 -0.4473992037572552 0.10461407386766498 0.22624910777335874
Ni 5.033442674468917 6.2805162425252306 -0.1126860912285078 0.011797506855560328 -2.7427826613434894 0.7866650076396775
Ni 0.3457065887858027 8.634467153909222 7.646676502549868 -0.12162217838988731 0.29176672986019425 -0.5528211182381964
Ni 0.5515812890978933 1.7632593153627774 8.758662792206048 1.165327053931535 1.468772248570922 0.37899346148934726
Ni 2.216354472997038 0.9313276860230001 6.790647416992288 -1.1173651813402756 -2.209056354953215 -0.5425878705459624
Ni 0.5937756383399249 4.28601325541122 11.867911138002242 -0.5572665556040597 -0.3584534325544665 -0.11094772939517666
Ni 4.353644317004115 1.8522928433882908 4.462399604517411 0.9736965646733101 -0.8074595757875255 -1.255102777234787
Ni 5.909808680226115 8.143427931534497 12.649902153303032 0.6189077254546245 1.293908694358391 -1.1686049533518583
Ni 3.8115064771670815 2.7498599236784003 6.475190806960372 -0.6928374828645553 0.873099068164206 -0.923831304411751
Ni 1.5855218096930908 7.441677857001507 6.006566503023162 0.16881529113592217 -0.33746963121394785 0.7344412744482706
Ni 8.549919172740843 1.8151268837148808 6.728936361833085 -0.5621454809629157 -0.7876823931605983 -0.7600774869591361
Ni 0.2433656332782113 0.05854828691605796 4.785667474004823 0.5944922727247375 1.21176040569341 0.7290584128698024
Ni 1.8420493190349543 4.6842565829067935 5.443178156096017 1.1770266017566502 0.24230770389811818 -0.6150960650180181
Ni 8.110482047577698 0.3221583832035663 9.563966750733506 -1.131430144073774 -0.7298695959171881 -0.6703680981174455
Ni 5.008497541436887 8.562222386977558 5.3254627598811615 -0.2286646591933868 -1.6316578044859706 -0.0727719896564037
Ni 3.029044021737429 1.320728078285934 2.2163608809211195 0.6627545474362457 -0.4279356957160049 0.6696841846765434
Ni 1.6281894298994364 0.0996715974187327 11.700274351520644 0.4154923277463296 0.630499801167598 -0.4486271626270854
Ni 5.184504907604535 2.397149473871384 1.8221636997742283 -1.2777282279437865 2.7256274897204413 0.12170728190452586
Ni 7.690726403522393 2.2348459110611483 1.529549508257845 0.6996938436647563 1.3234637823076885 0.7775535322567125
Ni 4.283862023755247 4.799562599666959 2.4577144260377013 0.2672713158219913 -0.17253824851346414 -0.3526643366765152
Ni 1.1563099005287627 3.1188281922982184 1.7603583565892542 0.6554479864725035 0.7270776349943479 -0.3809086762341891
Ni 5.994750291016651 7.161303715898749 7.1979359870379325 -1.2423138530002347 0.36290529767823304 -0.6928565090279486
Ni 6.019246869362967 2.8292632572269616 6.0679562465605565 1.8294170323497523 -0.4367255260934931 1.317264595475512
Ni 7.082641870708205 2.886257164844363 12.54538433444314 1.1504956453456574 0.3425151640576553 -0.15597134529371848
Ni 8.72051642014815 4.224698576127353 2.9674162695912885 0.40530098903562456 -0.17100227148491196 1.5184755293333203
Ni 1.7451431985663048 5.495893401262346 2.4668786728921472 0.6362215341427236 -0.8160079795781688 -0.5683660079513309
P 1.4966347485037286 5.309880519350107 0.19038217071817945 0.1928049691823002 0.15435694961874707 0.5471333238247996
Ni 3.851766548754189 6.329298853140896 6.213955304253967 0.9221685719973473 0.4103629769395642 2.9563924830862827
P 4.347199776213455 7.742731284533387 10.977890761444831 -0.21023576306423788 -2.1731573270637603 1.0245702115947257
Ni 3.2384458265475895 3.438702608275549 0.6657055015738622 0.3691363661896094 -0.07512737726245772 -0.3631480098166584
P 2.78295227447135 3.7823687309502185 3.574951551769909 -0.09787084160656047 -0.09489016171168174 -0.3169077479021961
P 7.596694694713213 5.904819653619709 3.854006575929579 2.0794922960084317 0.18598563226762163 1.0578243456621652
P 7.346767347175421 -0.21337837941167037 7.43567088588385 -1.0157636690466894 1.1614629429904384 -0.20268777551365091
Ni 6.474374254348827 1.8974046289229127 8.544387303422951 0.6328194504397102 0.1791927777155043 -0.22024763877428524
Ni 0.660433610890139 6.818763557026994 12.112225144044533 -0.3572650686733202 -0.2668897641128565 0.03589645678629302
Ni 3.088948957723339 6.411750527716858 4.248043558974429 -0.46393319685653645 0.6373037114633089 -2.5729322440748335
Ni 5.931668855521708 1.0467801696193169 0.28353416309272433 1.2224587659475203 -0.09868356731584295 -1.1491298753463821
Ni 0.45947287293092687 6.426122586014211 4.398771664640078 -0.9580316044425436 -0.9173539242175233 -0.9121353561310613
Ni 4.545204630335587 4.369819748221582 4.905165188532095 -0.38379551086368097 0.6502646424993511 -0.6898313490483797
Ni 2.2149081129900434 9.262745801757779 9.399639199331205 0.7399259517119257 -0.7393752214147782 -0.45643046072158805
Ni 6.2715359946337 4.967578369087097 9.136515189856173 0.8645583776830464 -0.5684997053157178 -0.41027118855670636
Ni 0.10034626028275495 6.823935667178589 1.4177559493121346 0.11938171909514278 -1.2969353969998567 -0.12586167039253163
Ni 1.975526377655149 2.0012496157542334 4.521203292979007 -1.1990133904403868 0.8268714046552339 0.094120887645825
Ni 2.2063672656069664 2.6316703410815045 10.927661790822171 0.738075014546116 -2.2577702752191504 1.049066654074193
Ni 2.8837763828070493 7.237393237279385 12.692012284114277 0.43432874372654234 -0.4019783524202948 -0.4158183436271807
Ni 0.19432029777519938 1.601230377870325 13.439195455803693 0.4289186284545646 0.5079962486140219 -1.3810261541031894
Ni 4.2824065095709924 6.251964363652974 8.823335223708686 -0.2912720496119629 0.8381212665374405 -0.596164775331154
Ni 3.0237986781677577 4.715655410906742 12.032680836166175 -1.1128356689010384 0.9366410545819096 -0.06020443740403824
Ni 4.130474629595725 8.748253577244316 0.5898292725233714 -0.42941459425437656 2.067479844928588 0.5651176762173622
Ni 6.685570277901843 4.94904116013669 2.172790658836991 -1.0273202635360372 0.871669534806531 -0.9708423830539669
Ni 4.944335913025327 8.825798612809207 9.307822801418816 0.16264490065915216 0.3712397856858574 -0.45774943664332773
Ni 2.4286581519984476 6.531871641715499 10.296264314781316 0.6212471722210785 0.003917332776535189 1.487865260646631
Ni 8.951769246076644 5.9132323425211535 6.8523053779233845 1.116497948243974 -0.6372070379844444 0.6103320679704715
Ni 1.4290403036198716 8.819766009995222 0.6125316321268336 0.7139621806583123 -0.9924270512032779 0.6502669564921961
Ni 6.358042969735603 0.7459189798098856 2.5713296662580447 -0.12939976545277715 -2.5313245958363764 1.7427428307899597
Ni 8.476859684033089 8.826988655852936 12.008095462300442 -0.6939949935077661 -1.1747018102782156 0.1966737081090871
Ni 4.868054153922242 0.7545467918769272 7.1863458832097304 0.021647660176762715 -0.6073223346098702 -0.6263621248501405
Ni 3.996265236794774 3.9008970181057134 9.586100635929158 -0.31387641727504006 0.1955928163400825 -0.11362450489639142
P 1.4469458743393766 2.8605339267452785 6.642130045134799 -0.7872177948193539 1.0541623234295459 0.6666356276582067
Ni 1.786785550919591 6.481020187039196 8.102787046173395 -0.3236728345401716 0.5677309454704932 0.3159289289286946
P -0.14701150969830715 1.5178449772138989 11.135090870432919 0.9243910335699629 1.4123360199600645 0.2105800337775341
Ni 5.700882892633446 6.531120999180224 3.843515888790237 -2.2712917067443525 0.8131417137739672 0.6594730484714965
P 5.892525593560254 4.132488548592807 0.404775748387924 -1.2737419896025288 -0.311234865887135 -0.9048015414738095
P 9.003966364810088 5.544392232382968 9.804126591135454 -0.6530342348246883 0.18927381610059016 0.12233874484093768
P 3.2682152109953555 8.138200896319344 7.70746390122359 0.4777500481349708 -0.1531133070196331 -0.3129078827141837
Ni 3.1981308298969253 2.0147428730346784 8.415993559434934 0.19994158022708144 0.5814385248645728 3.6929749722472724
