# total energy = -340865.98394881684 ev
CRYSTAL
PRIMVEC
9.24969613029176 0.00000000000000 0.00000000000000

0.00000000000000 9.24969613029176 0.00000000000000

0.00000000000000 0.00000000000000 13.53786526029478

PRIMCOORD
 96 1
Ni 8.013168770320418 4.420068914443656 0.18130698847484078 -0.9598388328546115 -1.2354348664922141 0.44156717045651045
Ni 0.9873402854270577 2.1329058682742295 9.156767867827268 -0.46035010749096844 -0.4995242065872687 0.38367595456668113
Ni 0.0950618992853817 0.3134851423467823 0.24112384664660133 0.3854248189369878 0.36446492885586906 0.26769091985791316
Ni -0.015670834729870072 8.227955957938358 6.220202174559082 0.262639987697567 0.4566577462410458 -1.454591586195166
Ni 4.440011258722726 5.32920302135516 7.327720983415949 -0.08687680448890198 -0.20912478938824627 -1.395699696954964
Ni 3.51641062748262 0.8024212907179976 3.5116276097522365 -1.8265078291227577 -0.10241552355444943 -0.6648194003850744
Ni 2.3816856881860375 8.721140491619115 13.370645337017798 1.1489360141680212 -0.20635262595974782 -0.09684420011425901
Ni 8.436897337771336 9.301864146940467 9.780118746529924 0.17620567006272234 0.5856067973096496 -0.36318503370218097
Ni 8.247084328981545 6.879738788444553 9.775096161676707 -0.6293317490014259 -0.3690723457208934 0.342362697640191
Ni 4.369713570169418 5.547107356478686 9.793399459848981 -0.4066402766723384 -0.7039449056316264 0.8218310140178492
Ni 8.816837845010236 2.2791898083361435 5.778001039501609 1.7604250785610713 -0.936578062554458 1.661006947072049
Ni 8.475061582899093 7.780094933982755 2.2965366879562583 1.3343305498188631 1.0823349292090199 0.35881133011451755
Ni 5.7456520781624665 0.39257559178676993 10.058417120847018 0.5396840666356061 0.7864948006104003 0.8924880142137791
Ni 1.716059074544844 6.469080041247031 12.582023667556735 0.6363356911230847 0.8875234711196522 0.8873568636348008
Ni 5.606203663342775 4.3287559168912555 4.445063442602701 -0.6919052008582729 0.9169505181315175 0.7812358662043062
Ni 2.1363190060474095 1.8227450666203497 12.743246791405811 -0.040507730306059274 -0.970850867694399 0.6385833495066808
Ni 8.694242376051614 2.292851609124727 12.139552441380081 -0.38928687299555537 -0.636242102968014 0.4246246290649009
Ni 7.977594440034099 2.5752910722793625 9.982957177032972 0.8308180480078078 0.11336019549141121 0.19179015476454067
Ni 7.117936956289916 2.115266698264867 0.651676222341707 0.9181231982833802 0.1937565344622921 -0.7195149921557414
Ni 3.8256742086378597 3.409252900918139 13.128641844294695 0.5034268840757846 0.671824628058314 2.6686955524200875
Ni 3.4268643218399144 2.931191619972203 2.2996094369217066 0.5524380238671648 -0.03493974929997854 -0.35983668605523833
Ni 1.8265559413156078 0.8838648627853486 1.7526665958589787 -0.16665505025980976 0.17489209345762138 0.913686245557949
Ni 7.037742093163973 8.144033467379916 8.188729847725611 -0.892963668298617 -0.5868861782427054 0.8683898356139947
Ni 7.281961813015678 5.823590015498015 2.441066885682685 0.024246017031558244 -1.906085271736769 -1.6482146804033875
P 3.2379022850694534 4.81432795087736 1.271511291647111 0.024732469749673535 1.1342845828034336 0.5160484294945371
P 6.671870373331597 1.0505342075581356 12.178811850497931 1.2143574769966248 -0.12838160860090794 0.33505716511771333
P 1.5188278096735068 7.789751616462973 1.5450220233858896 -0.9883567377886462 0.013616819452486228 0.1514307771108876
P 6.3047221954702275 3.882088103701888 9.689184986507877 -0.4955770490140627 0.7124796825755149 -0.40803278614449084
P 7.557898739979132 9.180748629319808 4.251904818819525 0.5821072687968233 -1.5424855190946725 1.0718461138625541
P 5.036829384844439 2.441790211899115 3.660841853463321 1.52752889778484 -0.9014102564040734 -0.1574993519024707
P 1.4056115323192335 3.1488924617867595 5.976520787006562 1.1298635709176026 0.9343861971094617 -0.7667932084164149
P 3.762535784681955 1.3743290609130119 0.8760636692951039 -1.8979582717542605 -0.4262660213230659 -2.436132072392927
Ni 0.6991132875713958 7.000077331612779 3.9422129767458625 0.962836996250987 -2.1787381635856478 1.047416777175596
Ni 8.75470763790332 4.6758600038190705 8.83838501152141 -0.09128084709386859 0.21607988054984079 2.1192613483762535
Ni 1.3705181862177538 3.954855461050423 2.594247398979513 0.1829895257537752 0.5992074188122197 -2.444034615069455
Ni 4.340105293714269 7.881684343638146 8.996940523083808 -1.2941562915928229 -0.10458759150510374 0.21797041270433426
Ni 6.266853940610064 3.2171182184669163 11.806751159164104 -0.5788283409352354 -0.5549101395567411 0.553366449218705
Ni 3.834507668186334 7.931762197036514 6.870059906694266 -0.7707550212776403 -0.41892835001107204 -2.2436302362733422
Ni 3.3603682582860035 3.155071258622761 4.779908907604241 0.041657013419154065 0.9337565339452628 -0.037688001469077026
Ni 5.412283789590133 1.000132614804587 1.9724800682084795 1.6330194607201876 1.7936833263935688 1.1123643856915746
Ni 6.0768004397278546 7.9331034029365455 12.579004566827287 0.01638975421193306 0.5001780381211837 -0.8428461828169355
Ni 7.11819594777406 3.1239830308296472 2.8804246642320943 -0.574678837543236 1.4981504446227232 -2.1103038820726496
Ni 0.9235627074870699 3.7552100255590317 13.10168823055202 1.2837024432493505 1.5248966023683157 0.3122774482190364
Ni 3.3579818367535363 3.015854086199626 11.078765870928198 -0.3780637505862263 0.048294316230013595 -2.4257954663536094
Ni 7.056389480022323 2.017423415433698 4.759669648087992 -4.122072035261231 -0.899781976772031 -0.37997073780095203
Ni 0.5164475187743864 4.711896818898502 6.900182466239358 -0.7096838649979327 0.7950195502519598 -0.7387365593895148
Ni 6.707675946014472 1.859188868317722 8.24492544996729 -1.469529952672553 -1.4946380605940903 -0.4366957012968221
Ni 3.06229680912412 5.284341996423115 3.7181335446646795 -0.4305163119589876 -1.5039739932830354 -1.3647703543659593
Ni 2.8465014046571926 7.5301589020881625 3.305892174505122 1.4953003767684374 1.486593850133375 -0.3192939887461856
Ni 2.402895240798239 4.073538308659302 9.081172878453636 0.0727863878341069 0.5299583547074098 -0.01061968449737526
Ni 8.47675427724189 1.1403580040767098 2.813926750739011 0.26817120192844135 0.4242235369717404 -1.2646914493644865
Ni 2.294239063504069 5.922450764874034 5.877694261505233 0.1928569054661582 0.892773920885314 1.1279175029348252
Ni 7.392902665187831 3.71945995105133 7.248267945898161 -0.6773964657191366 0.7050435380124439 -1.4774862314051522
Ni 4.521269836872832 0.8737225712723616 12.360314007555464 -0.5019248456089614 0.7471947174591971 -0.04323464231891908
Ni 0.45184301802431115 6.900374859913293 7.926054209719904 0.5712901235766612 -0.9702646561736258 0.6417979997892367
Ni 7.330753958689191 0.3401584903048311 6.520458401883636 -0.6643722855453268 0.2730609259205749 -2.1481875444923006
P 8.690671993448774 1.3718686418136463 7.776596699007642 1.4749251555461953 -0.1952691144520766 0.9882250973067882
P 0.7218027915215618 3.9605440240057233 10.48452101019537 -0.3715076946352634 -0.330379814246702 1.344763058006097
P 4.379185258732391 6.3053974232681735 5.023319279067997 0.8004916291101246 0.15442508385252113 0.6963791774692265
P 5.724331529199918 7.576786618929901 10.41147061215345 2.0132537365951713 -2.252647352170288 1.2912640576466923
P 3.49463684342282 5.325965627803362 12.037422849486333 0.4411074572112726 0.039613243516247905 -1.0574273673340626
P 2.8397491266777304 0.9169149510708513 10.647164887328893 -0.1462348347322449 -0.3859794058888772 -0.42410578044695346
P 5.133312962383853 0.1809407005186946 7.693690750024465 0.9574651904161122 1.175402435889666 -0.12553822561484185
P 0.26855659463494314 2.3696795829568016 1.236360597431285 -0.8256172205331587 0.7502890401138046 -0.932937123367761
Ni 7.68003172414464 6.786538852936248 4.466425615196631 0.3830663460071403 0.9226493682885079 -0.06822473660535347
Ni 3.109978991294159 3.2361818416390697 7.149373897617037 0.0774287717021247 -0.8443785603010618 0.6351455274697254
Ni 6.258991699127129 5.588407248503755 11.287858020803732 0.3583768136802602 0.7207699476087651 0.5030450752563337
Ni 4.505082869113846 6.668170494986685 0.4028584786768635 -1.240454945414625 -0.42845043056889437 0.2059492198737421
Ni 5.119521665853197 6.28084873044969 2.9358886155310673 -0.39703540659272263 1.1074183545402088 -0.4510979927650811
Ni 8.417870713382634 7.236212817280855 13.38161085146253 0.13074393818549743 0.7584821174475582 -0.5215243650074438
Ni 6.068947447940781 7.471589827888224 5.936976487256154 -1.2820289122016695 0.3187044347913027 0.7388499450389274
Ni 2.6348221148489785 0.8582006566458742 8.115273388035336 1.557597949256079 -0.016851781450016142 0.3110996258608513
Ni 5.4168623890419605 8.803194543613378 3.9853036098898675 0.4579265856511404 -1.1064032830121333 0.16786835384162055
Ni 7.884191011216823 4.33388949809482 4.890296627963829 1.1197791900984069 0.7930518850026278 0.12418479691074097
Ni 7.267486038991214 8.963843261349407 0.8316133308593445 -2.1230151589917305 1.1220631010365774 -0.12961702366990582
Ni 1.3378760095197775 2.352900634662631 4.018796758607173 -1.0057175976645971 -1.2299185646596753 -1.3445100614550265
Ni 8.864603274443034 5.57425521383447 11.900149038163864 0.3509751218995504 -1.220288240658763 -1.938560875766971
Ni 0.5198736061217739 5.785842006684062 1.0023978653212589 0.6952494347401575 -0.17043842856164196 1.5475295092764831
Ni 1.8555629875397093 6.00460656352278 10.278109422180723 -0.5567394794559961 0.5454219975606477 0.17591282141265188
Ni 6.550375618180586 5.7252564987861465 8.373331577866596 0.02421542090393894 0.1115084869946531 0.9435969170744525
Ni 0.8216736076857414 0.3411241585528529 11.551021117781382 0.735841754340223 0.734380082193032 -0.9223390361369406
Ni 0.931166882455448 9.16832628777677 3.9365669623915287 0.17724208174703668 0.994416570829481 -0.35450473231936364
Ni 4.249819012402582 1.1284073970226476 5.6226135487720414 1.0954249296237586 -1.4495002877151875 2.044720696855201
Ni 5.695407730238577 4.165175045566882 0.8401951986803653 -0.3394630074948928 0.4085554914171802 0.7628051703029444
Ni 4.709408650711549 2.4376278487610903 9.041100421069492 -1.9849633742909105 0.8858586818227195 0.3271291685198882
Ni 1.841549698308359 8.307225851478073 9.44806206483086 -0.17303010054821813 0.28857547661640626 0.6863325918665019
Ni 1.7851265535484682 1.0391570816475346 5.858632488272252 0.356784786602792 -1.3426886919755714 1.2194678016399965
Ni 3.642752223265465 8.080969040990908 11.392370334351602 -0.1042695460440527 -0.5970644043272879 -0.29536293185188484
P 6.638700963969471 6.072582578414655 13.851537024897592 -0.22146865566557988 -0.1650429685776835 -0.8782189058892746
P 2.7460774566804487 6.300485834765304 8.24269164841655 -1.0596709119526007 0.3988611469475518 0.34454633555507114
P 7.483133448324345 5.950986076609159 6.4376477247678405 1.4025627426233842 -0.9882564647653561 1.1323765671474433
P 5.079812721516441 2.9169008398649843 6.467065457488228 1.6922821030362467 1.278838687399146 0.6903828506764755
P 9.1468392442887 5.1599335870754865 3.282471944581836 -1.0372596341369362 0.2723415312560471 0.157532004912619
P 2.3211834275508823 8.178266591766203 5.393567030012816 -1.5880117856612457 0.296602974906573 -0.7159542713876766
P 0.16487860365385018 7.704617415746573 11.297362083302222 0.30702699845337444 -1.6235873687730102 0.13079124648366508
P 5.478789102839907 8.21756854948502 1.8185688289385313 -0.22988876140847503 -2.206017825237207 -0.001376568632552468
