# total energy = -340864.8365297948 ev
CRYSTAL
PRIMVEC
9.33468332107470 0.00000000000000 0.00000000000000

0.00000000000000 9.33468332107470 0.00000000000000

0.00000000000000 0.00000000000000 13.66225260464520

PRIMCOORD
 96 1
Ni 6.083459786198424 1.2227034932909837 8.049990051257911 0.2911859176560598 1.0331232433710593 0.10786806202858844
Ni 3.834211834681668 8.202563583014543 3.1092691272482234 1.9391087778506415 0.7499414269663986 -0.8603047446130152
Ni 8.755438206067858 1.403777680128091 12.84990847916421 -1.8285346297447993 -0.3026288693856788 0.8889704879788238
Ni 9.236183731188895 8.814022678518095 0.4633102036356076 -0.9876841372016538 0.28820523776118107 1.1065295241773525
Ni 4.169196279925324 7.123716894205808 10.8389619239816 -0.020035578494636462 -0.6884905187497691 0.9296168007452764
Ni 3.415159231552922 4.528786950372743 8.353607160176754 -1.7037703061815044 -0.9988039012638991 0.24504078655856512
Ni 2.037145277358969 4.856471673268393 11.835349754307797 0.4288389242565646 -0.9442936860311607 -0.2182365218815274
Ni 6.252632251815957 8.06479299205007 11.897362855937601 0.2821402625140238 0.29655515238777314 0.26538772564603325
Ni 2.22714342143993 0.2997609512437 3.981152818529366 -1.6710681879627929 -0.8406116370594621 -0.3354955382067125
Ni 7.429315756391252 1.6390303688933647 1.5107447496396436 1.3573295818171978 -0.4151560274528334 -0.4453729173558459
Ni 6.8401198805807875 6.08141549055365 6.831481564646204 -3.6717895964189085 1.1995687487232245 -1.507817535398842
Ni 0.6225617678318349 2.199064694045043 5.119560387662507 -1.9270068523807844 -0.40907305448354714 -0.5260983575313714
Ni 7.812663195861273 0.4290416477382107 3.8978547720173067 -1.0087296450180434 -0.1307994740137812 0.8708460104639713
Ni 1.6135466834585106 8.134579084471671 10.986049462357258 0.43062121296796807 1.946802804060789 0.22509622511583813
Ni 7.297155310095769 3.4221602440350245 7.471052992404555 -1.419713286260742 0.9032493664953412 0.23339420345857226
Ni 1.6678465362697 5.547247572852514 6.98865242793275 -0.1256171584818933 -0.2802247906588658 -0.21285237475147858
Ni 8.736871520965321 8.443669118214855 11.564618734688217 -1.4591331828192613 0.46798422699745856 -0.27037335178608274
Ni 5.290749144874885 2.231250682096097 11.105320577939022 0.04413349998410464 -2.083939790256824 0.13347264997057012
Ni 0.2534431861304387 4.914234693587396 13.43987166594271 -0.4772029173822491 -0.5194050046715958 -0.6557562617415417
Ni 0.5038899389185374 6.487100827183235 5.068463264694798 0.7372710305875819 -1.2956498454192138 0.3154067378766374
Ni 5.264714713124773 8.886235788600157 9.817107210650505 0.10026171043624023 0.7807473566036618 -0.6209129288101114
Ni 3.867153932080789 3.950353964418099 3.2488151749781586 0.5748063642600358 -1.9312756549594672 -0.30594610668436983
Ni 4.936843296562934 4.0175356801963575 6.6701026261237475 0.3365088099625753 0.555829823157533 -0.9380901283236103
Ni 8.048980038523826 7.923120503462236 5.684084695486042 -1.194531443409633 0.23935684879991037 -0.7305036299567613
P 6.599910474978184 7.006333251589218 9.668420641023937 -0.871339405160622 1.3168303361515707 0.417136805328288
P 8.531648508406613 4.132464301102558 1.8030482223874076 -0.1988501469351156 0.46068383668130336 -1.6522399995126966
P -0.024204833821456814 0.7621675575349508 2.553871339296359 1.725347518131648 0.8793275655724211 -1.7494683224392515
P 6.48718483933302 0.2348400957629951 5.680737278051265 -0.2537146601834792 -0.5045612547905439 0.8469542914480382
P 6.167798649899489 3.9869272536246045 11.853575723469538 -0.3983690378024817 0.6735840339515818 0.2804978418145943
P 6.371061378963208 0.5249135126681267 13.484301958090796 2.3844043050013326 0.08358065023613347 0.5100276772217539
P 3.2387523863705496 1.1519932672217454 11.142059091040105 -0.7996503641557519 0.3382700156280561 -0.7441685290383635
P 3.2012176247831694 3.6226225681059017 1.0987575683078354 0.3630626491917038 0.6345809132155071 1.5130728702605103
Ni 1.3810103875362927 2.6062529146874525 7.240364963777613 -0.8450197934294865 2.204263818660578 1.5825101391167262
Ni 3.5346058391809057 6.939674278076289 8.173879968141204 -1.5199832242270983 0.5482185864691785 2.5818917672609665
Ni 1.8810040296414572 1.00560676356263 9.018439174438864 0.9241645193814536 -1.3888135113580922 -0.5514314369795213
Ni 7.068772948246266 5.750052902434069 12.7155814528726 -0.10941946567610834 1.2369435898272567 0.48732097965285753
Ni 2.843792600863546 1.2680793888583195 1.3049429867157492 1.2150491037470106 1.4991752863428116 0.05801822838599686
Ni 4.258314501480838 0.5458288040913262 5.766249511444331 1.6535864862382619 -0.5287813036801732 -0.7753161582857615
Ni 0.48606536113910365 5.363821045821421 3.0133599235850697 1.8877841594347358 -0.24605071588031818 -0.5078453248584544
Ni 7.24019507254138 8.441802181552962 1.9494253913632134 0.8029084660817333 0.8287573088240373 -0.38522247311819463
Ni 8.233498723502128 3.08486079733062 3.586559886076425 0.6256902955940966 0.27423334896212126 -0.9316829392456857
Ni 0.13111776216981444 5.967000277229472 11.039345836712677 0.21266417000007246 1.3885201484873892 1.11933336081024
Ni 1.023361331217243 7.933332647002797 7.365770833230362 0.2643441148728673 0.06076133834877277 0.6345071225547781
Ni 1.8510677002679856 3.3086038215753164 9.79036987724719 0.3008087854578045 -1.5530990329444607 1.1296452842592093
Ni 2.417430940703485 6.133801733286398 0.17609973410149052 -1.2224469388729784 -0.23219478383383235 0.8859229594017517
Ni 5.299551751235716 2.477247591350571 0.49047599900282834 -0.48795192836863716 0.31612741809274586 -0.18985668518725368
Ni 5.787074256439428 6.961732134736568 0.7322956374763145 -0.7883557650785391 1.4842410336304825 -1.2983286778029575
Ni 1.731761112889644 0.4956091413547062 12.719038086102096 1.0316422879501588 1.1038563482205634 0.06631003608114386
Ni 4.623291284197823 5.157365855065863 0.08188664239566742 -0.5110265507999134 -1.7853223560233835 -1.739528180507404
Ni 7.4467249407634135 5.2284121297342425 10.582015431205118 -0.8852824976042754 -0.7915909841863852 -2.2047847241610543
Ni 5.429686571253043 8.424589025530297 7.344089164307455 0.23735987297453962 -1.2985940156492022 -0.5771334697313157
Ni 5.870787696358759 2.318427289523241 3.136757902657952 -0.13652300676111973 0.6071421002782641 0.8654250965587159
Ni 2.827755614937876 5.431609516014795 4.787321272780167 1.5268658102795445 0.9995011844412399 -0.9578837660107697
Ni 1.8754125543390845 2.4047264367192955 3.1961880974160266 -0.6988723762047254 1.2786916202983203 -1.5376168781484614
Ni 8.354065493127248 0.995683995204663 7.077976012521073 1.7350459763663346 2.1888433703404493 -0.624047360674035
Ni 3.052693478646185 7.6985560270863065 5.175589023822612 -1.9870112579588746 0.2887153446283802 1.4252324163067585
P 5.14509074651391 2.941256029297727 9.050149093641135 -0.31897774305734744 1.2308241071930803 -1.1086874510606195
P 3.692791382543191 7.61759631874327 13.122361747854384 1.2694809003333298 -0.27381297359525103 -0.7223462909569495
P 0.24794599112949156 7.117201285255798 12.892480235865381 0.6366797047260648 -1.8381785805924664 1.9034144097728252
P 6.241010571095666 4.212313182131767 4.829606454703738 0.1727552496202767 -1.1659356340498115 -0.19267307159012625
P 2.2690001413995957 6.386808989706284 10.291939213894993 0.6842201735091893 -3.262637094847678 -1.846549064044349
P 3.970414198850151 1.3507100055137518 3.4323817222588944 0.42882195497570014 0.26365891588038465 -0.5682022286799568
P 0.05723000990203223 8.34274252227286 9.31790234928499 0.1658487523084305 1.1393190599035476 1.1775493070293397
P 8.421088519289246 5.467389357139995 7.719322897044886 3.6215139880928082 -1.2822909076138045 1.8447703748773714
Ni 7.693543302149121 5.5903644750589585 3.8914745159752835 -1.6005721388247596 1.5470803375542066 -1.1812681506418237
Ni 2.168054876090982 8.553090275968469 0.9000277614591958 0.8127128537666648 -2.0764211132822754 0.7644074817930577
Ni 2.0304056360095313 0.697228966155958 6.270045170061443 -0.6965308725557423 -1.834790380846524 1.680569185474693
Ni 1.0602986730728172 3.014337264927571 0.9733750355633596 -0.23474506105951187 -0.4374107250859757 -0.3892920152018779
Ni 5.4643929237976545 5.294567030348459 8.819298641524608 1.2087869248873828 0.10132357604185131 0.5438952765034762
Ni 5.1931270268244445 0.3727777775587086 1.7283156812801186 -0.35301786336119206 -0.29085116002446043 -0.01131053991681278
Ni 3.996308610350622 5.951215327753157 2.315013595836968 0.39134864062059055 0.6898956266274118 -0.49994329640255825
Ni 4.131269461638945 4.2499319558689335 10.771989305109473 0.4543771777369852 0.8900223262821059 -0.25826962654401325
Ni 9.518669917500088 7.927909195999995 3.1767747565373208 0.12311418955438151 0.4269687038170453 -0.4374058399899693
Ni 8.531573830940138 2.9748982279450584 10.916044004877884 -1.6416439691644051 1.4731102138246435 0.15274409660567242
Ni 7.320688046718944 3.5975122700034268 -0.03295703289241629 0.9702505151062386 -0.6948102903202098 0.3399998538349693
Ni 6.058461504295662 4.572706635343802 1.9234404334346407 0.8321390808120765 0.10644238532565539 0.7321031132333972
Ni 0.57763020319003 1.1029021676972404 10.826255553060747 -0.011572535328947812 0.04691800470777726 -0.682108012262193
Ni 7.307152755920212 2.2103223221162644 5.382914207062611 -1.3411784259786323 0.6329163810288906 1.0292280220817114
Ni 4.434982717795875 0.3178674364590798 12.77397363084666 -1.3956888983216866 -0.1385822032829936 0.15537767757377757
Ni 7.680400068049386 0.6130394573878442 10.011507591380212 -0.4325711376054873 0.32056874169355115 -0.6584667186941692
Ni 3.1631041128306014 2.5205885259564424 5.194183712975077 0.5138113126339022 0.7914703994481207 0.5484852098670038
Ni 0.823557102319683 5.0853394386499895 9.080233844479228 -0.38715877090895906 0.4572136187445158 -0.905730223935666
Ni 8.215585466231254 6.266307562864331 1.0486461878976054 -0.3094119537457833 0.7532584071547737 1.2683380449781383
Ni 8.412855328610293 4.62050021388829 5.721027638151602 1.7708077073469761 -1.7060171932341524 0.5670403471613717
Ni 3.3737785804420395 3.0479421248416645 12.751267013696372 -0.6720202890088878 -1.2262675981706495 -1.092984438503066
Ni 5.405696435147705 7.424947124602419 4.902138810954985 2.3551127551260667 1.2320533516144911 -1.9450467406016307
Ni 7.770750467801751 8.49839836645828 7.938451787329711 -1.1197141411884264 -2.810971659614901 1.811986752688447
Ni 3.6574782755834647 2.044323648823952 7.651489620371626 0.4566042672952911 0.2388868511420273 0.11745107773133322
P 4.412756836836026 6.602384166055195 6.429619714300178 0.14595921247335508 -3.2416183265041654 -0.2476124039404832
P 8.436985484965273 2.4802066859596734 8.875805213470155 1.2755543602209194 -1.5433879763042837 -0.004912092589636701
P 0.8218693915773309 2.867437353686435 12.24909745691177 2.072540804391263 1.2752782237413973 0.923278003011442
P 2.1696791109868303 7.081598803113478 2.5968939612013777 -1.5700731989049541 -1.2066063722962963 -0.329782032761703
P 1.5886604177554624 4.021642940852525 5.413121242252058 -1.8446744727294555 -0.4642229601828134 0.7071536423769111
P 0.7164425448118409 8.527401227500805 5.335027281685028 0.49842428865487065 1.484845757094017 -0.48567033142331195
P 3.5884296231433117 9.164960097537636 8.172568445136223 -0.20000380092358458 0.9245537844000723 0.12906552204181
P 6.232403993084334 6.791784890404349 2.7449373711479237 -0.9356110706554983 -0.5186493574524939 1.5002821462537452
