# total energy = -340869.5612388379 ev
CRYSTAL
PRIMVEC
9.27094332907998 0.00000000000000 0.00000000000000

0.00000000000000 9.27094332907998 0.00000000000000

0.00000000000000 0.00000000000000 13.56896268341750

PRIMCOORD
 96 1
Ni 7.138042337437928 7.108579279358659 1.6097806508249075 -1.8332834572836942 -0.7792414614820966 0.5544468267670773
Ni 2.748973777965479 8.960580013829077 1.6049504893210376 0.27542068440200307 -0.215740494932551 -0.09591808875556385
Ni 5.314568295764838 9.132620910234673 2.207181700702787 0.07008184441875027 -0.30943226546075747 -0.6029640576411744
Ni 0.1609519210221435 7.703894366974791 8.679332966907769 -0.06166045312427445 0.5142077767413725 -0.36326550923112927
Ni 7.831147335884809 4.277733800355414 9.969578501723396 0.8665388984481849 -0.278119828500721 0.3086167115379975
Ni 4.23885146379643 5.330894427066787 7.261755660163344 -1.0593569802566076 -2.4239419580846384 3.2398074985476715
Ni 8.839251177742423 9.254895382546653 12.094043918445994 0.5050145402778786 -0.36327682208503886 -0.8433156662541863
Ni 6.1580758087554495 0.2208885700097051 12.041938435336204 0.4033173829466925 -0.07612522239935277 0.4222018785560213
Ni 5.022246179875154 3.7320738855122726 8.749253494827224 1.0085003026160566 -1.165015436228387 0.276294345256208
Ni 5.473704038977753 4.776241697139664 5.382400080139532 1.3964759129993563 -0.598334529288963 1.7916372424978175
Ni 1.9470186332288895 6.359802265881567 2.114587226545298 0.1392522327668247 0.29557041987700067 0.08604633816780664
Ni 5.117931586557385 5.083508573766849 3.2696447920072176 -0.18848088788564957 -0.8149353153392803 0.41252244648472824
Ni 6.841696632118916 1.9486410483213603 2.46573811368797 -0.4375490504360529 -0.7722529459794055 -1.1612392570154066
Ni 6.848603484941148 7.938393608968817 7.589053337069343 0.8457091061870273 -0.4828166640246007 -0.16975580067232054
Ni 3.156311217496259 5.649648002548664 5.10829351381377 0.5636061246688422 0.24713186475963891 -1.1093564521031862
Ni 0.2729022707799782 2.740240549296294 8.794859119529407 0.15770529726568971 0.42889651696737746 -1.2946751402107701
Ni 1.0607720712309063 5.603348911281243 13.498703092676998 2.6264880658141023 -2.356483667331664 -0.7884719789414292
Ni 2.5379485646236577 2.162790569584111 0.890342464785718 -0.16936884964654703 0.14726044778328187 -0.6474639398257623
Ni 3.566726610231041 3.0996842952973376 10.473692537972886 -0.8900812045444993 0.3023558182299502 0.7668790832620018
Ni 2.3495629950293417 6.365735669648318 9.132861954762697 0.8145121117589328 0.18715317021316158 -0.42069469788287545
Ni 2.5655296211956595 8.19451269093794 10.587562900105867 1.55486100994089 1.5522166303395075 0.25628473490350057
Ni 0.8201873819986064 0.9368659128830701 5.019308217916274 0.599271953501568 1.7725048925437408 0.4997931439779392
Ni 2.546264600840493 8.906780729362747 7.8411237980619966 -0.44910435937382015 -1.567589513251152 0.5418530492624668
Ni 7.385975176397612 8.388636974487909 9.951436192612219 0.09998994483209231 0.3870862657998108 0.25139295402883804
P 3.3048966271364213 5.0322587987315455 0.26524169026050065 -0.43188413884079163 -0.1790534239241626 0.35245659154108333
P 4.433281688478122 5.5821184509283395 9.6485906288856 -0.4618932836083723 0.3958449858290473 0.5035410410561456
P 8.536156225638734 5.578549137724904 12.417717583582583 -0.14223676931644536 0.8106611134439587 -0.2638139534010101
P 0.5529014487215926 9.163687841519641 7.038546573024237 -0.5321674465435868 0.3874462202423908 -1.6182173627103487
P 7.729621234869684 1.6907697580523695 12.825601081678771 -0.03140499667384269 0.36258211001085944 0.6243749192167828
P 4.672258796127368 0.1353641172780337 7.005425200685031 1.017280362801532 -0.24157082573209368 -0.058500824449370215
P 0.12750513857010548 0.2665896854287592 9.83752503832834 0.334554771559998 -0.2962615324067543 1.7612843412375732
P 7.254476115417012 1.4669599137818785 4.62359654139097 0.5404551404736756 -0.814480744300365 -0.4049009253837285
Ni 1.4393695862664906 5.085937560933862 7.276139528826021 0.9684237463101452 0.1053830908232056 0.967579396031979
Ni 8.09393222614814 0.739543153865087 8.225857750524474 1.3844904585027058 0.1478649141365002 -1.6438227219832786
Ni 1.1048461360857968 5.847415766849154 4.453062173285526 -2.7967349471902287 -0.2796840876640474 -0.6975875959550308
Ni 4.861988652512589 7.519884682658453 8.65344293040929 -1.4604243908268588 1.1145372249731773 0.7146512363055368
Ni 4.780710291851497 0.2839198598993623 4.684535379358509 3.098835454876263 -0.3819502301248261 -2.11173238698906
Ni 1.3451211758090194 2.869894692543169 6.4516077827569465 0.8275907993197618 -2.2806556644577562 -0.19862054742281277
Ni 5.962245671622539 7.332936109288897 3.989654995253295 -1.214461863784973 0.249407548167693 -1.511288524666578
Ni 5.231000012087517 5.935517541842008 13.302129425884566 1.64694069878697 -3.0093780341443783 -3.29442004368623
Ni 8.595212135004669 2.039626086707119 10.852999280177464 0.15370311808483206 0.5458421158172019 0.027892355534893894
Ni 0.9616286026658663 4.164785897089295 10.695138291680063 0.6434409347092983 -0.4392480354050306 0.9412237888565854
Ni 5.689077324767396 4.644770448989221 11.219008708284152 -1.9375239498620245 1.319333819299715 -1.7620746983493525
Ni 8.849412131692983 6.31095366518312 6.5591961536518815 -0.368763556231223 0.4828482885934846 0.30004953869427675
Ni 5.994879392339665 0.883023982077167 8.973318290040819 -1.6093262308683058 -0.6070017180456577 -0.4569238554182389
Ni 1.5071030986412972 8.317083833438257 3.6486261240989633 -0.001251098798281716 -0.3607885084455464 -0.7698965299320869
Ni 3.703241251583221 1.518404378628279 8.415131476495125 1.421142562508101 1.2474388329316257 -0.34236706851556525
Ni 8.151857080421038 3.3051191297776747 3.9191235121647305 1.699402516131112 -0.1345831094259295 1.8048437138857627
Ni 1.5946671589177888 3.1401890469487928 3.8736133781794186 -0.3506347078409961 -0.5639709642074288 0.9353292777490213
Ni 1.9690185818827926 1.3621704406950403 9.859384995737122 -0.5476264614111342 0.02303271344974743 1.5827507943726227
Ni 4.603088287527801 6.370380412284477 1.6594432403526058 -2.078865203947394 2.706693886040732 2.152648665587447
Ni 0.6801062087260065 7.09731508314522 11.40043921615063 -1.180377263396438 -1.3235432293953722 -0.7747955098956011
Ni 4.719985612676164 3.1858020884056844 12.752436650668711 -1.1498886078892776 -0.012317898135404591 0.28208164136194647
Ni 8.742351277476686 2.5567407668661617 1.105162275255244 -1.0297710390693748 -0.6523027559753024 -0.7042148714635614
Ni 5.214507003804629 6.9902171451553805 11.20634830799685 -0.8006651785735114 1.6518713033193682 -1.1227678404130859
Ni 3.0624892704345235 8.631276104774447 5.470259883510023 -2.561422443663021 -2.0407480853606983 1.01813191216855
P 6.885937573954747 6.417588056003682 5.784910139449457 1.0555918567872207 0.31635701760504875 0.0434002213625059
P 7.647805159492232 4.225241718906447 2.0952109548695046 -0.6647432957315003 -1.0497374548889729 -1.9941861784407593
P 1.0954546704362378 1.1133661330571145 2.851327774224934 0.6978681033099272 0.5675018601788226 -1.3358714119434218
P 4.642387816539136 9.368751838264556 10.512526665626266 -1.0677662873662255 -0.4495810418999225 -0.2212251721962061
P 4.839571511406335 1.8353130363764332 1.1632614232637901 -0.8551640809523401 -2.0200820723709145 -0.32252380853739293
P 2.4969709948595393 3.2799485184859143 8.2147177849524 0.3062129871925114 0.26660308611037314 1.1664079457005394
P 3.720355413072941 3.638900904487525 4.584124572832665 -1.440321963650029 -0.3297336960222709 -0.3473976889609372
P 2.8103103394042583 6.845238132492195 6.88638443342593 -1.5376770419624355 0.6727381410115189 1.0408473514881944
Ni 7.617507716508263 9.202440384871228 0.6992395816850984 -1.613581149489918 1.2769877502333364 -0.564989121059298
Ni 6.776178875213256 8.89959574823895 5.462729096197942 0.9789094763328173 0.30028222353037315 0.9330816193654253
Ni 5.650194988208412 2.3334686373120324 6.797073727415602 0.5581368740241549 -0.3273533687155523 0.04495445322350322
Ni 8.397398015987251 9.139054944944244 3.0049009514065204 -0.5608149350769502 0.6504446197206412 -0.2209788605133549
Ni 6.724567533385915 6.160551150639391 9.394471289404741 -0.5073228766960811 0.5656882040088516 -0.3837258339680101
Ni 7.311427520634428 3.8746053691216726 12.348190143662672 1.4472310320650366 -1.5390060451865044 1.95223863036438
Ni 3.8974397026802747 0.8658347259460244 12.62539042379619 -0.8098882398336762 0.3615593251732999 -0.17236752726355475
Ni 0.6180502220805087 0.5912599769792936 0.6921537996555248 0.853374593152085 -0.3075134511714897 0.42162877966137063
Ni 6.131542368786014 2.354967955023116 10.824681183606312 -0.14083217565943487 -0.07817670561174278 -0.051938083630187974
Ni 3.5499183898730444 7.697979505094812 12.99127747545019 -0.8811036836362374 -0.11622851817814177 -0.045218505518167286
Ni 2.875865180083461 5.686574170053299 11.567689816108915 0.9195876986440485 -0.34582160272306894 -0.05225587198092291
Ni 9.19519050714373 7.320132936473457 0.45521722664543773 -1.3333861836277228 1.2851805704567738 0.6950301196404998
Ni 7.396599677517449 5.533992983813965 3.6686680495098387 1.0422018086335598 1.2819944594193082 0.8407301649151973
Ni 0.752195210303343 4.183744976312738 1.8447415857995346 0.12905703740137775 0.8880724016445867 0.45586481802610523
Ni 3.11658522508919 4.062165824754675 2.352424008158122 0.055007466584131075 0.7905208910506579 -0.5561383555368874
Ni 4.880308036642429 6.987649093837584 6.0956119006009875 0.7979205259488387 4.016263683975148 -0.7051399543809921
Ni 8.151087592120037 2.4871901495877875 6.340233158583355 0.1552972020448293 -0.2025895593728898 0.7439168180388737
Ni 3.531858592157999 1.7110082274630185 5.728693920042516 -1.9342995293874559 2.1269309491063693 0.9321069141569817
Ni 3.6646092304956466 1.6099549445605559 3.111322110529215 -0.9213694731348196 0.5476028072620505 -0.5119500910554473
Ni 5.584983172434474 2.7280307168575284 4.261115634336821 0.2059078251128454 -0.25994367181232647 -0.2003619555939517
Ni 6.953235351990433 4.698912758360816 7.377173342747374 0.18266890918956286 -0.34539017161260516 0.07163041985279277
Ni 5.342538731959033 3.789414670351881 1.372730972305517 1.5955590018808843 1.941120408964031 0.143689699712888
Ni 7.34042703154442 7.419359843528967 12.068276258400205 0.5009802223075049 -2.040919063720924 1.529030164920715
Ni 9.013340952636225 8.292719794221039 5.1368155711394055 -0.9476885706453227 -2.275433496826868 1.4007925380968391
P 0.266983700522645 5.80507536840736 9.506279793728776 -0.8537324907121361 -1.754955570806068 -0.2415901090058033
P 3.689056708203334 7.805262861952363 3.477711647314711 0.4658651237719267 -0.09663465520661423 -1.1978509947011693
P 7.1729474392845125 2.7872627741477882 8.627486143118436 -0.3054635106209965 -0.5804414510586262 -0.9210108042438202
P 9.284200834588368 4.277770884128956 5.826539456533578 -1.152328327679022 1.3047083560770563 -1.7490934555983362
P 2.080946681376502 2.3207859867606038 12.18891811758199 0.7722961405125152 0.40739386700891134 -0.6449362883079022
P 8.944949203281045 6.9819938183724 2.7164791213991366 1.731513537733044 0.07507569808891587 0.6879999522665957
P 5.597452591288035 7.937290366705938 0.048271948019866305 1.5985003438973953 2.001121729218328 0.8589847402500109
P 1.4603033764310556 8.325418411541865 12.958386949601284 1.59099940753466 0.9110670627675471 0.33486536082188134
