# total energy = -340866.3052317213 ev
CRYSTAL
PRIMVEC
9.31689689395584 0.00000000000000 0.00000000000000

0.00000000000000 9.31689689395584 0.00000000000000

0.00000000000000 0.00000000000000 13.63622037067216

PRIMCOORD
 96 1
Ni 9.182817146098632 6.107840639847339 13.208697548733038 -0.7919283129211457 1.3107967283629811 -0.09483462588339797
Ni 1.3366299376636661 4.679457904416223 0.7523375374859963 -0.549059594313235 -0.9098355043532911 1.8166725881998906
Ni 8.320920358053435 7.1685693183428985 4.798708590824093 -1.1787502693159762 -0.32231246385753526 -0.10261606960102972
Ni 3.3597754016773123 3.3249022576842613 7.150697647274913 -0.2813941283766186 0.24841047436174635 0.4126851973148376
Ni 3.4096953336876696 6.052442372633157 8.10920133621884 1.4099706050516814 -0.03876735057618485 1.66988625183955
Ni 5.633815574370861 4.832804705640275 10.920375505233466 1.203592525170637 0.7317015069196043 0.021747933200052867
Ni 2.1309233239419436 2.3650010342495627 -0.29888417971367437 0.04901062557074785 0.3227644637932893 1.5006302736217834
Ni 0.31949035993526975 6.763498604641085 7.292431868570315 -1.6820262296361936 1.1885371734994112 -0.30841076617477853
Ni 4.690554328272948 8.076966737344366 8.64409555059604 -0.17158771167473674 0.36231677216461466 1.7096663599509652
Ni 1.5911675529161795 3.3274271366642547 5.053651491078931 0.6370417160511738 1.3991560309346807 -1.8850094249030762
Ni 3.9001460878790155 8.534267973414611 13.268669480490685 -0.1510170866122367 2.192740648512327 -0.09917824756407435
Ni 9.478451592276432 3.872940749791997 12.312129793351122 -1.117575754689185 0.5442765711022949 -0.2646850431520538
Ni 1.6664760281755524 2.403805908609984 11.161178151510676 -0.3604555505861599 0.7454072865414711 0.9730481324560338
Ni 7.6148486657292604 0.2393259181652962 11.009829824608426 1.0038149813252453 -0.02100488438644125 -1.243084669727988
Ni 6.157145656681757 4.186743144349827 6.759664701688068 -1.0643947997908314 -0.01643577695852008 -1.4329655232849579
Ni 5.9622082290123455 7.352177399740456 3.386854961660161 0.2299458398986556 0.7702816811856477 1.8870218273474149
Ni 2.388973409214596 4.722706938457298 12.288620468147364 -1.1987768489495483 2.16206378825376 -0.7793016252960707
Ni 6.293582290567476 7.302359953592756 12.920441152976851 -1.0878049511846555 -0.16858080652761287 -1.9814746444113618
Ni -0.016746189958084474 3.6339344011802575 3.013168214172773 0.3290577530011688 -1.5328423395779536 -1.4136004884947846
Ni 6.275488877360288 3.2952838433765104 3.2082891847053063 1.2375202882663332 0.23534464231672375 0.13733958912514413
Ni 7.747782146491444 2.497841346045695 7.515221226951142 -1.13954403143016 -0.18536985306049367 1.1925825472133784
Ni 0.9533887127077035 0.29688570539187115 7.722491430656783 0.7990250718669272 -0.3048562160543008 0.41678045043013384
Ni 4.162155854208854 0.7540956358753869 1.6105876921999402 0.43438659354767123 0.8081848839893242 -0.5480265250630304
Ni 0.49138803398982317 5.722400627292562 10.478153666318644 -0.4875168977137475 0.3862267460129929 0.3548145502502986
P 0.8905797859337908 9.148316677969786 12.866700361668723 -0.3928617348310073 -0.6627915713217682 0.08849865636304112
P 1.6600939540010293 1.2493678840598943 5.681899146060345 2.1221610385215515 -0.37618273151342957 0.40924197596124356
P 0.04218690782808863 2.7950503477497644 0.8851694640751842 0.5187128637005777 -0.0867832163338312 -0.49957177199575253
P 5.530863866884028 8.439841226321484 11.022238067507157 0.648167136540374 -0.36655806393947193 -1.008843030667456
P 8.640993024026526 4.599379178095016 7.1535476859464255 -0.2119756285734801 0.8267737027351051 1.3052721990003262
P -0.17798812936533562 8.427077077972438 9.689338615244191 1.7761849124984892 -0.8535419719678848 1.3612872809133651
P 2.659349748695853 8.609650983846825 1.905634242201956 -0.29585092723189693 0.04825574968259431 0.6377335999118758
P 4.323356799271043 2.8371999879914327 2.718039675480632 0.21161027481426134 -0.8938753814796089 -0.5404445989507144
Ni 6.248665532034079 2.2654220433337913 5.518755628055985 0.16358926685029246 -0.7938036755669877 -0.5994879261671159
Ni 8.338594510913392 -0.07045437212809325 2.197722677531839 -0.49166665821606287 -0.1172281630872497 2.2218198252664703
Ni 1.2082710531346075 8.388411957061093 5.576518523628551 -0.8676575854336606 -0.4528753963804781 0.7858304275535241
Ni 4.07829446786596 3.438074600746936 12.043604721225305 1.720946560850475 -1.1437022765729077 -0.4505511191226757
Ni 1.9726851520001905 7.063763548431642 0.5683306929137382 -0.24826674969503046 0.20433739530193196 0.19887842906988973
Ni 3.7151404719906864 4.739896612693787 0.9666904459908665 -1.9225781271854696 0.7104608523732732 -0.5735773769489413
Ni 0.8290435472361407 1.348667368077511 3.651520975212126 -1.702409421278236 -0.4810657427717651 0.42132333260580995
Ni 7.572820145143458 7.17295757664392 10.58522437379461 -0.7797492543564507 -0.8505304388350706 -0.21500875897284907
Ni 2.960723403182422 6.676096797588237 4.3350904988555605 -1.4598497492703115 1.212530451090215 -0.6660949246633884
Ni 8.443772956688855 3.9681780668897715 5.12728665170802 -1.6286308447341884 -0.6171107814552017 0.38386904441409375
Ni 9.070446056144 3.8418502658206344 9.30865674178566 0.4464101003711086 -0.49430846671428413 0.3056082637289769
Ni 0.8609995709021215 8.094128460891039 3.3626375523144123 0.321484311529285 -0.23530864687246572 -1.5738905157685152
Ni 7.194256002283278 7.0189585926575075 1.3998394909915999 0.2003796962057646 -0.3260351641247611 -0.3910470502197717
Ni 5.155868095423617 3.025513102174588 0.6147018190071967 -0.10744383000697626 -1.5817912586728307 0.37361599922751787
Ni 8.999609691255097 1.5910743839501282 12.50264076344343 0.07645612337621026 -0.33837723062988173 0.15981128786509896
Ni 4.984912359615843 3.134716447283472 9.273802231585819 -0.7339913313950456 1.4182338735017381 -0.3814519503321689
Ni 3.8941739571551186 1.2421193385010927 5.743589113551979 -0.5230012066632863 -1.0708528967113493 0.27193452562561554
Ni 1.4922780123491892 5.010328853554675 8.02574709825759 -0.4783797112991696 -2.739130152192567 1.4016088633505475
Ni 3.7934024034738894 6.234196391606291 10.769368176746964 -0.493448175596518 -0.002050711881441629 -1.2082601058496354
Ni 4.230756163912524 5.750109077796259 6.012373195403418 0.15017196500312202 -1.7293298998181637 -1.1523129010600541
Ni 7.917014256427265 4.306381413656472 0.8908900385907421 -0.43165813887291465 0.42037433842897926 0.07249302496340419
Ni 0.6605614474770327 2.8738433423394607 6.991317223809369 1.1445263151360998 -0.10331438121963497 2.305891299096093
Ni 6.982240703136639 4.720349763616196 8.759171335635145 1.2590010838479286 -0.1168638377692955 0.734426104939619
Ni 5.944888118223384 0.6825250995339974 12.43987376270424 -1.1667576157304747 0.8119101553597113 1.582362300684952
P 7.461306209676499 2.2910062414115147 10.073962467656356 -0.9999503561635166 0.5710314705986359 0.22630875736670059
P 5.630610561938692 6.190956674461822 9.060749961847026 -1.3794230712821276 0.5102685895879664 0.6230950240630946
P 2.6653684639027757 -0.0011515684203957056 9.212071269749122 -0.9341792233049782 -1.0743902204406464 -4.3420157696418515
P 7.735623596421732 1.7600176700911905 3.9199631269581556 0.9592837316820898 0.6252539793876264 -0.8843792690637156
P 9.177059303996653 6.748498401106804 2.0848009589878425 0.46164620059457273 -0.5747523710936489 -1.043975612704531
P 3.9008821227108217 1.3849287296647286 12.545213390790972 -0.015533319748908732 0.6902851487563467 1.5904448205827706
P 8.348787195799419 8.455773119516278 6.483981457900522 0.09792560610389588 0.3454490498749986 0.8894865083832938
P 6.3579247785225945 9.047181765320957 1.4673525188614491 -1.891919007538716 0.41408567720679007 -0.008163509647398844
Ni 6.755402221491216 3.2636436625054444 12.386309992431611 0.6353941531454218 0.23288923879769569 -0.8596349722395003
Ni 7.238166535983318 1.8544351002877122 0.6805741413848804 0.3382404479417013 -0.5765333742534715 0.7723287935226634
Ni 5.323833107421139 0.6543060830963395 3.716224027065864 -0.576094229833524 0.40035470077394275 -0.7541724343286109
Ni 7.124295425675258 -0.05080969563614871 4.855967442290322 -0.08057811596438381 -1.1235234876321876 0.17767402707813268
Ni 7.862808551978542 8.893657943061406 13.527225473248997 1.6026053672047045 0.17847543993350554 -1.2183334309252372
Ni 2.549429002548373 2.118010105247215 9.243120759375422 0.7153279506575874 -0.7437792640197449 -2.6552623097333172
Ni 2.2678537533477336 2.5298635196775723 2.3166165267997325 0.42893534062511285 1.3467340656895388 -0.2283083042952326
Ni 6.1242197440791815 6.575586117011951 6.915882038756166 1.1377319179220857 1.8782098854827396 0.7079046616103227
Ni 2.780972516979393 9.240283764359157 3.995576264736516 1.4526151791950854 0.34748330669620797 0.038122775013650474
Ni 4.681256065461016 7.244706997400129 1.3940714003033556 -0.509558193784503 0.1635365592354861 -0.11058494673911921
Ni 0.9092173059027193 0.8888757255447101 1.3199983455338247 0.7056950555535136 -1.4867763984578264 -1.3397085263013249
Ni 4.513123349324601 5.47281028413738 3.0640589668093865 1.6639976542692567 -1.1073419927763188 0.8853318627849721
Ni 8.883306870933092 1.2470945612882394 5.80161195053983 -1.4148855258547957 -0.6545488716970017 -0.14619575396419338
Ni 5.788466741119634 5.212142150918682 0.3415285471650756 1.1403665273314554 0.798410835321696 -0.9112840638743596
Ni 3.293774506126477 8.076640645963185 6.734315289404795 -3.3947797131529147 0.8404995369616299 2.0832440497413796
Ni 0.4881038279365102 5.635800073347757 4.077856573725518 2.7398184365088425 0.10621252870303644 0.10669486765609366
Ni 5.627890028129991 1.0200324741242932 9.527040139761915 0.44751336073761644 -1.3497168024669466 0.037881348426805725
Ni 3.975538415207835 3.3543529678531185 4.831135117768634 0.9991088340988278 0.9703045082726258 -1.1057918746803794
Ni 5.907266489731815 9.312433811669386 7.028243811814193 -0.0994502702785384 -0.2548032652619676 -0.7939070339140715
Ni 7.700806353808312 5.390178728146365 3.0121452189255282 -1.2573098121884345 -0.012997697811248583 1.1176950538758685
Ni 1.7031846007998168 7.38623997372886 11.671322030056313 -0.054332294893977395 1.0007186017881087 0.5537459440453109
Ni 7.887461060395752 9.425065774728962 8.415661084562156 -1.2960146849578003 0.2782771800141917 -1.0281941815005584
Ni 0.09747337228300867 1.5904967363606093 9.592903145242994 0.3649873770182424 -1.370134189781034 0.4496023820561611
Ni 3.234938304064998 9.340934198384518 11.055537587663599 0.89604102167236 -0.5673910456325713 1.9795357755174359
P 2.9151171943002456 4.104782404914382 9.827418749691056 0.26259705027477354 1.9882016787225505 0.30462250277693986
P 4.7339990171427315 7.934651141700802 5.5021734154781505 3.68329348329345 0.6279785774076411 -3.5783616210750497
P 1.995819006270761 5.990755200210504 6.195289031383214 0.6248598292730013 0.4686347160972638 -0.7722748003562764
P 3.6537793909492127 6.565048706951534 12.86816031936675 0.24910518643592583 -2.5905743826366288 0.22270972716153256
P 7.672613424681148 5.3344636864476085 11.771875568356982 0.4129034839732308 -0.6407829282611609 0.6549779888146203
P 5.102892221326774 1.9604800174474528 7.370309012223725 0.3492244577570308 1.1328442508124814 1.1938542148369504
P 6.4882961127183645 5.608045038361034 4.948147885611949 0.052634338366264195 -0.6129368525831702 -0.7570243019551091
P 2.48256163561326 4.838469378776202 2.866210940640528 -1.4130011643478892 -0.30282555877751716 0.22165814596856662
