# total energy = -340891.2364775406 ev
CRYSTAL
PRIMVEC
9.04789140775436 0.00000000000000 0.00000000000000

0.00000000000000 9.04789140775436 0.00000000000000

0.00000000000000 0.00000000000000 13.24250365012631

PRIMCOORD
 96 1
Ni 6.363481610306612 2.0173721735101884 11.64335244923527 0.34747456494545964 -0.8597771542443192 -0.23191119115514255
Ni 4.37460124709209 0.2442921653864613 5.951075097127635 0.9329576921930512 -0.9344329911869972 -0.35168448926174917
Ni 2.5314733678575276 1.5477232700433217 4.813941523652502 -0.5138239110393925 -1.2896144378584111 -0.607049797674774
Ni 3.465333392006981 4.18955377037981 5.110785652379481 -0.2828750837975193 1.3922369352173443 -1.438244255185394
Ni 4.975688870204922 4.742868526436078 2.594272973097338 0.766787294879144 -0.3548135218090341 -0.2576600179844724
Ni 6.990229053679371 6.223565016336403 2.7813100811478266 0.07895909230372208 -0.4265503853327042 -2.3809184033352606
Ni 4.7410137086810415 4.446486744964136 11.532856884016544 1.925168256510149 0.9573371494786802 -0.7389201361552307
Ni 5.861984128802036 8.17082507870619 12.445821707563642 -0.9698465947996007 0.18660218280569799 -0.1418924986031492
Ni 2.046343522054718 6.338925632808219 0.5103028895006831 -0.09708177004636183 1.50868965359115 -2.213969990204748
Ni 2.7821904409896074 1.4463778374863956 0.43663224263805833 -1.3558931064809874 0.12777585669610897 0.19493384259984495
Ni 0.5811596421105444 -0.1693584328721137 4.562426426491182 0.19501663212163833 0.4978681590410845 0.8519502020007327
Ni 8.888277634246005 1.9766023744653252 1.3002923910996784 -0.4431525126657594 1.7475628778864223 0.07075547344700718
Ni 7.060286877470844 0.6503135815423668 4.745252645843162 -0.781805365554531 0.924325727549666 -0.183243036525478
Ni 0.9341224130026051 7.585462690999478 2.431999039260317 -0.24919106128151278 -1.7304215902204456 0.43357926715502754
Ni 7.644074932058648 3.6742401585730797 3.4939156812175276 1.4191008494877237 0.6106267163927548 0.8043444271973116
Ni 7.631055016207437 3.815640606747318 12.706115973835756 0.7559313260012466 0.6177705265263876 0.03545859791792603
Ni 8.211730596123374 8.883817023742429 6.813083100603548 -0.29716836049173984 0.18025798575522506 0.5014340220154719
Ni 6.760566424039834 0.8645757950802041 0.7632140763185995 0.668395804882423 0.7573120083988569 -1.5828973472528158
Ni 1.7617330474086441 6.609919030764874 9.213048080050653 0.09983516442178289 -0.5473714079775347 -0.956566846971559
Ni 0.08861685881162816 5.1405143094415555 1.4577085119968 -0.522872394394906 -0.909629301879756 -0.29308056357561135
Ni 6.7359109197350735 1.954226938815537 7.0336236460449 -1.7045400944679936 -0.2812144082656447 0.2693762779801361
Ni 3.6934035927446334 4.473666610994044 0.5396623925900474 -0.6515591929410585 -0.26977737007329666 -0.4015392080003472
Ni 5.825873993873486 5.5289674346952395 4.745848901892221 0.165149926469193 0.41580111723600005 1.039794484743648
Ni 5.287207774136266 2.8469281045861443 9.492107673268848 0.1112320934048149 -0.19619085493539762 -0.4235452799577932
P 0.23617711151088708 5.500195139763446 12.428566473706907 0.44961909422670954 0.9183240014402765 0.2243873719742716
P 3.949341299265281 6.291433250387782 12.545657047031225 0.4677643976771686 -0.24140884623293263 -0.20513957948825318
P 2.5957224453137133 8.401283922796672 1.4173721069542113 -0.23964404102302597 0.43803318916132306 -0.6848277251862012
P 6.47860698159974 7.918922731789185 5.842552877042438 -0.7786519075272138 -0.8317228192102644 -0.5881547605424838
P 4.539055722777715 1.1122301569436008 12.532334931604316 1.74509050508653 -0.9612737655289252 0.5201539670224783
P 3.893226276256794 6.052469388298596 8.124527922751318 0.010906876720490894 0.38846206310141485 0.9580004940942921
P 4.576685903476247 1.2364124676162027 3.8957198751508835 0.20722705814490117 -0.9801731735365894 0.6094884890232536
P 0.5163948348395438 5.568018134357385 3.574336959919339 -2.1900864987189315 -1.0002966837593419 -1.18647514876406
Ni 1.4671789400172743 0.9515848435744173 2.5147781984838966 1.489630322966854 0.12594008903895085 0.3920628930787957
Ni 1.65413552183352 6.592393264952647 4.878723521917331 2.151665475738572 -0.1690939987186056 0.20252065380816733
Ni 5.77159569283706 5.464980746092206 9.309095972141364 -0.44818210466986685 1.399818604219344 0.22369086012787928
Ni 8.58805049889167 2.3653721759210886 10.39659733685915 0.14210050084889722 -0.7521752013929239 0.14210615727585205
Ni 2.1587364301184744 5.260706499967956 7.073417177598208 -0.49723026834676953 -0.9239171792573379 -0.40359171965400176
Ni 0.5174009603730078 -0.17616154248193003 9.126005554357933 0.44809905803775735 0.15210312058756384 -0.013374621534693095
Ni 1.4090371893154792 0.8647567529099638 11.295286397216508 -0.13752882231781477 1.2774549196777418 0.22043275820189778
Ni 4.305982038047207 7.0272620735396965 1.7894856449697423 0.04026681793984678 -0.6944413370165653 -0.9682861922910163
Ni 5.799888449519991 7.869521244264783 7.875634904543216 -0.7354859136627011 0.05371060214957847 0.5055215618212843
Ni 5.652851164948738 3.0691262237480936 4.853920536981316 -0.5640313851317189 -0.4680569892169229 0.2218923734665598
Ni 0.5243533601923759 7.068538554507887 6.89975466274526 0.22658180852242912 0.5260019411628232 0.35728075240260404
Ni 5.09140235444477 4.55866250363218 7.068954757516334 0.30255276473210474 -0.5377958484739577 -0.3028361003004784
Ni 7.988799597750898 7.127006029303249 9.118337466321867 -0.03739926658406462 -0.20994625684827714 -0.11160824579731102
Ni 4.749455391439331 0.5525728289542541 10.180347301561403 -0.8665358131243914 -1.2218154759365667 1.3394917823048287
Ni 8.02202345529478 7.069235242152462 4.533372742134112 0.8539646613276002 0.08998783931405792 1.6983943865815718
Ni 7.321816180931066 6.085494192229744 6.998358584181326 -0.9510510593596524 -0.5870774683179051 -0.7877865228386304
Ni 2.410358292399353 5.241660688385746 2.430965770052389 -0.47425823293162844 -0.5191790047037188 1.8516992407867205
Ni 2.3943163807911545 5.256164458440987 11.191292646821047 -0.6935869594360701 -0.2690001255876399 0.6828911702851206
Ni 1.3301848149976851 3.2771915364058097 3.6667964582459143 -1.2593911201974957 0.4887870226754227 -0.039187468832738964
Ni 3.6327646239921543 2.855957900291154 2.8539185055497622 -0.7230685138349547 -0.3062698085723758 -0.8702880810779723
Ni 0.9086435505724378 3.2739704870360864 8.307869871918113 -0.04550492641033454 1.050445536699591 -0.03650477979425326
Ni 3.7487766886511054 2.408051080069917 6.546855227093616 1.3230899439080375 0.714407495725847 2.4842176150462443
Ni 3.9531866531476743 6.817513853065216 6.03739017234472 0.34636102016630677 0.05752097703460416 -0.41765076885022906
Ni 0.7725913110567477 7.348073162029201 11.246872034653446 0.10589345480072086 -0.28129822622870265 0.8070093756239842
P 0.04378727085610611 5.359572810257174 8.111735108976456 1.204766233763764 0.7610318804526055 0.5478722588733532
P 8.61032640773509 1.5611141494455405 8.144788866160365 -0.19579850459298537 0.05020387454790064 0.347859201978388
P 1.7991008392540244 3.203559795476583 10.444905839091804 -1.2623604872384646 0.7973338002074333 -0.3087686637348295
P 3.801770189096236 6.153235755800291 3.8257860074727965 0.9041405108510429 0.21092096205672062 1.2074607498767915
P 6.8221463735070635 3.944165905334153 10.549693994359908 -0.22907757836108933 0.3610939555011072 1.7317958448601527
P 6.09674072134931 7.765886695161398 10.181167945319363 1.2198292987444734 -0.38062431222455095 -0.04155185529985747
P 2.1420068787571895 8.37644746066215 6.033391004307029 0.8928772792323977 1.2332499430257535 0.3826017476658959
P 6.959448126837244 4.390426009304576 1.5591860437694507 -0.6522132815852897 -0.8380557034068277 -0.3787062692662317
Ni 5.486369961569803 2.990907201834459 0.4518173189223445 -0.33486047572587496 -0.032438837254995745 0.19081982043147136
Ni 1.5824128860082585 1.2415878615473306 7.311159574336517 0.460847101732045 -1.328825560840234 -1.1647817229510262
Ni 6.886594504575985 0.772814793976501 9.174579159811184 -0.03211693513920276 -0.25788010441507847 -0.042847691293145564
Ni 2.8857345111781143 1.8979581016517548 9.253729209758932 0.14930704589966542 -3.3140473309988536 -0.26481745496486003
Ni 6.070447548685223 2.207305511625981 2.6658218894060304 0.510857886432533 -0.3736208843235243 -0.2921475102383807
Ni 4.031242813014527 7.032663664758024 10.32823961187827 0.5309829393171822 -0.8359839084794634 -0.3914553414017839
Ni 8.09019931765675 7.248238727350767 0.39370361668416204 -0.543930757727102 -0.6377886215195274 0.24774250176044435
Ni 7.4551911493554615 3.984537597153545 8.53557453783965 0.40881980082216046 -0.957586546485325 -1.3910066623546689
Ni 3.1491910155252776 8.339432536584802 12.18657337754754 -0.053472003776211134 0.1255726783972031 1.096663172906234
Ni -0.012087983027948708 4.709481806845412 10.328782485367551 0.5009933349336274 0.7127337075678499 0.18069198796885008
Ni 8.741801318947008 2.0898819758949045 5.838275938736068 1.1865003455750402 1.2490519430550167 -0.8898176664704674
Ni 3.3945245932220063 2.6990493661065083 11.73528174112065 -0.03574630436167392 -0.03634254318477612 -0.4550045269083389
Ni 1.1194413264595253 3.3255796600835565 12.629693863171633 -0.9506517670387048 -0.14119727230833748 -1.1523715222121316
Ni 3.3175994197911534 8.28922578671797 8.081542295081046 -0.17491266228291166 0.28231921129404924 -0.7372622888368334
Ni 5.512699325799842 8.059590300752896 3.655169012894704 0.5682053140037504 0.029803199404361574 1.080221739520759
Ni 3.110818907724731 8.323408720759579 3.7144824655441933 -0.2593996263833985 0.3033153539297421 0.319708707686101
Ni 3.3603959465293247 4.015463290259479 8.919037750937711 -0.049432800709831 2.5413632110193007 -0.040830917973432905
Ni 7.425441682142965 6.326593356710095 11.427009220655195 -0.45135767418437106 -1.0141826977128146 -0.18293964635244625
Ni 0.6666929795030672 8.771016960561713 0.1538304415004329 1.2422894275202023 0.5712512999189259 0.24766511155528956
Ni 4.514210212751707 0.4423595579499532 1.7185727954326555 0.4623740798995328 0.07338699753258329 0.23697137928686926
Ni 5.962289053837844 5.826290196881933 0.11266163044094979 -0.17642935603775423 -0.06332215709741353 0.8348284547187815
Ni 7.877664346603971 -0.32402399475688765 11.085326456081207 0.4812909714086937 1.104189563190266 1.0546850287022351
Ni 0.03131475243991802 4.800639313586866 5.626871954119285 -0.2438681064067026 -0.7256776693230276 0.0851402814137695
Ni 8.04170261928115 8.775133751188747 2.6662589025649 -0.05241579459755489 0.4009691944294901 -0.282630571886881
P 8.730590981393394 1.6054307219536939 3.559055071196131 -0.6133006636804921 0.9508587408431881 0.4790955064192716
P 1.861549386304101 3.3569848914383544 1.3277599800789048 0.9322807207306848 -0.6076830603833986 1.915450515001753
P 4.775703324645978 1.1166726716642017 8.077093446836406 0.6983887517000875 0.31575049436930136 -0.8549095417393728
P 8.6063272396974 1.4157235811251005 12.516430547946735 -1.1851949965000554 0.021348126658472914 -1.0480554392008594
P 6.424319632671827 8.041937864459838 1.585604077336071 -1.9750774826357664 -1.476937557990534 -0.4595209267214538
P 1.7745991491045598 3.1852197194304366 6.113957954061797 -0.7717888618587934 0.5641758811293832 -0.03983307283653785
P 7.07777645171712 3.897949275613523 6.239311966682092 0.21023422040234116 1.0853636887330145 -1.1723677628284004
P 2.5775904707717903 8.609231612865043 10.039128716006074 -1.5869558335929057 0.42647916577513645 0.5803188094378329
