# total energy = -340889.44681026635 ev
CRYSTAL
PRIMVEC
9.12407573344557 0.00000000000000 0.00000000000000
0.00000000000000 9.12407573344557 0.00000000000000
0.00000000000000 0.00000000000000 13.35400711160596
PRIMCOORD
 96 1
Ni 6.547536974588664 2.02783491353854 11.666273828570805 0.23223335038125165 -0.27367773356896735 -0.6853159776765294
Ni 4.597274951317906 0.010254548502935713 6.003159956197832 -0.24688812417994901 0.5976192483894933 0.4698994417423004
Ni 2.6222501870230635 1.27640342403211 4.960572829256906 0.5480668913826626 0.3366185960675622 -0.5953875308454971
Ni 3.38410137079976 4.361983291211396 4.856091215397295 0.05806425113258388 -1.1450101967510538 0.590782170863002
Ni 4.8743731255630856 4.696918980324544 2.532333334952967 1.5464804991866785 -0.2387413267030985 0.02246912763679356
Ni 7.4999353520083085 6.324343838652359 2.628335945410338 -0.9738734565708066 -0.8289180027716176 -0.05462257244088658
Ni 4.993533552156501 4.812219922963211 11.398179292071596 0.23542048985998165 0.4077407088253687 0.07630108585558473
Ni 5.771351868133694 8.135728308080976 12.734982271384187 -0.8667368733916042 -0.18965922446446692 0.5125350170246399
Ni 2.0376797910495887 6.374526254139632 0.2942833705306851 -0.7301868700472909 0.5521513458646814 -0.28160238773268276
Ni 2.76110949271412 1.2235659025617829 0.3146154604710196 -0.5401993157091277 2.4324327691644685 -0.08933400778014293
Ni 0.7896011471336042 8.786986572199265 4.374358274870557 0.252822487386513 -0.37574204443158515 0.9683193595217969
Ni 9.042095724385474 2.508783183568567 1.533935018275025 -0.49254160462184854 -0.08443837025073844 -0.21600608988911188
Ni 6.800949048723851 0.8194961806507044 4.999592850724701 0.4395231434432882 -0.0360131848698154 -1.0202173339426688
Ni 0.8649258651875558 7.185948540342212 2.7138148471362507 -0.1643793668517556 -0.24712749388426472 -0.10071885257831686
Ni 7.8106192483277885 3.4233166474841776 3.8368598970316996 0.3019585827915316 0.9102926464953677 -0.273681076003077
Ni 7.765491570691417 3.9624582713283556 12.691047110421302 0.9879898413675307 -0.48645966009382674 0.12344997562724545
Ni 7.839861910443554 0.052197011367198703 7.125457744306297 0.22198647584226283 -0.34494768475854787 -0.8022674900636247
Ni 6.909479927309508 0.9028418735146307 0.6523896494856387 -0.6186246469965668 0.07768073981193074 -1.134923244828697
Ni 1.816192857239851 6.569817967065014 9.110237057764312 0.5596255427545395 0.10317605586955779 0.04722165199112512
Ni 0.18297421094214145 5.281252150333897 1.3673430849705923 -0.9524163151382953 -1.5075470553462746 -0.6962665631507622
Ni 6.153960851959752 2.1958912609676466 7.013711541499238 2.0480343346094663 -0.2223302323349268 0.5540529337627684
Ni 3.6397853397451887 4.506682005250063 0.15407735128946087 -0.1887310562232427 -1.14491018083808 0.4029103773162609
Ni 6.039508448346597 5.636525403832706 4.80176738202099 -0.7147057436925562 0.6015905743324155 -1.0093163707594488
Ni 5.391288501384173 3.0370762815919505 9.297901043535628 0.26940893099028435 -0.37771253789439463 0.3710346116535868
P -0.032583898579663685 5.78449966099136 12.575801824643447 1.7689428862240952 -0.30655751501612366 0.3928655914857492
P 4.03231219368664 6.445484189638637 12.688857332290949 0.7259574053469756 -0.46041695617316186 -0.2434132782574711
P 2.084103087413088 8.34363861748252 1.3777463559048815 1.862539011714702 0.01425625280869803 0.28707189548768625
P 6.489443985605488 7.8819238986974325 5.835193937116603 -0.009936285277105467 -0.6262965617195279 0.30580341045891846
P 4.807694381493813 1.3027720023517864 12.868895415723307 -0.4501032329519797 -1.6087472184363845 0.012459051698959188
P 4.221518148224747 6.109024779909784 8.402634889944467 -0.9492507729261199 -0.02988984558089691 -0.4090404014733987
P 4.841873168478418 1.098191980523488 4.0665220025280915 -1.189624493026319 -0.6152094506674307 -1.305818044201467
P 0.30651236898115647 5.155823483842343 3.568431419367612 -0.013427072039183328 1.1295894913206093 0.9572936978352548
Ni 1.8196965022484168 1.0413033695120066 2.572262114344859 -0.5249675863610378 0.4154028533563169 0.0729321693833518
Ni 1.9658276961473566 6.275484414118841 4.957101118512741 -1.6144370697323098 0.7022770310109001 -0.5229901509196928
Ni 6.243221682998296 5.972601602388746 9.449936426718534 -1.048964067058058 -0.5399008106321024 -0.4831941019686775
Ni 8.662953889265811 2.63787060435292 10.459498962231063 0.6384733062913779 -0.7596229159202208 0.8297898638536096
Ni 2.208062777742196 5.058277992210627 7.1689385263071355 1.3697634367051765 0.3896082608907161 -0.305774356993196
Ni 0.4722174421427957 0.2566337852094698 9.341768686339494 0.9049200693295446 -1.8306532187496987 0.7926999009798477
Ni 1.4204087083294983 0.9818052728951866 11.653814903416645 0.5090120914730459 1.178497272764906 -2.1543880168760574
Ni 4.387028878577317 6.767171721063145 1.5489714947701205 -0.3546767391208537 1.1434359102853984 0.24252290523271783
Ni 5.481671593714523 7.861787063973722 7.984547850776461 0.3384996151403589 0.9993176076755242 0.5032710752242107
Ni 5.3817082220638754 3.040151095049989 4.749446283226405 0.006332369975931029 0.5105030741962757 0.27783675004266345
Ni 0.4410267898985696 7.313804210928241 6.886875030151378 0.7592403357698215 1.1948284058247616 -0.513758862129412
Ni 5.18103330456804 4.577804174108843 7.090403046069553 -0.46901523936513423 -0.31611867634199753 0.14332048929892738
Ni 7.916120933833124 7.520729120171127 8.829668997590076 0.6471410092687049 0.03230771099377017 1.0150455599337422
Ni 4.5456418078192735 0.5868203930024132 10.763223013726236 0.09814697808608258 -1.0526356023723744 -0.36980048213616956
Ni 8.326220757270665 7.062892133491874 4.767594069481711 -0.45133684824876463 -0.49993686864465514 0.22416085778576234
Ni 7.098913983736193 6.071962785053547 6.950760894696894 0.8088608270104262 -0.15142769178709406 0.3845002502401894
Ni 2.388664729043121 5.036973275817394 2.3327578685600816 -0.003698789007825888 0.29008060040702305 1.2856960766406116
Ni 2.571693684438521 5.321617060536751 11.230372944312371 -0.24789085441285047 -0.413759661325939 0.9146372966173086
Ni 1.0571245165038123 3.115360849752097 4.021626076410514 1.3851525175667372 0.2385418090977827 -0.0654857404076356
Ni 3.7162998372499656 2.728080339247951 2.9205609244984907 -0.6074925416391473 -1.0081958840017604 -0.13667778717142912
Ni 1.0702358130593053 3.328490130364318 8.38989494326358 -0.4406562286064669 -0.2778524337719473 -0.034850789130598046
Ni 3.9511079213526887 2.444932902917669 6.6980623232691805 -1.4634240968851313 0.02612215100834856 0.5638107844804806
Ni 4.074821261642132 6.7677556618979064 6.160710843046567 0.14143998444676287 -0.46269186825026765 0.12371377081159339
Ni 0.8652999522848245 7.422809541442141 11.373968557617872 -0.4139082710886614 -0.17095547740737654 0.33782264367799236
P 9.093847480866168 5.725375651471809 8.182053064428608 -0.049287533381218336 -1.396549446549769 0.8183903637674165
P 8.616630957733285 1.6957185637682224 8.33211217284887 -0.20580549520702623 2.5272763939089313 -1.9197388579644614
P 1.926521178707507 3.151136349956751 10.560241529933096 -1.5287717690530058 0.5230492862924024 -0.3868394398963273
P 3.802148264035375 6.171725427042246 3.8352038773206196 1.534120692069745 0.2578019428789754 -0.7250899151403577
P 6.886678862527201 4.153936120676704 10.667848139666232 0.5394027879497614 -0.4016111988888632 -0.8303971584203054
P 6.2105574925538525 8.257945299981342 10.557891168073182 -0.6171256938535371 -2.283206713014384 -1.1942406516420918
P 2.3202250383940233 8.274897832340498 5.886112665500208 0.05520698418944686 0.4000690512127239 0.6978025401793143
P 7.103767991925144 4.1265730181228255 1.5288337476388552 0.6038240916486246 0.35133636189371104 1.2703213939567541
Ni 5.643067365997137 3.014576311302566 0.34875318911568015 -0.8433256935565153 1.3422693450499656 -0.21218491637080877
Ni 1.286969103511067 0.9864585514221884 6.9775218082649255 -0.5780390122647207 0.33863022718095226 0.2822577619284945
Ni 7.022280873249356 0.7546942589206569 9.346883643088978 -1.8738888895098824 0.6180618325145614 0.22881995382432851
Ni 2.970379289371593 1.665508749644884 9.1720125236367 -1.3420343462210242 0.5244906467246193 0.5428714632246521
Ni 6.214353107979799 2.380078973957026 2.5846945796799425 -0.43715747142458905 -1.1279527270481349 -0.387160827791488
Ni 4.0331242364099795 7.11595775685078 10.557691350818786 1.0749288665529357 0.4295732313194279 -0.9900894042090367
Ni 8.084159033111144 7.394570527636121 0.48722745881881635 -0.7921211456582422 -0.7279538669517139 -0.9273012652382223
Ni 7.680135843985336 3.834566104440154 8.571736856430817 -0.09559798641198373 0.5532399509431698 -0.96111538557419
Ni 3.018536160088289 8.379058278740992 12.537649502759805 0.388642297433021 -0.43414465274019426 -0.6030399051844323
Ni 0.37550954064593994 4.989929542316961 10.394946127763344 -0.9033691799026572 -0.04773972927812423 -0.05358333254309481
Ni 8.47445961262007 2.2553163649801213 5.994774018366132 0.6995732589264919 0.78383499439005 0.42682137960590366
Ni 3.805442055306449 2.739759155943171 11.333705837061101 0.4136362483741973 0.25720518983524093 1.286846645305287
Ni 1.2297520257800325 3.5568657412091267 12.711412047033592 -0.14305412301141812 -0.13528682036117348 -0.032741713207395225
Ni 2.7910638327222506 8.691621734622359 8.057206513956707 1.2348350281246863 -1.0562420887767099 -0.28718990912278924
Ni 5.587711599676903 7.944113597599479 3.782161976558126 1.0401804073281569 -0.49842763108898036 0.1311617424492064
Ni 3.3673221958759245 8.35581013425707 3.811713944834804 -2.010374101054531 -0.3016284531456225 0.02774888797849415
Ni 3.3613185541685375 4.26333378643896 9.172920369153243 0.0014542159480233018 -0.09721495319011646 -0.0934904531506777
Ni 7.367909978899065 6.28451724890655 11.555716492807017 -0.928808188801052 0.3700074559406531 -0.3692710919952608
Ni 0.5433660708206518 9.050672355396028 0.11904911287178983 -0.15441762765335343 -0.8677010370770862 0.781211440724274
Ni 4.2319195943439265 0.15830088585838065 1.7491208655146702 1.389885147155716 0.24510275014475208 0.32161080980482026
Ni 6.06993724028297 5.558122222690499 0.24466938494974952 -0.2598408276858751 0.6711052333937862 0.20192801452949094
Ni 7.963830724848206 8.821466453676791 11.42026685414643 1.5380138564765642 0.9284299795260268 1.2732172274473104
Ni 9.27772497528708 4.856188843005606 6.093059472524397 -1.073949276248486 -0.8498316129958333 -0.7564416899787618
Ni 8.208803029105988 9.010343941495346 2.213680471054108 1.2921490313548067 0.2003773822129194 2.2772011302502526
P 8.826968271229306 1.3513212083168376 3.8418671896897747 -0.7530432058201741 1.0383166146465408 -0.6454055146348369
P 2.135061049321528 3.149877227531798 1.405068400118816 -0.25514830730621224 -0.9818850140213734 -0.1340434348723756
P 4.757785688272834 1.0421884048396912 8.318264563397046 1.2240826747041884 -0.43706156927667306 -0.7721655284719218
P 8.694924649968975 1.6037205100667358 12.671016114973892 -1.3690581831080357 1.696679203662678 -0.3771312114696279
P 6.286342064015179 8.078502106274398 1.747171050571101 0.08499424275420846 -0.18418791693725053 -1.1562806274585504
P 1.9270777473156384 2.9999504182069114 6.153619611534438 -1.0215710197570858 1.0719170763098056 0.3315172702852548
P 7.006970674487966 4.015770244726927 5.769358257627518 0.6656794343925245 0.07163273384563792 2.0786461459580523
P 2.339057130315066 8.48375704559853 10.204771196402556 0.5312364500888851 0.9782507597028959 0.5351895211993623
