# total energy = -381166.73119777144 ev
CRYSTAL
PRIMVEC
9.25025613839958 0.00000000000000 0.00000000000000
0.00000000000000 9.25025613839958 0.00000000000000
0.00000000000000 0.00000000000000 13.53868488876155
PRIMCOORD
 96 1
Ni 6.928090429706796 1.724257017295639 10.183690369976151 0.40181688714176605 -0.37544379646487597 -0.5767151512469746
Ni 0.8983266114481333 1.9795825906101288 12.155261313638679 1.58806860704111 -0.6671413636500316 0.5855468906059915
Ni 4.591096437686433 0.6909404912059695 0.669325417401029 -0.16738987154330529 -2.662915455403201 -0.49639286004713856
Ni 8.274751986430827 7.286241851617905 11.945507127793714 1.0744069326111947 -0.06088860795525643 -0.3968348605461424
Ni 1.2093877538116702 4.623666589981206 11.456056643489186 -1.258832162370232 -1.2951428238758083 1.9223400430327346
Ni 5.535455099365887 0.5372391581998021 11.467063523414078 1.0160943129132307 0.29082004967620884 0.6174982467016076
Ni 5.797015345400251 1.8088043595206384 7.887529784168461 -0.2796501491023184 0.10129915056181908 -0.3524457929078059
Ni 4.352236320516418 5.2000963088817365 1.3398866690385196 -1.450100897413664 -2.1111338341731125 -0.4796030421833095
Ni 6.054653482779975 1.5577524045987032 3.7812873784504952 -0.09949217926006736 0.7058894309525069 0.10532087012670248
Ni 0.12195352849299224 8.057777975574199 7.567272037030296 1.779229355751768 0.044455916320529885 1.7849824561854613
Ni 7.912900462015343 0.6940014010027148 12.232296522754169 -0.2360082440426516 0.5328739856923081 -0.653235552202217
Ni 6.881913150452179 8.160751828270993 0.10967473833221932 -0.6136138240455368 -0.12083773481537899 -1.2413836278764814
Ni 8.320661008253877 3.0998441253476336 11.566192969608824 -0.5268771446789249 0.003954870882689963 0.1310694398457162
Ni 3.7085294878300648 3.5698218951972565 2.8260513404338017 1.0140250890890279 -0.46763918495321394 0.2796486064404216
Ni 5.617680627269389 3.193974733058968 12.235627540033734 1.0434292532827578 0.28157539114948926 -0.24935792587668026
Ni 7.0015837156999705 3.0451473600766903 5.9908951664758145 -0.2946309387818668 -0.44048293625339624 0.7532954310402962
Ni 4.947703066801965 8.944146780753814 9.040091363717918 0.6292646432089163 -0.05171028389009803 0.8302187238609121
Ni 9.12865239213454 8.669275415959957 5.342852738679958 -0.7162913430121213 -0.10026068199497572 -1.0699617523556477
Ni 6.253478490852639 8.30506507619793 4.293658147718384 2.0625842073991834 -0.604208728681553 3.6138649561879825
Ni 6.652127534674147 5.800141932016449 4.7066154879243145 -0.4760379505398704 -0.507016915419888 1.0507648677122228
Ni 1.381655276159172 6.790770375513128 12.359532872597784 0.07301238780198394 0.8181628211376425 -2.0757333431866316
Ni 3.488317887282107 9.078173743718585 10.87317487084665 -0.8179607324291654 -0.15739933598949665 0.577258168234638
Ni 6.1018482902232964 6.947534468367293 8.499695093056257 0.5238959505634139 -0.6852576136347682 1.0946068045978374
Ni 6.193805087713309 7.290552471035502 11.038577778022907 -1.1552552715178297 -0.2325143719567802 -1.3509277920559122
P 6.990187399986491 5.530829971235415 7.162370745002018 0.5763585392385042 -0.6999941485139944 -0.9394821235751305
Ni 7.52835805899177 3.4156201233273724 0.44471902010349756 -0.035287876668016645 0.31637450110654547 -0.11921202628649794
P 6.340588154061919 0.7527997298997593 5.9520255896673415 -0.5187737988455001 0.06841705512181767 -0.20466135430025398
Ni 1.645879595996687 2.8774587145783546 3.1473654668369653 -1.6695736056951374 0.13151732601641222 1.251534086046922
P 5.220474623424589 6.35740511994431 3.004585911398091 0.3591314324580976 -1.4619382563682242 1.3943488393540244
P 0.4779968170022324 7.285168821891635 9.932331306546352 -0.34359245628223406 -0.36000946418767676 0.8508124888518637
P 3.327428180135562 4.092775882653288 5.5163375947514 -0.09319709027997498 0.113917610656778 0.4390066088181858
Ni 7.22062978395905 5.003981625893529 10.928033515602158 -1.6832282203640945 0.5928046006096693 -1.043738042772428
Ni 8.010888426587488 0.3091898155219486 3.345043443133272 1.1133066950001858 0.5374649474971 -0.3729153736160674
Ni 4.538665985199421 7.335591968770023 1.203045778119169 -1.2071663585648242 1.9875190508332288 -0.4876475097543408
Ni 8.911382373077561 1.8646204057991558 5.193778383855514 -0.0751623442654512 -1.8110971509946423 -0.5059627631237609
Ni 1.596732984482308 5.051564944099809 4.093949740172801 0.6449162337032442 1.0577407848094236 1.7290033697166802
Ni 3.8891499915811965 1.7480764271675617 4.943596878047733 0.22788638626646562 -0.365904232405557 -0.14542313746422697
Ni 0.7817354565096085 9.193940700824262 11.118956954776726 0.10824164331792326 -2.6242686895652803 1.5634114706140623
Ni 5.236967830337846 3.7502296430543858 4.6233123051664125 0.20766311724105527 0.7464159303116435 -0.08359684818604958
Ni 5.081813282073085 8.00038013547506 6.567954827827715 -1.9758706679610227 -0.7621855344410744 -0.6355592179683763
Ni 9.058701954289306 6.451017713305031 0.9520928009392261 -2.483441656112168 -0.36758496254208956 -1.4210338048443785
Ni 7.717442547221663 8.323722843076249 9.489305083338607 0.6597142179480251 0.7322720347110936 0.5353383880724005
Ni 3.6635547418893704 1.932646790342115 12.097938400615256 -0.6410318110471734 -0.11750738489056538 0.3437593208774015
Ni 1.5563186148782575 0.8575672072855495 3.8601495131775203 -0.3792022350660437 -1.702971978649925 -1.9600925791911596
Ni 2.0356483938076915 8.473743499116187 9.203449039234883 0.21108422710746225 1.0896769713963879 -2.236693399944193
Ni 1.7202424060783905 7.508127748549093 3.805088287809896 -0.7209447826237325 -0.21369672502964487 0.5403461256996371
Ni 7.091690461937795 0.9527301435956048 1.0121833906359239 0.6643635437945783 2.015735108256129 -0.26352881806042355
Ni 4.107668795233402 6.1476000576899095 5.19132799097199 -0.27599841128234404 -0.9021319650614463 0.42760196652567006
Ni 3.17580722976248 6.701190893882177 9.991468194822549 0.5481478811322431 0.4133583121224623 3.151104953703941
Ni 1.8807436024619757 2.536494268800074 5.776767459470676 -0.7885411416164678 1.7819966340842601 -0.20412502218080975
Ni 1.4411714249420655 1.2665913385293284 7.716658125490735 -0.2588162430761027 -0.10925928594916022 0.9191971480738491
Ni 2.6642680585324503 1.9449403809129053 1.0760490099127118 -0.7437517532159191 0.43368648215685307 -0.122451359159402
Ni 9.216511326100957 1.1850410793328738 9.574815377240371 -1.4057439685648436 1.7239030723756374 -1.1653198548426835
Ni 5.069547442271078 4.37290139300336 7.091170597535931 0.7498622369890312 -1.273487964610194 -0.6188071953210181
Ni 1.5655318701141545 5.241676210774666 9.396050474895183 -0.3227073853031087 0.0006700294838311041 -1.951817740776877
Ni 7.004284790528165 6.706371037388304 1.8193552018118677 -1.459116984869345 -0.454490820496714 0.5251452495894826
P 5.013407637023428 5.537471655230771 9.909139989074548 0.9833975940111579 -0.21064251158435338 0.7721519016251669
Ni 7.891523119796309 0.5878870863053316 7.583261104977333 0.3500184144132359 2.6137526205253048 -0.027602335098300852
P 2.5698044415957217 7.811813661595782 7.050405643219591 0.21709109542317448 -1.3164793805700554 0.6725242252284999
Ni 3.8374688098513197 0.47913089841982376 7.177005575432453 -0.9878450882595503 1.312513968164404 0.23378963912477801
P 8.294492033291675 5.207320759021531 12.745792123183387 0.4975552557863559 -0.8412269020459577 0.8163723048961231
P 3.86106621357298 0.7224320636207167 3.0623149106713705 0.5056997392703614 1.472856960163257 -0.8996971303677086
P 3.929240602216114 1.7703695447564292 9.075400516891555 2.359466146998756 -0.8486280796060353 -1.8272207960293823
Ni 8.436150457671724 6.789752847324424 3.724546306545884 1.6105984127125104 1.674751036131019 0.7420031459559285
Ni 0.8207271367007265 3.595759613752935 0.23998032320321505 -0.940157038154968 1.3759060592678047 1.0542798228440164
Ni 4.930220082468786 2.77467911726304 0.8520475793746461 0.719302104813987 2.0071630503164015 0.07051661796332372
Ni 8.367263799296497 4.896993161979487 2.5517988177838005 2.0295789561177564 -1.9505365600716082 0.3105599513072974
Ni 2.564633548345856 8.786864673549037 1.8917736080275216 -0.9081794568071069 0.1689034799743543 -0.39382666984743786
Ni 4.133680515839168 7.976486723553051 3.7804345048232366 -2.201728968053866 0.4077450797007429 0.13661042426860345
Ni 2.966325926477213 4.08837276067308 13.039242627677345 1.0764458174180946 0.3618704286558155 -0.08737071340618502
Ni 9.186179735821332 3.0727131237342946 7.257222872701707 0.5184151299545007 0.23128564175600166 1.2837009005874536
Ni 6.237725304440256 4.276596975070705 2.368308884540525 -0.851978741245823 -0.773027876472217 0.7821568353566788
Ni 7.243514917948618 3.584298546245629 8.532417874579336 0.6549682186226075 0.8925561484475532 0.10864427807298065
Ni 1.871299090819555 5.229604626354138 6.969714732829776 1.4585269166938302 -0.5326366728705213 -0.421207632963552
Ni 2.292324504536279 9.206354544726443 13.00921444580308 0.6839463510225124 0.05521803993304039 0.13871127266169014
Ni 0.13294468298224216 1.795604243836276 1.7516618264943022 -1.0812100715759572 -0.4574234207624768 -0.19550051373659233
Ni 2.2380347505408165 1.6445013078138067 10.003625806626303 -2.369533815647403 0.7798644397780762 1.9739006887188455
Ni 4.701488995904501 7.947607423506393 12.570669046728133 -0.4557000103134668 1.297485613076372 -0.11906881584041429
Ni 1.823114505956314 6.6883145371669475 0.9674288007942399 4.7310810135449035 -0.2698169650619805 2.1459499134110334
Ni 5.761873621864936 5.822879061905842 13.1436400948127 1.096737734897911 -0.4903859917314264 -0.5430455269086712
Ni 5.206284730320306 3.270307847724252 9.890158463227099 2.2566888692295137 0.3172101096339634 -0.8358311849516831
Ni 7.216023156341102 7.986847010565305 6.6202141505739 1.5651554498883626 -2.1164279926925165 -1.1262583700648474
Ni 5.934252147287569 8.766902620537927 2.2649270955426237 -0.4756697685671743 1.1747961697642348 -1.0474332322358284
Ni 1.9508235438948636 0.17927274141391233 5.849077637688078 0.5061509678751671 -1.3762433880025653 0.061203568092513955
Ni 3.980875532664686 6.013869102925487 8.070707983775742 -1.2802831331551563 0.9804850483500535 -1.709456557933004
Ni 0.032871710648879476 8.85306875760859 0.19414160332774869 0.4188563591225561 -0.34041688676772985 0.7125814982607018
Ni 8.611951577910906 5.829039732575628 8.863668626258002 -1.2952518386498468 -0.3428812891478224 -1.1978422529504211
Ni 2.799960067624192 3.469012602465523 8.18031704528851 0.21828023063526927 -0.7592362220047634 -0.5951936696671362
P 3.501083240922205 6.302541850060669 12.814501176638405 -0.9292601887368062 -1.2642715882182485 0.5933838701519071
Ni 3.276302013781342 4.003973422548255 10.445298717343073 -1.3511625337745374 0.8426816322146132 1.5174566011505028
P 0.21143310735632542 3.4482642776722328 9.701957374470124 -0.36370105410665104 0.0953375336617455 -0.7612457962356244
Ni 0.3693645825506211 6.355758574329862 6.012584242330843 -2.0707225202356017 0.7998935905148095 -1.6394703585518537
P 7.964646395539046 2.8636388317245087 3.369115385001118 0.004343364570360261 -0.45825440130420436 -0.09080030791302426
P 0.16666464213024992 8.274206221311433 2.3877362727397533 1.1321215137138438 0.05109270491075716 -0.4092831136118242
P 1.81776785783749 4.6227230638425905 2.082358487822938 0.2508846469338518 1.2563937281320683 -2.8075590343889263
Ni 8.99553195428334 4.115069000242155 5.185938791674366 -0.3861400998364576 1.4227932107376464 -0.9839478100876731
