# total energy = -340875.06930811127 ev
CRYSTAL
PRIMVEC
9.26884148526707 0.00000000000000 0.00000000000000
0.00000000000000 9.26884148526707 0.00000000000000
0.00000000000000 0.00000000000000 13.56588642254712
PRIMCOORD
 96 1
Ni 0.8968725674951737 5.674078890658822 9.769554506889445 1.1928129180566298 0.602041288716589 0.538400314827176
Ni 6.286406366255504 2.1087633970675963 2.9310857455449892 0.9618720612345563 0.7128779464551981 -0.22021807108793043
Ni 3.036667118999446 8.892341152202357 13.37833808643356 -0.7000039187060073 0.20282764352562488 1.1022650924740436
Ni 2.7889665989224635 3.6715920301577083 9.07895629929942 -0.9855804605950897 -0.18450184863324354 1.1710729552763768
Ni 8.522996356362379 2.7429189943818835 12.759747654639604 -1.1400700791369591 -0.005104925326733144 0.34450056991880024
Ni 5.416025074633404 0.8384575477495829 4.966688322934706 -0.689400175048232 0.37888881759068294 0.9581267352595111
Ni 6.871177576091488 5.323522036526523 3.935314669640659 -0.9329435511256643 0.4050060835030251 0.5735208126793929
Ni 8.137097409614693 4.58177372715365 10.817153267218172 1.16803571111195 0.3828840547930051 0.664382569957972
Ni 8.526055074055291 3.5516624900710414 3.3985393748272243 -0.13848295870096797 -0.16731479533099572 0.2467253733498396
Ni 6.604698383148319 8.905855123100135 9.228017808200711 0.2969390180897531 1.8601825956673836 0.013669527067292585
Ni 6.762583829151587 4.642076809911503 8.77874315774002 -0.2896172876173592 -0.7510845394319065 0.2507563488861036
Ni 4.939133910942307 0.8055475991421388 11.886416090770066 -0.5526007746972742 -1.417751791658997 0.24510994923360369
Ni 6.135546702104442 8.40989795245655 6.8355926398289695 0.24645463618695618 1.8722868351300852 1.780794900466675
Ni 2.5389674061550487 8.044103122908648 2.2617864088232817 0.3080328140100695 -1.0114601565753292 0.3560062565655546
Ni 0.6582944412162662 1.23233882079162 4.070430279630563 0.11060937221915144 0.6894451693535545 0.6264996788692695
Ni 2.9374719773341313 0.7384133802034476 8.985066642505087 -0.7941086084019162 1.6565900489512762 0.7253719651571507
Ni 3.337997155958835 8.17113259557947 7.637281620257291 1.1860429463226476 0.7277013846212759 -2.3495270335081733
Ni 8.98311091694992 3.274190451116373 6.01439460182476 -0.19660634520626138 0.10340154161680255 -0.32756985560173263
Ni 6.722579509264883 4.3263707997954235 1.6008290294458827 1.0245838384414807 0.5173365521783413 1.0745357448795754
Ni 1.7609037758099566 6.629881825486635 12.130995791916128 -1.7352560354946116 0.39621676734616923 0.27502139208105536
Ni 4.150837479588198 2.5243040989120544 2.1156408774559035 -0.254873970598903 0.9551789654850968 0.2874477907698662
Ni 0.9103513167952766 2.585367226672388 1.1303018523243444 -0.8352511440784969 1.2468567351759108 0.7994228215259781
Ni 8.446305961843708 6.062322854304406 2.362051174796967 -1.0083583777215537 -0.1132601795784372 1.1237098926113809
Ni 7.620535604330668 0.5082346780861088 4.173938213242885 0.059469873230858866 -0.4962933583547969 -0.13740540936607304
P 4.665508441207514 4.229502137345022 10.081379653072124 1.0704358637785887 -0.2892578473954115 0.10761018038151143
P 1.4165941208443944 2.1491199329310593 10.48154612753102 0.2005452752493514 -0.07990037317106885 -1.466089045311804
P 7.030388466428351 1.1367399896258514 11.071241872852596 1.0103489257890212 0.13879586195569646 -0.613858078845859
P 5.319610585416191 6.3113951629224525 6.570148776480644 0.2616591118415365 -0.8985434763792396 -1.1072795149694994
P 7.949894617966931 2.5000290030401184 1.4816391429104114 -0.3741731572825685 -0.035140809567191095 -1.4484947292688086
P 8.883934312967593 4.377988978073702 8.713490513624546 -0.3078587503260504 -1.4891526119994871 -0.5688732866050525
P 4.932349118968937 0.7799072029181845 7.880843602607348 2.3141800214674464 -0.8514277538383594 1.8028307972207918
P 3.7662825148570964 7.364761923312693 11.90311576248922 0.7563239334539749 0.5887502280346377 -0.17489800699489233
Ni 0.8755505245231227 6.638372084294842 1.15627778061037 1.944098774866065 1.0055139662942232 -0.5765017496845878
Ni 3.6637969344615273 4.113326478063294 0.32093085606606453 -0.6716564779115658 -0.8836159085351298 -0.40952942529467534
Ni 0.12576520269108477 0.45327971687010693 9.759488545027313 0.40212927617586225 -0.0732432728658674 0.2378419548172807
Ni 7.876846878155275 7.7092569551081285 5.315616641616566 -0.10683293589585471 -1.0419637244808249 0.6912783659075514
Ni 5.3011841285267645 7.715281702079018 4.958155427455629 0.0035964591020067093 0.9301104525522433 -2.802550011210109
Ni 3.125916793742047 2.2055764464690366 4.316271470103914 -0.9738274338242195 0.4281475546164949 0.8982169462777563
Ni 5.140314115562533 3.302414073464615 4.85761815754203 -0.3190240229142506 0.5208597348402514 -0.7123081899946572
Ni 0.3066151303790827 8.260743755140325 3.610655885525838 0.4597533544472341 -1.7754737453640776 -0.5893210129364431
Ni 3.525033108459712 5.150324464375704 11.710372057396539 0.26298065886643746 -0.7061028325148936 -0.11269607954485109
Ni 7.804123547795897 7.745535200714374 0.5515405593128592 0.40310038183987995 -0.7000378572677363 0.14150734734958853
Ni 5.576774592658217 2.872386172365542 0.2807532088434295 0.9776208394283809 -1.8387467943911107 -1.2308940411990672
Ni 2.5146830414416192 4.842617464468665 2.2909934552540023 0.10109423363986461 0.42421325255909526 1.554975166921251
Ni 4.29486600755842 5.800811760401846 4.573711688822452 -1.6547499104187438 -1.9501838047178803 -0.062489119673156894
Ni 7.13809240458486 7.96396471935433 11.643898706856346 -0.6304208683005467 2.103287084435184 -0.9907128967256486
Ni 8.525684320395545 5.987541841133432 7.1826347492668665 -0.050330887044068164 -0.02410049259262946 -0.4465126873872439
Ni 6.551152285839356 4.3967954574643695 6.289266730740452 0.7154899301567484 1.4254630442603258 0.7079905364559097
Ni 1.6935285669924298 4.592599734018264 5.010044255905523 -0.6509670678830144 0.6758471189541457 -1.4210685147370556
Ni 5.441171441605745 6.302515612771511 10.786724587478584 0.6280217719407506 -0.813164853702419 1.3809521063321444
Ni 2.2331697875957084 9.006672312026843 11.182658908911472 -0.1651005612884963 0.21429733472812124 -0.89029434899657
Ni 1.3518141876450966 4.496074018703127 7.3940190214874795 -0.8001275609024866 -0.1326918059404876 0.373886222169769
Ni 6.915519713797231 0.7132243765602351 13.125809426822522 0.9984526885720677 0.1971092529846089 1.6707308592280325
Ni 1.4211358531762952 1.7903508852353633 12.576159711174371 1.1496880618426975 -1.4538392814101737 0.3608651273197527
Ni 7.631305998146318 6.846383425095906 9.662573538369443 2.6944438650287856 -0.8416493342953569 -0.1784525571153701
Ni 5.544259496698404 5.452284782556663 13.516981417495957 0.6327646859423749 0.0191734876046573 -0.9166347866633118
P 4.871573325294907 4.684370533647144 2.782784281646182 -0.14471042766791853 -0.6854023667427487 -0.44280978461436
P 1.5958535153320776 4.690691883545831 0.31115778959513307 -0.07700094013608673 0.49586964055381694 -0.49127559342523136
P 7.206477917125198 2.4567157067401726 5.004265133234216 0.00030081906987044967 0.3732647865356862 0.6133374304556984
P 1.7525432807826613 0.44990029726151287 6.727634735415533 -0.8314826781750002 -0.016191265047881792 0.6682734203719458
P 3.3833403285458954 3.895814574731211 6.12956922622517 0.414309363181822 -1.2836739040042604 0.2398993515669417
P 3.685504561239715 1.6796438424349036 13.477097592548674 -0.0906414137376568 1.1972390721487833 0.3628196799429622
P 2.79808713895224 6.64916101579348 8.92855080838155 0.12115603738674617 -1.0681645512459088 1.7204117713929274
P 4.009153968515875 0.4293392261760926 3.382436616500262 2.1725145512734394 -0.145129260372892 -0.8441610449736172
Ni 2.422272691749675 1.0281740492104308 2.1662821198407487 -1.9068144365933095 0.3162253771231909 -1.107874725351337
Ni 2.714686103192148 8.980339533343312 4.913170959034374 -0.02865237362937001 -0.6291139765636649 0.051357528536369615
Ni 3.4975880687969387 2.555076652671057 11.28152686047206 -0.6039043100672568 0.47794442353396394 0.4490179703076009
Ni 8.48971194655859 0.4009422764919191 1.9419298114863344 -0.01911486645257998 0.7105963495098729 -0.40548996511797913
Ni 3.5387324561873643 1.8074797043156758 6.834384909782344 -1.7251246034875642 0.4578857051108759 -1.7069268495326153
Ni 4.867003786438525 3.4547104080471964 8.002733502669926 -0.041252321781567666 0.15303411704226547 -1.1352304916564708
Ni 6.915927542822954 2.2328361093019358 7.274353643383383 -0.8550046725563405 -0.6790905655921079 -0.16608837912306235
Ni 4.363353477355188 8.281264970207323 9.850488177043921 -0.6548298932725304 -0.24934404191960927 0.9582318933788077
Ni 0.8886687158891216 7.7519585078694915 6.045542543664256 0.680092781604377 -0.17935347166308468 -0.4017752352705532
Ni 8.457530528892548 0.6012456487068433 6.409555901877074 1.1881075421611602 0.6565844140697917 0.2579461817663235
Ni 3.1800468280651115 5.80379632736281 7.0263834000189345 1.0347186128826373 1.0081012674054253 -0.6601207093578244
Ni 6.271761596695496 3.813683370255753 11.819427392642826 -1.1011731449614455 0.0036823339475936584 -0.8060860924787665
Ni 5.623610048725759 6.734851455402509 2.02616040856011 -0.01412101278241439 -0.2967266449686309 0.7589006930422156
Ni 5.4471776508936465 2.066182339245651 9.917748452226927 0.1475592099706233 -0.061919363212615944 -1.1334821415067962
Ni 8.070927150191345 2.235718719006469 9.30412241193698 -0.38551197933415543 1.3920163345661059 0.7892083428868215
Ni 5.719783548064136 6.713431162710625 8.555977675049323 -1.695142198192861 0.22392637317745304 -1.0243619522386616
Ni 5.466975896324137 7.83716696772085 13.385501047139872 -0.6341885628730948 0.553232494744002 -0.34722799615229233
Ni 1.2911866954349656 4.121622091200132 11.794805642099027 -0.2941084906194935 -0.23930979761205884 -0.510115866060186
Ni 8.75649701127105 5.1708456794427 -0.027539581846008507 -0.46304230961115095 -0.973814578308413 -0.1340740309999949
Ni 5.822908678522769 9.236400548447591 1.9585071344977727 -0.22651495984023567 -0.6248269191525369 0.2610212211472215
Ni 3.479995807641943 6.4968554123694044 0.5226004555171563 -0.5263187010722935 0.34340785107525373 -0.01188646702494082
Ni 1.112075602411181 7.893224921074599 8.443922942695684 -1.0030475070316016 0.6041616774937014 -0.16963110216899818
Ni 0.945004734487681 2.104666569127392 7.949866811442449 -0.1669137032378351 -0.2682822735850089 0.16084564266688428
Ni 9.13151433810516 8.951615393554412 12.267997611149996 0.4183578222195827 0.9446027326311474 -0.3410295806510643
P 8.174562066932129 8.150333315267662 7.665647982764535 0.03576661607664808 -0.4445568492124537 0.7511233630896419
P 2.3186563126918767 6.890846057741068 4.090833780410591 -0.35695550785270136 -0.47687047374349484 0.43779356234669126
P 0.7416370832749478 8.837821826536558 0.591135196405542 1.0592623636602725 -0.39787075800982447 1.1314046901524772
P 8.896919959900233 5.755070027630558 4.839236191091773 0.2022074934431227 -0.7309921395574056 0.26570551399676823
P 7.313115938509934 6.087839974936495 12.326167933480153 -0.8655338542224383 -1.5042958953988286 -0.08284814294548312
P 0.34526341875526134 7.691099294622018 10.5432033880311 0.1467418562756505 -0.6028987516208778 0.5873304648689756
P 7.228482146831183 7.730825549263911 3.283595544580006 -0.4984088620359029 0.11914929136936253 -1.7294047189201571
P 1.3749028718058423 3.0967662872444377 3.287177024933162 1.0050601665862562 0.17062097688609323 -0.14457595897258327
