# total energy = -340862.49974172894 ev
CRYSTAL
PRIMVEC
9.27662466223399 0.00000000000000 0.00000000000000

0.00000000000000 9.27662466223399 0.00000000000000

0.00000000000000 0.00000000000000 13.57727788877060

PRIMCOORD
 96 1
Ni 1.2643946607245897 6.806760430269558 9.01884300379296 -0.06445010005426965 0.4581464149714303 1.763065601507712
Ni 1.294283945289074 8.742754884481101 2.937837446287369 -0.8574011978129749 2.183801179930852 -2.0162758112509467
Ni 3.6441642840844226 2.1379280192021355 6.076103789050012 0.401954698271211 -2.294412866142849 -0.48864921154597785
Ni 5.965259256646502 1.3403516632118635 3.5253130969609856 -2.5693231865673365 -0.9469164683659885 1.4748814467924534
Ni 1.992247905980329 5.110900681283416 7.544174164871095 0.5305895605335055 1.2594841941319341 1.2169442638871946
Ni 6.022922755359362 1.0830737556664247 6.03060565587963 1.322240965644181 2.062963959336105 2.1674273665585186
Ni 3.0654791629121427 8.222920669974583 8.209365666062222 0.5009802223075049 0.017934987211865885 -0.017173940676125262
Ni 6.08328575184015 0.7656647672559993 1.1146022198033931 0.22858058412001278 -1.1920328453574955 -0.5855173229196369
Ni 8.79879497388335 0.918692894848857 0.32326253855325265 -0.11366744231918488 1.321377589202621 2.405325885645348
Ni 8.43402881672628 2.074791311956363 6.921886124940762 0.8074153528131514 -1.368548590461469 -1.6212438082414982
Ni 5.917679448908687 7.306371603078194 1.8614855328293323 0.7712211622807815 0.5060594366026253 1.659654803919529
Ni 6.808606478571337 8.166212663598825 4.917323499761379 -0.8411399987591061 -0.7437602378563513 0.17329826660794023
Ni 0.12889777159995378 6.8333657897142945 7.064665437640125 0.762044637987836 -0.1881096205891599 -1.0345283512487022
Ni -0.019832495800872346 4.319502557298094 11.571819268645298 -0.05597831513783263 4.274488573324154 1.2706396965281215
Ni 4.84682300788268 3.1759915921538244 10.514189439019676 0.0915209881291327 0.9414235635722172 -0.8890573912656753
Ni 4.100926727717592 8.93425224676063 2.4256082086542112 0.2536830356145954 -0.7787704353829491 -0.33970546252300204
Ni 7.877088103691539 2.0908491491944514 2.4968202176421883 2.4632078455637965 -0.12810727189359875 -1.253913899133008
Ni 6.956698514197478 5.033097630494363 0.6713650948837613 1.1679585780171111 -0.6676219028308761 1.6868997556784107
Ni 7.913202003384131 6.787641306902891 12.424254799722158 0.3167786785234996 -0.54169544063868 0.9600283231575985
Ni 5.320394695349135 8.69736436015645 11.805877784736701 -1.1587635417814044 0.7417354941168387 2.9710562557460443
Ni 0.3966925884907544 3.4482326952307694 8.377723415859553 -0.10826195503289743 -0.1433235746227209 1.2402040057460835
Ni 6.757928278206416 2.06638669003972 8.352551294920469 -1.0674834660184842 0.2827604125965259 1.9337719390187598
Ni 9.275882502085354 9.115972046677975 12.019474849877179 1.5577905248828592 -1.779119312536465 -1.0303662494512125
Ni 8.755241221235847 1.2273530985687904 9.29759722502407 0.5996038829196899 0.7585566794392355 1.2390652641559499
P 8.673291519236265 8.98099715828156 6.503556737158201 -0.12492707439340421 0.9763324596342604 0.16818151420666522
P 2.4276462830858736 2.7561593911808697 8.168157971784167 0.6925721450183104 0.7758296075870702 -0.9488465955091658
P 8.54809419320204 5.244419139612597 8.553454226914441 -0.06324528111289107 1.05276338619949 0.21810925227504374
P 3.068559002289985 5.0444800489178965 2.5097462664044947 -1.4293212416641514 0.48904901808755774 -0.9243218708949242
P 4.427269105648687 1.0306979329938368 10.495561976758507 -1.3197567657697464 -0.5290900931698436 -1.1640615569555501
P 6.1263663966314175 6.8885245997765 11.139111112683048 0.3203031467369903 -2.2389996794798663 -0.23264189867357998
P 3.1467609479382164 3.643236621621217 11.8131413818236 -1.1833669421523814 -1.1200144460376646 0.35007317891057127
P 5.914877908269807 3.2323656400428282 13.422375082333142 1.6936419594982508 0.20701828456820476 0.3546302021536344
Ni 9.20877539949706 4.78405736562219 1.8935140070339684 -0.566300897892186 0.1907174905256522 0.3347869421754621
Ni 6.420528163713911 4.767016206173103 12.041593105987388 0.5517294278359144 0.1026464086183329 -1.5713291827992422
Ni 2.2503050499948607 5.255634578792752 13.022347547287163 -1.1599719602672087 0.3976624986537603 -0.03441035915906977
Ni 7.335398161551897 8.819342697443355 8.212054031880593 -0.9690775778440602 0.5411979321769711 -0.04727384538529923
Ni 5.629584594335558 2.9444284880884446 2.00330007656696 0.3304021828442052 -0.4703478421336286 -2.312343225369024
Ni 4.404745461042055 1.8914388261037773 13.18804476114002 -2.8183311853037654 -0.6084505346770425 0.16187742636550834
Ni 7.049678122884575 3.694081801229516 4.039810469316682 -0.14161610501331096 0.38909995379572987 0.26635805997910256
Ni 0.9370504073332325 3.7315315348691254 6.036158643384379 -0.8741231385533461 -0.7181659343270148 -0.49094674933090293
Ni 7.924482378936712 0.8368841975436823 4.673190569319563 2.819296120320196 2.3242710871548615 1.8443546274961915
Ni 3.512343448062908 6.725497198492749 1.2640718341873942 -0.15304671544775578 0.4570431546049226 -0.2094760020800779
Ni 4.065731213863572 4.267432863238364 0.4653201298562409 0.5625889962582376 0.4322515494825394 0.6769436944524341
Ni 2.023278215374556 2.8339160588467625 0.34203378849621774 0.6513727879618652 1.0133105795205064 -0.42775417583281816
Ni 6.179734818139635 5.926418029312083 5.092280640321953 0.3330367922535748 -0.9655135146418856 -1.1307827402977622
Ni 9.048707241470938 3.2342209649692397 -0.06604585673038532 -0.9586008466824523 0.28423931113489753 0.8105994069680879
Ni 5.132153428315457 8.017406327876015 9.643669128222621 -0.40141116706291513 0.1966791074257258 -1.9128845540467896
Ni 1.5333332854325228 1.6716292054472124 4.610476876157012 0.015775260556385735 -0.05757368464941052 0.23876858039660814
Ni 0.1258448344335442 8.043853984702007 0.8097621301069403 0.5391456776336327 -1.598041401983106 -0.5997496644689349
Ni 8.699785559185418 7.172778931751957 2.867561448724766 -1.0943059855279669 0.5214114935786633 -2.3736522086911505
Ni 1.056273587104415 2.7742766390872755 10.71544581041213 0.4754208857811619 -1.060455098416793 -1.0765813145546943
Ni 2.3272546513177645 1.0501881213457864 9.46761270764315 -0.06304216396314949 -0.7085834328449022 -1.3077828812373218
Ni 1.84944354639446 8.944057638996714 6.12375966510981 0.35907975328455577 -0.23540249213785264 -0.5910786190574981
Ni 7.561219034970034 3.4404125006659467 10.582619388280499 -0.4575308928746185 -2.0263607062907747 -1.8160673505157237
Ni 5.456176650088538 6.4977746170250406 13.39917146114098 -0.8469257522029477 1.4078921252560979 -1.270273057217322
Ni 4.517521386693959 9.029560288230373 5.2982476817025645 -0.2976152182211713 -1.331614950659913 -0.0305696452567409
P 3.8719054188013957 6.193844564204992 8.91913134861038 -1.289975677852572 -0.08127102826635035 0.4542241970988887
P 0.9226864817529571 1.714357338502462 1.8687083127678508 0.1434269329698046 0.0496459451619016 0.29499963497519516
P 4.048819927159334 9.024792103169496 0.1237260533675826 2.241012081924205 -1.5733076466818516 0.7534982910797217
P 7.445168460823015 9.125471310301199 2.9708167745167913 -0.01359779328909271 -1.6189218449765408 -2.4879593414768637
P 4.7908107483543265 7.23348516334413 3.9363918749311324 0.22262848030163596 -0.3887140312112209 0.10841313589878103
P 5.107848671779469 8.612854309758422 7.401652742336504 0.6416959269937337 0.21623286118793728 -0.12216133872280896
P 9.078179077926979 2.8543060797880218 4.503366185167906 -2.1483127572162553 0.6932077217197804 -0.4570495823628258
P 5.9566969321111145 3.322868389953166 6.847442139930976 0.2810506289942708 0.04631842345056539 -0.27447014756327565
Ni 4.225938521259177 5.484303375972932 11.715737750849478 -0.0929608058994528 0.4988572624272312 -1.7215245448411323
Ni 7.269738212406205 9.016906972232249 10.767161137410914 0.6912027754746096 0.8665116447546753 -0.8563048794250027
Ni 9.222504803952505 7.926161447995114 4.778672285023282 1.3759744506118947 0.29141705983025945 1.6026421339799108
Ni 8.914771335033313 5.556670324727599 4.570559560365275 -1.655253846638356 -1.4828390110766332 -1.642645670956042
Ni 4.412639868603935 1.449092257148823 8.177146093390167 0.16886645608883175 -0.5022012391987996 0.9182664087294636
Ni 3.6008610003019856 6.906688230806065 6.071256752679763 -1.517540933334193 -0.1317744363325408 -0.46949423588408173
Ni 5.076002019417621 4.831692833107797 2.885212082412179 1.071972097917457 2.86647200667505 1.4067585258722868
Ni 4.2945484370378635 4.133589723047061 8.050864329936452 -1.5729196672148138 -2.1304662159531373 0.683319773182107
Ni 2.2195715925888595 0.5251172522344734 0.2572092605231616 -2.3024606761479895 -0.7572467023785604 2.0224937671362007
Ni 3.4120631357903837 1.9574605636101194 2.3069017368750337 -0.3477504443146656 -0.030957110503146687 0.4979157244495682
Ni 3.2937676184824065 7.654912943753799 12.118629907581834 -1.714908582186511 -0.08448053634258354 0.5105089877335467
Ni 6.413904653726623 4.821609142132752 8.815414046911679 1.1636509517806926 -0.629707901393922 0.9882428379186012
Ni 1.673029975766653 3.6001467002053174 3.1020958556597935 -0.8495845299820337 -0.6609851142406487 0.29651530028877326
Ni 7.197269220780585 6.6747818916293 7.270890369185507 0.4459084781443417 0.5120071695456279 0.16132798161994152
Ni 5.227359426914247 5.9184030256299875 7.1682732751681675 -1.2158273766739318 0.31985037547028783 -0.08175953786699466
Ni 2.531739288082173 7.142258836712493 3.8623829636165903 0.49074337507084514 -1.8382462006056084 0.4722576575618318
Ni 2.000207249914633 4.923216011727661 10.024145249194081 1.402359882583959 -1.013621683003022 0.7593547498604987
Ni 8.143290124133015 7.091886764960429 10.094923112149276 0.3765550272511837 -1.730851735779329 -1.7929701023766282
Ni 2.111025807769173 1.101886750420234 11.710143946196347 1.5177695044052313 -0.3317360711642802 0.9484020517725795
Ni 0.9665871801616984 6.7192818599892705 11.555675158798131 -0.14678633636034077 -0.30543060050053206 -0.15435772094969544
Ni 7.927116940332216 4.412333739991078 6.328179365501794 -1.4354479233871793 -0.19546451829233435 1.581838052750366
Ni 6.122915492268293 1.5504115513801378 11.635455985958739 1.268207947158177 1.8846062759273867 0.5841754641797617
Ni 3.0768986878342033 4.12347820219812 5.852513016193421 2.0665717312920218 2.6333287428850194 -2.1623779770600695
Ni 0.7030865128130765 8.848313596169266 8.202834922321255 -0.29957439883007114 1.024784898708693 0.7262060310226719
P 7.394870602068008 8.733199961110083 13.156409615819783 -1.168590555174155 -0.19053442798056863 0.8947644689527815
P 4.592365194225387 3.067900361941109 4.0602171881822775 -0.5667402994224497 -0.2376817750903326 0.3587534802933886
P 7.24692699243598 5.6410133958822515 2.796986743849011 0.026793208933444182 -1.0721235358936567 0.2627757419444829
P 0.19242873539258873 5.669492633502664 13.54075501692527 -0.3064076197018207 0.24505107097121023 -0.14506344013196307
P 1.3491273501137886 5.938162236096267 5.513677807870336 3.181905741134881 0.7225776902414652 0.5121246689600987
P 8.227790897906413 1.647500704779235 11.95477966969322 0.7769693776184683 2.457675860001974 -1.5893991529270755
P 1.6024905220644998 8.566758761961736 10.670260299491847 0.457723725611715 -0.8572474458439301 -1.141723555579982
P 2.897906215558684 0.18034129349701988 4.155610574598636 -0.7292988110153826 0.39015102076806357 -0.5382049109869183
