# total energy = -340895.97331905126 ev
CRYSTAL
PRIMVEC
9.03136325808152 0.00000000000000 0.00000000000000

0.00000000000000 9.03136325808152 0.00000000000000

0.00000000000000 0.00000000000000 13.21831303239339

PRIMCOORD
 96 1
Ni 6.394855380426399 1.8197564586203892 11.486476024482894 0.2858951015707657 1.0653234822526878 -1.1363080409913655
Ni 4.665204832123765 0.21996426875164274 6.131089903450832 -0.5112553789812679 0.7734806477389196 -1.5667929854917857
Ni 2.6067223509084827 1.6889191004191932 4.771084018212791 1.1217944207562227 -1.219526422792074 0.1419806874415813
Ni 3.497341198264922 4.329129745951134 4.6486160242585095 -0.1360524948826044 -0.29487519358218894 0.8514179836463466
Ni 5.000385813342857 4.535947962476804 2.6377008297078146 -0.0024980838315053753 0.34346441534480204 0.18602625569756995
Ni 7.237698316629091 6.029581897134662 2.502055173756476 -0.6758021246488232 0.282198883666101 -0.06150927225839084
Ni 5.055955790909777 4.769797048961484 11.542667359835706 -0.41910215658477495 -0.8665520110743076 -0.46656394961116426
Ni 5.695493710858784 7.740284645512803 12.357483266722063 -1.3206538236627192 1.2944170014533771 0.2788258534288101
Ni 1.7186142225124859 6.751540037346259 0.3709596295417163 0.29277897317479257 -0.7151472021053491 -0.26716101549637217
Ni 2.6763722236528484 1.5982351828587453 0.40291439869940743 0.1540975253097733 0.7833901935431477 0.16053685317721386
Ni 0.5224950658491799 0.09425762796565347 4.874530155064611 0.3907495735840109 0.49412206173509093 -0.8895813820899453
Ni 8.618557619419873 2.497650577939901 1.5468205354849904 0.17273159547119282 0.23955353819174874 -0.7836323914609408
Ni 7.076154323659892 0.6531996630118202 4.6614378505467835 -1.81704719793049 0.47408519768887386 0.8451578616692476
Ni 0.6694832108020291 7.460321418697116 2.4120775087956923 0.4973279702668983 0.5409112541744877 0.1629089529538162
Ni 7.796586163496255 3.956260886235901 3.752058152483411 -0.19265275987515207 -0.29440262482114454 0.0009597928101080244
Ni 7.567740452206126 3.771479195837857 12.739188412159946 0.4927112974304934 0.1490720470707239 -1.1837567213916322
Ni 8.070146153826498 8.866558851987335 6.806280935774443 -0.15342132517835513 -0.11407033418455838 0.8777301391783142
Ni 6.717979491817465 0.7314808095349447 0.2564302038112803 0.3898190913499415 -0.23793580008266763 1.3539881761487909
Ni 2.0233414471322524 6.455708705446047 9.132677902204238 -1.3340811528122185 0.37725822396579545 -0.13837240126503267
Ni -0.020667371471499746 4.881388572253676 1.3023595972790145 0.9711236617398114 0.045042642061935326 0.34023279578138177
Ni 6.3884521439409525 1.7460515038140139 6.846913941799362 0.21595338227430552 1.0655219714167392 0.9851390021822969
Ni 3.3158378926965204 4.293943555052269 0.19974575602954586 -0.10922611871837963 0.43563614968405623 0.8578028041267678
Ni 6.169143552155238 5.590874399931564 4.848067357848809 -0.786254145354504 0.14304923791541171 -0.9714275661334754
Ni 5.210428226519168 2.8720096125776986 9.546120160947487 0.2538429582312273 -0.7556734443541695 -1.162581372865598
P 0.1193593987521796 5.6517186935880455 12.395618197694972 -0.0019365549010805358 -1.567623708923197 -0.12313424415903954
P 3.7819736398379806 6.29980931445626 12.619259134391925 -0.2745552510779143 -0.48470539640688143 -0.3416499878438826
P 2.3129862952630282 8.674217910618461 1.4269436396233381 0.14885684573612426 -0.8927680073480432 0.0876530205332942
P 6.4934688348475245 7.798970443372358 5.71384002199635 -0.6494022944990557 -0.41911166966647173 0.07991451423845591
P 4.599971295968092 1.109674560973476 12.533603879842897 0.1416893814534076 -0.7837318931532825 -0.1766306734152829
P 4.12874186000041 6.015375562872878 8.073639485099516 -0.35998786692112195 1.234740668638667 0.4662582454452873
P 4.845208931406435 1.102286905902821 3.9321308901261505 -0.00043785886836698786 -0.07431953664918167 -0.2421107573959637
P 0.3725961125475875 5.751406880226052 3.5365598928178796 -0.24879922515973282 -2.147096882531283 0.2081814516383705
Ni 1.4556841466298727 1.2284279552571458 2.5491645703084935 -0.33470286710208813 -0.20971691444629043 0.8846852303399086
Ni 2.044149707869158 6.543701276782711 4.863268045195288 0.06428992032732153 -0.04264354570213946 -0.7951511907338177
Ni 5.8369248580549415 5.479273845276205 9.281939241266235 1.0511201941691122 0.33129178453801006 -0.2225418341251006
Ni 8.626071713574866 2.1801710685282463 10.379230900201357 0.2877516951635302 0.7399385501174159 -0.6031995706907483
Ni 2.4943812244734254 5.252667912051506 6.947624478747879 -0.7729525431495914 -0.820523093839703 -0.0263095844288063
Ni 0.41226185957731437 9.031047069348997 9.29031944314895 0.5289576813570374 0.30185959531982204 0.30325956099114226
Ni 1.3366869055406922 0.9359021022760775 11.699052638163883 0.6383282960730814 -0.22937248389368886 -1.508875287239395
Ni 3.911898830359303 6.92069746946529 1.553772878850993 0.7723035967116829 0.6952396645481446 0.2871444005968345
Ni 5.755064582308711 7.655218235842267 7.760312596472076 -0.33418658958730185 0.13206959897545642 1.4444316149430285
Ni 5.505464798460678 3.07409539480383 4.837757153657294 -0.08723624471084976 -0.8802058544123162 -0.4769128969456561
Ni 1.0019574924799532 7.462579259488881 6.879483746788729 -0.9650512302934864 -1.2454356864586682 0.7528406028910647
Ni 5.113612013368286 4.369481876581557 7.022611887123977 0.09908311674710679 0.2473565791759353 -0.013502662472125134
Ni 8.181945398471532 7.1350478428722885 8.923366126308142 -0.8227776942018347 -0.21456472945689498 0.6664937027637038
Ni 4.649661856113255 0.25217733489591176 10.499874558795891 -0.4210767638126426 -0.09377893092537398 -0.23051791035204172
Ni 8.15396623537998 7.277210530484978 4.391295328038956 -0.023209091126611642 0.016210291211275308 0.7573647160136635
Ni 7.365157945005807 6.121006386474809 6.819419762909882 0.888051318598664 -0.9581545031736529 0.7972774930482011
Ni 2.44365205756405 5.21852935928002 2.612638796919224 -0.6205645443317571 0.4680323066265746 -0.78331100356578
Ni 2.0599636247746798 5.291611150027868 11.348106509400369 0.4807680090256881 0.10624338194097187 0.42086593335341715
Ni 1.182395097194642 3.4449592918959753 3.7329839134745813 -0.6361397730621948 0.18203307537777683 0.49148899498761806
Ni 3.735109896364107 2.5034848385458215 2.5665074969981987 -0.21932435562906746 0.7280554255265849 0.4202293282106827
Ni 1.1348178760305705 3.172203092887601 8.129037866766263 -0.20942123758274256 0.4847280221147007 -0.27725182407347093
Ni 3.646376753247744 2.5759705593246442 7.29303257561735 -0.6380465031666044 -0.04060080424049782 -0.4429411679859017
Ni 4.266686901014082 6.882964434153314 5.984511782385767 -0.12711045519796818 -0.46291555422529956 -0.5417082961544863
Ni 0.6879243512528486 7.449664410159985 11.436642768799691 0.5557002395582041 0.3222628415665224 -0.79513576411485
P 0.2558892251575734 5.532044100261336 7.917782541516615 0.6323695073864851 -0.11052863957988707 0.20800404552024176
P 8.38207137489041 1.6418476355924774 8.130280582338049 0.5112219546401713 -0.74832420307795 -0.5035104449285264
P 1.7737958514632215 3.2521035628265795 10.285288466810234 -0.345505871254863 -0.5226229973882612 0.44723696714777816
P 4.116359861098371 6.241737649292065 3.778706092644138 0.12124114090138474 0.06253102865468586 -0.18696985055776186
P 6.90045818460791 3.8451299624652298 10.532827293583543 -0.17126940910336955 0.3881800130846218 -0.17174917695326553
P 6.29467950017737 7.675954245673836 10.21705561494678 0.21776652422364431 -0.3725929572796422 -0.7460804013490957
P 2.4353793289030237 8.596376591481574 5.71659007208072 1.131557670790574 -0.04877948339654825 0.019888768504127036
P 6.703700906650343 4.008417008525671 1.4753616806982628 1.259429943855231 0.37554792614290805 1.0370182075500916
Ni 5.24273341256774 2.7649428022322042 0.351359765196563 -0.26366920029302976 1.3738072677572468 0.7997663209083258
Ni 1.3751063244533648 0.7938812070651113 7.195732281400714 -0.3405989208715489 1.6361775467331952 -0.42973289682574384
Ni 6.669237224804843 0.5153909955819708 9.114607950779584 1.1225474968721636 0.4858428524454343 0.5138537358360634
Ni 2.7335407525003372 1.3001189160772668 9.266526316885333 -0.32559319149133603 1.0413494879355936 0.5386134592792465
Ni 6.42353898984498 2.04236149796208 2.510091280702526 -0.6611782040880613 0.12167205779121626 0.6270936036995265
Ni 4.028466634756544 6.832966807660471 10.390611320928167 0.42387489538306994 0.3095451368895379 0.3695107188098926
Ni 8.027608433309645 7.031810330509628 0.4167323843450089 -0.25607184756174606 0.6879518726374797 -0.15606519055910542
Ni 7.551167900794571 3.6859702493721342 8.295601491383714 -0.005702192591099857 0.15115592618294613 -0.20033804433455177
Ni 3.20648614746976 8.506948033401347 12.613984818302363 0.0861754075465032 -1.0988696936392497 -0.7749574893947621
Ni -0.049725782461514795 4.738593689219293 10.074746619250783 0.08501635424139553 0.2755728937091512 0.3337525873736768
Ni 8.618142176714189 2.3601751678109157 5.830121532181195 0.7046295904034768 0.4954343527886113 0.16763129813015
Ni 3.649564824445716 2.8215423552001684 11.437925222369412 -0.7337560754557879 -0.6647594936814165 -0.06701657522986523
Ni 1.2288614606891646 3.227655662733348 12.496896807386698 -1.0095202592401389 0.842099277348582 0.2574306755824857
Ni 3.1300537209869326 8.322346970266643 7.922421952775533 0.822560435984706 -0.678329004835735 0.25905304167725707
Ni 5.74019895853573 7.896292412860595 3.5911508706174895 -0.8236400422021298 -0.036381881063143794 -0.2587362817677866
Ni 3.160272662143915 8.327260031829525 3.561674307512839 0.012949361071816408 0.5753578658881318 0.3374143524959802
Ni 3.3838892141603165 4.373853056354414 9.394757223676514 0.4759423055022707 0.00018383387603194146 -0.4856330504274734
Ni 7.07069034894382 6.112625281455778 11.499112707826244 1.9211753333006718 -1.2953089171400272 -0.8537947114086393
Ni 0.2549906045224509 -0.008147192713004686 0.4809968552328567 0.5370880237736556 0.3716239084981535 0.06136220515756528
Ni 4.46174628269624 0.43708365810566163 1.6883880562649702 0.9036381172933275 -0.7575488070000115 -0.3107381287563746
Ni 5.773145371369166 5.704145756772828 0.35890456598632475 0.18051278207850846 -0.3815393678396526 1.222283673822237
Ni 7.919882333452956 8.838832567064463 11.328662887638005 -0.672778507331151 0.33285527237038803 0.12030063136498638
Ni 0.3313345236462412 4.95070428456086 5.675811661108811 -0.6894202296528901 -0.4440428856905127 0.3776577733970593
Ni 7.905567622833166 8.986829515283072 2.535364647389226 -0.20581655095061974 -0.2613320675194209 -0.8319683595621672
P 8.545231981866515 1.7589753845060763 3.6092072749973925 0.4827914672136201 0.43485196321986397 0.32176353333260066
P 1.8277040582074018 3.2966823714191866 1.661620902110438 0.32596574433940634 -0.046117363183352834 -1.4607108117190264
P 4.753874755697958 0.8908401157540324 8.242040992121463 -0.48756266335001835 0.666074355838098 -0.019900338468352822
P 8.560016323370991 1.7314297268465437 12.59173876454926 -0.9656366704833111 -0.6375451380501536 0.02537113177493695
P 6.227188123229932 7.95795856056528 1.3618031265082857 -0.06258939269644705 -1.1305328290704852 0.6727052308910544
P 1.8979951577366287 3.3048918805380443 5.895750642043586 -0.0733232341741834 0.40189324890565625 1.1614732274030835
P 7.037969720189563 3.9452968113510907 6.1286180193520075 0.39527342959629347 0.2801980511859884 -0.9809902701212461
P 2.3788429954772288 8.45656205829232 10.343528115329336 0.04914483715576697 -0.5058856300289223 -0.3225173807794897
