# total energy = -340891.96344149753 ev
CRYSTAL
PRIMVEC
9.05067934068233 0.00000000000000 0.00000000000000
0.00000000000000 9.05067934068233 0.00000000000000
0.00000000000000 0.00000000000000 13.24658407177858
PRIMCOORD
 96 1
Ni 5.84915529035805 2.23355376341424 11.556385975214605 2.2567271786666168 -0.03001634385643218 -0.4771350402587912
Ni 4.486485030981804 0.24287950149768353 6.102966202185666 0.2739813808523152 1.6160419523255847 -0.8207125841426898
Ni 2.56313424624624 1.551883758595957 4.745840388883369 0.16914902032625706 -1.1692844959173863 0.8665702659067528
Ni 3.492973874550818 4.259095766923829 4.884187260899665 -0.6173480942769884 0.6176440282508524 -0.7623333728728484
Ni 4.87170908949556 4.432488678913269 2.5671346464497757 0.708456934569367 0.9803526365372472 -0.12282314067652396
Ni 6.996736158700312 5.851137389101431 2.481151383975505 0.10831851930244571 0.12403181627264444 0.5143705275714818
Ni 5.204565918195614 4.598342375134508 11.238679983484504 -1.004898187087095 0.4460522028110576 0.6428094717728865
Ni 5.988146570732924 8.047818685481273 12.268350413429435 -2.3590905088268923 -0.5317884659376131 0.003100750412510789
Ni 2.0866883921410047 6.2469416915924105 0.2306375528205295 -1.2801545779970922 1.5826425509295323 0.41509586363885936
Ni 2.78001567176054 1.3467953680708127 0.5512180402624944 0.0659289985926413 0.29040018852997085 -0.006630360832324065
Ni 0.2424830817490074 0.03473831688056526 5.0126797534100564 0.9089538730792862 -0.1954760882565601 -0.8966195198836493
Ni 8.640348550922585 2.44884226939048 1.7328385130515824 -0.017672734689414726 1.031582638356817 -1.8963315347841148
Ni 6.883512161989387 0.5913894798629292 4.740846224104386 -0.813746951458134 0.41992182427259295 0.6287748480566913
Ni 0.8340852525729843 7.437730502404533 2.682883782655692 -0.4803036677947599 -0.06404566552699938 -0.7342816089419548
Ni 7.417285018106374 3.7071038935902885 3.9107360298331955 0.9076901758755141 -0.02496695435798281 -0.4806883048276882
Ni 7.710047337979138 3.9843624000045548 12.400047751442251 0.009272169330545322 -0.41465774766017616 1.357969529394042
Ni 7.993469356924191 8.946514926680951 7.060018507621398 -0.10201391724065657 -0.2549081662709481 0.36731602515141903
Ni 6.944251270057094 0.5840973476367108 0.4877827348630379 -0.18885395495435217 1.2989241452951115 -0.45504489322797115
Ni 1.9915205004211503 6.399934372679659 9.284424749574749 -0.09236122464224093 0.050624764135403136 -2.5109966829123014
Ni -0.06423629050808291 5.030838131076014 1.35364220688071 0.16709599445197026 -0.31956626857096576 0.04427156822386569
Ni 6.471479991704427 1.9321842476284388 6.985996622769282 0.02646745016290926 0.1601918111329693 0.39396293831498597
Ni 3.464265120148976 4.4054180974454535 0.2945181516363071 0.7630118869971118 -0.5208332524776901 0.3180953404523941
Ni 5.858767111661567 5.446979309714832 4.909581656580841 0.1239143168581737 0.6530290926183657 -0.7110918010890527
Ni 5.409581903287211 2.9590562075667357 9.110881596310694 -0.05405178753908111 0.05368463400764948 -0.07744394121077629
P 0.24123951842781785 5.7252243401611915 12.488627653777144 -0.7485250062348463 -0.68515322684642 -0.07603626222997227
P 4.084082783358748 6.328705527426663 12.432090776058988 1.0166198463993976 -1.576545179782543 0.24741442899706423
P 2.204265765544012 8.289082640742913 1.1967586388081681 1.407864357341956 0.12132727285728782 1.242828330742808
P 6.348101132938374 7.908392972505109 5.9391190415416295 0.5872430473614918 -0.9108670309415992 -1.3801208686801008
P 4.661045480587208 0.8730411859577295 12.554728384199093 -0.30042851930025033 0.0888077029630277 1.4219455180253704
P 4.126747685076998 6.143800151503066 8.215557638178522 -0.4921803646276879 -0.4910434228097672 -1.2615619025965692
P 4.571742428984755 0.9932848894511477 3.780681390094003 0.1558448470181832 -0.6941443746014369 0.23782112888167425
P 0.3041200171927116 5.576177755202319 3.5682854811880107 -0.8822804775531579 -0.4583495321211719 -0.35902010369121395
Ni 1.277331405260553 0.993257737413567 2.658139225740611 0.9556003692932317 -0.056214599518354794 0.19192925144556625
Ni 1.9453982392509768 6.491952628040167 4.706497991497062 0.7165857343240885 -0.6785161811458766 0.33412668288364394
Ni 6.318586868088309 5.598415273980795 9.348643843792363 -1.0335302490014908 0.3824130286938575 -1.576219678122324
Ni 8.660151436998005 2.589851851225509 10.497758802257927 1.60418428165605 -2.632528358470912 -0.1535575936459033
Ni 2.5383082332184173 5.213281722258974 6.893747575089338 -1.8274653079400203 0.5049212092331239 0.5530579168393507
Ni 0.6173386821786679 9.115572563336695 9.071234191035565 -0.6464730366674027 0.41518405247729145 -0.2988215798244466
Ni 1.5519018599543442 1.086018148467945 11.635640057708494 -0.7647378685492829 0.394856653773849 -0.7276967566355854
Ni 4.05556409321997 7.036676805981312 1.5263110645346685 0.4612340527578186 -1.4227515588664335 -0.4992609256235531
Ni 5.639152381030824 7.769935682202655 7.9068462114309375 -0.24734012411570305 0.16770611723214343 1.6619520845941378
Ni 5.331764163581333 2.837134508150839 4.952354261381494 -0.38120383887710474 -0.9353087089237312 -0.3593664312870392
Ni 0.7740213251731136 7.293806601869191 6.639571920890223 -0.8030071964431268 -0.39387783480034744 1.4831354592711294
Ni 4.789112591175504 4.53562116832342 6.900131924192447 2.256296261776785 0.492328717280094 0.6890271079795294
Ni 8.28928175568517 7.15101403623304 9.032964299133688 -0.14936386727952985 0.588430897022006 0.4064330457575387
Ni 4.563144283750911 0.26162436317538107 10.421524931410916 -0.16084435711530365 -0.2045168583025897 -0.21212706654967983
Ni 7.8743262160207035 6.974598197392964 4.555129002257131 0.32660697746783107 0.4085688611536189 0.14270496720211553
Ni 7.539966974574526 6.151411772704816 7.056640794146376 -1.6739030863084268 -0.5305975309533055 -1.445581926497388
Ni 2.4002763248380563 5.308087586811087 2.4437431167328514 0.1284021774261982 -0.010554892697710854 0.3097976192199761
Ni 2.4182871764331595 5.294068084740326 11.312529905431942 0.11143238234107906 -1.2022869189853358 0.1630277379198676
Ni 1.294763013387271 3.5761134136224855 3.675066299381069 -1.5571557195123378 -0.6290036762380458 1.0363412360877247
Ni 3.4845024388256842 2.7228787340118537 2.969936934093185 0.9874871906994993 -0.9657737102818077 -0.6006662627459333
Ni 1.3944471940246912 3.6359474537708407 8.574791766320168 -1.5077650848943516 -0.6409881022934316 -1.3880162122677773
Ni 3.5799961549965054 2.6556593396415864 7.207214228685197 0.2523396342128235 -0.8075379944339448 -0.0484426688824198
Ni 4.210303555391567 6.987223894867923 6.009034633243647 -0.38733951946119743 -0.97925863214212 -0.2680331336886803
Ni 0.6707648414580116 7.168355137567822 10.960157097186901 0.24125406582262324 1.5537124981587436 1.5691023503512525
P 0.3179874678530217 5.51800904002557 7.963422007069626 1.3682739966438435 0.3304371498471987 0.3378383274072762
P 8.465480378224601 1.7316302473792475 8.23117549019486 0.32152416362828495 0.2665683762176957 -0.5034453960185459
P 1.8271692169460358 3.135173373993425 10.614646513906388 -0.06307481697329782 0.6580298882670668 0.38789384930277065
P 4.028086231188445 6.206458003559799 3.7115740240439674 -0.022966893208818513 -0.26407826280599034 0.26345836983380433
P 7.007370706752696 3.7318484505053697 10.401800786244479 -1.9950953205185902 2.2600575285914304 -0.4590139051780482
P 6.437639502199859 7.8576096115502745 10.034300672795391 -0.12522352258790048 -0.7853540021377377 0.8473229876413665
P 2.327309749179905 8.44968694303191 5.820165059833289 0.46451143795750965 0.8905617437253437 -0.8048915579500332
P 6.762821354943809 3.6500755639919245 1.6719971323089884 -0.11473882100649273 1.6420404332718752 -0.8589847402500109
Ni 5.009478528179309 2.612813424339467 0.7184220978194061 0.3369728940831874 0.14220694451977442 -0.21716025809821307
Ni 1.515708193859461 1.2255615202736236 6.958231854207323 -0.7972597524363882 -0.22820777416162633 0.8422165196527367
Ni 6.629233330047467 0.8087822687516627 9.250711874646807 1.2598104671231012 -0.017313551577783085 0.07764885813273079
Ni 2.824228239620881 1.6075906890320675 9.342948251375882 -0.27331263692006474 -0.14554063687869773 -0.040355006778278885
Ni 6.314070579170742 1.6843132965555294 2.620452197578797 0.48031935152404376 0.8040510643266088 0.5990775781025747
Ni 4.176508319282966 6.886073504201153 10.145796894848273 0.8631273016634747 0.602267288684466 1.5770835687845162
Ni 8.221944702485388 7.545026304243703 0.2478320331523772 -0.06259967710909219 -2.494472717115349 -0.04050850163700765
Ni 7.850215206649168 3.9553278211517453 8.430523034907553 -0.07257298627172017 -1.3065947744664916 -1.948080128111316
Ni 3.198464773593705 8.320416092110877 12.364533791354802 -0.20507401635764036 -0.25872754001703824 -0.1754500228436204
Ni 0.07929571561817944 5.004889833828194 10.303815418091682 -0.018966770910489917 -0.9576181710542089 -0.07975510584245618
Ni 8.643172362830963 2.407000979478841 5.747560511342878 0.25996372641698456 0.12328285392176187 0.5279973743262971
Ni 3.5830371832055277 2.7851383561840715 11.74357302736289 -0.43569939882182385 -0.13164665250542487 0.10408365528549171
Ni 1.0302478632774799 3.4382534681468013 12.862472293340888 0.5842785654165291 -0.19626953069213296 -0.374286028711349
Ni 3.0325386719389185 8.450655365705618 7.979967553703299 0.24263654799244666 -0.38000519058331333 0.5019587841706904
Ni 5.6142992159654215 7.841363642397908 3.4990323992029606 -0.170108556026049 -0.05419988308117117 0.5137640043357344
Ni 2.968052582685094 8.26970513658959 3.474142126352863 1.1834114222370715 0.9889398639856259 0.22089735654314216
Ni 3.4919601984811446 4.260978308196081 9.166198442473565 0.721429435569635 0.7054191761843077 0.9069471270619026
Ni 7.291915009917745 6.24547548156306 11.374179511826517 0.8076112708740414 0.1157340950402265 0.5225173250483325
Ni 0.5274437161569583 0.2122492879030566 0.48902267791255005 -0.6516851769959615 1.3595911241578649 -0.38393306488280976
Ni 4.777120441244092 0.18665396714378443 1.55389029417316 -0.5408161233575202 0.6148654370644507 -0.08388841128453939
Ni 6.08234603977907 5.5878893340787315 0.14342249290802078 -0.8339229121853767 0.30367016616599957 0.9807300744813238
Ni 8.015905990644924 8.795278077357247 11.368761775261277 0.6865925303961079 1.6126702076398742 -0.39098534374390087
Ni 9.175307046013923 4.8763611386010295 5.683380335045794 0.2774006909465094 -0.359254074078891 0.2742909416729341
Ni 8.010547988562362 8.842160595579676 2.5766197582445836 -0.4257998803199247 -0.4452194224971171 0.13932730897913426
P 8.53342382693035 1.6661485834141365 3.646665268071806 -0.44981244118443825 -0.3621061988157054 1.6344963023760302
P 1.9562681049623933 3.134204951319719 1.6430403892972432 -0.9367351569576126 0.3430049592098803 -1.6034718289700578
P 4.7129963791580085 1.019459453678805 8.205834493520923 -0.09973617695007339 0.11695896858626309 -0.017267528831196068
P 8.351179350689648 1.7211224088355719 12.56676940779815 0.8774635157804889 0.11745596282733964 -0.31695017110435736
P 6.3773529280918275 7.64457472469322 1.3250556366479798 -0.48797686806930163 -0.6650135186737516 0.7497547648768894
P 1.8697888652683177 3.2034154951125595 6.060974670999413 -1.2214593781487286 0.6536266169930486 -0.8268953159146339
P 6.883457857914227 3.9269901445968367 6.158455916321132 0.5798585819719626 0.6612540516313192 -0.12866494416928162
P 2.258171610820612 8.541533235487742 10.208175080917925 1.565528259846749 -0.2730907507172458 0.6083620887282941
