# total energy = -381165.92947244213 ev
CRYSTAL
PRIMVEC
9.28994287804565 0.00000000000000 0.00000000000000
0.00000000000000 9.28994287804565 0.00000000000000
0.00000000000000 0.00000000000000 13.59677044383507
PRIMCOORD
 96 1
Ni 4.614323960179526 9.348190906420264 0.9329518121062552 0.16404075256541428 -0.13208322582221121 -1.4792523221666396
Ni 7.647769036226123 1.3783767074028779 7.028428976688379 0.2778496055584698 1.3270090764567857 0.10992751566077842
Ni 5.370813305683922 0.05083456789920368 6.585868170807569 0.10197560780355341 0.7937874776170717 -0.06867365121731399
Ni -0.06353577791963337 8.763909233640199 0.036849487761144245 1.8979580146439439 1.3446098202576844 -0.0660207869754992
Ni 0.879328403329248 5.123394254722757 6.26679207378761 0.03962558481142208 -1.040096589365099 -1.854081882086284
Ni 0.5306368971342406 7.518508769824528 5.688942757515845 0.5264881367706222 0.22737370829610518 -0.25721907379231185
Ni 2.755582881992287 3.7464946482511614 7.02130451942926 0.49065107246735495 1.8910065230267756 0.27887290461666164
Ni 1.282253667554 6.221753501303669 2.448832681297012 -0.5400095682958248 -0.74207410840318 -0.4943771151686905
Ni 5.875981824182259 0.7221026216230176 11.501671218044576 0.597114540838933 3.1257777877930617 0.24709535509474861
Ni 1.5160350822439597 0.0949785188757088 4.10067743973221 -0.7281963219798233 -1.4424827187467737 -0.763768048436846
Ni 0.4012995242060455 1.6770112139247715 9.900297790738687 -1.4107686754729447 0.8980498245722728 -1.1466657300766059
Ni 6.220750187463554 0.9622151324429679 8.897467956651251 0.34503458804539927 -1.8437429620541212 1.1289953093800362
Ni 8.778271485462598 4.277981575166612 2.291355142136456 -1.970418900817832 1.5799017549596015 0.49417091269515545
Ni 6.83921885035127 9.156715891988522 0.08008766929865589 -0.30564760160734455 1.4104130919057387 0.8587574547305533
Ni 8.14025678257855 7.142201050180332 1.080006035261163 -0.5589804529713728 -1.755387516137164 0.804263694558047
Ni 2.167928959916277 2.2814056132219735 8.553198463307126 0.273033158006433 -1.829814010677855 0.12893748110437797
Ni 2.418850319374883 2.6667338674842487 10.733100301715453 -0.9694470453683368 0.9439177907489807 2.2545414838692075
Ni 7.9570219475559085 9.341409248056518 10.62019312191345 -0.08995801451738701 -0.23606635097409667 -0.061854057192319276
Ni 5.400559703054764 3.4745501478649428 2.7492536438508894 -1.0472159740186995 -0.3850386392421627 -0.6043254567650753
Ni 1.7180820517687734 5.56437855728257 11.169882763072632 -0.29424141665293196 2.549709526101467 0.522330405848507
Ni 0.7884021575744516 4.663281959599994 9.314264034715606 3.080896868119971 0.5865748176498736 -1.239596968289704
Ni 5.67031177690147 2.323823492795761 5.480286922566416 2.472962096737083 -1.0351724125906043 0.39503894498798414
Ni 0.8996371476429266 0.2222293706141814 11.462294865797213 1.7593801822363249 -1.0064439343076603 0.9715679483660816
Ni 4.8400974440344875 6.0159719747073135 8.77558669194599 -0.39607252845882107 0.892791918607443 1.028565448797048
P 1.4917790411648624 1.9469769564596504 12.859241240190904 -0.07163170540437341 -0.39805921987154674 0.03666727351404653
Ni 2.882288414078771 8.823225519465566 6.199461354167169 -0.25810533305200706 0.2637064812888684 0.18110799246034617
P 6.450778465196042 8.080949786696145 2.3649138395199873 -1.4858965669560344 -0.4218349821349058 -1.0982081487958506
Ni 8.15388512890679 9.26522242580846 2.357666755013743 2.9806886366294862 0.5732513610680902 -0.06753208141370304
P 0.4970008006443563 7.371671931334979 11.977409197232847 0.1699090384207332 -0.4479247372434221 -0.6122652804374423
P 5.915185383490489 6.271696234678325 11.315055772777322 0.9387051361997898 -1.3764683595291778 0.14374729242370082
P 1.135844166440796 8.328628956060303 2.284529821040779 -1.2292593338091216 -0.29663022860008265 -0.3346995246679784
Ni 6.152487686563819 3.002955483238631 8.169578629555936 0.26737801660318467 1.606621687452949 -1.5895603610952882
Ni 5.900042776459111 4.023334948579427 10.216327715460737 1.1275259239233613 2.057752590338495 1.2793842754899707
Ni 3.8242328909742125 9.079247057611429 3.056934696831161 0.5510151753777092 0.32430172637342214 0.8128581210952776
Ni 0.3126892612321832 5.145485739091234 13.652789097173134 -1.1850684982245203 1.6901612000385022 -0.9667820969416641
Ni 2.823882542663878 7.241872848241472 4.061328028319444 -0.4105856344733316 -0.6407039953941095 0.6725033992928935
Ni 7.57249262838854 7.531737648605316 12.372449157869724 -0.22530191336874103 -1.5544902568650325 -1.7693946290495335
Ni 3.340682069753187 2.5578928957176057 1.099722081213736 1.594962763057782 0.36385172075190236 -1.9391067209681117
Ni 4.4387347482162856 2.380018357785213 10.031181010176098 0.6626424473384137 -1.5307137232707249 -1.4315488454430894
Ni 8.465980762783571 1.7445955489881313 12.44872702155883 1.4870656475634711 -1.3999415029504536 -0.1669820945819253
Ni 4.365873725549354 8.730242480338534 8.727467574375176 -1.0440136650313183 -0.026094640204522804 0.1858614479849315
Ni 5.086791879444457 4.671048351917928 0.1377150434931625 0.11118761332012465 -0.09788344001205078 1.0478741764279889
Ni 7.219233257238116 6.220824507007265 6.089503731256249 0.41316085139967557 1.2406022696257668 -0.05730963235474647
Ni 5.7300925598750405 7.092518435208669 4.140692940055498 0.9905223779813974 -0.5577573791975491 1.1144035276087905
Ni 8.30896214680544 8.689552530156057 8.207160164822646 -2.0859791892843558 0.8175614401082177 -1.6884971820725179
Ni 7.761347878904424 8.83702108476716 5.749449085034906 1.1072872282789834 -1.3465517744754034 0.40848170075645135
Ni 3.101094440710705 2.3737662261704173 3.2714915035513457 -0.6694224463747246 -2.3698919703177705 -0.8155672924963244
Ni 2.5455465615184028 8.083430201467543 12.976961539442572 -0.3989524211097774 -1.8463058376852912 0.8631728101894295
Ni 3.85161964283219 3.322668870345922 5.073145882224584 -0.5436415086214572 3.03688935219077 -0.011611616096999356
Ni 1.9167196122257861 1.8343363980207168 5.3236798510615895 1.89979661051458 1.171135433083196 1.5099129844752899
Ni 5.014553282956115 8.120079026460663 11.61878023904921 -0.4454215112055941 -1.6384298331024814 -0.03707453625479421
Ni 1.2544581582056047 3.6730669390634225 1.3789025181746422 3.6368020246001302 -1.5148495025449589 -0.02021632704687486
Ni 7.081026775762157 5.269339258687759 8.406312388119867 -0.3626062783805755 -0.341446870694141 -1.4892287166530611
Ni 4.256568256634509 1.924551034144468 7.538362306932969 -0.5130633787242842 -0.4919811041326882 -0.5510403721886897
Ni 4.513323700274529 6.746161491680524 2.141463770400332 -1.4116284523700786 0.006032579347325095 1.3734126034219896
Ni 0.7400396434979778 0.4277452048417661 7.0185853531236875 0.35996138455856075 -0.5276181366100074 0.2365219504542765
P 6.278515052813928 8.054064691758226 7.988157191399875 0.035196345395474865 -1.1481052907366098 -0.4618434042070433
Ni 6.647613776718032 5.562065361484526 2.338875987380388 -0.0968071762287365 0.37178665932826294 -1.377406297962415
P 7.315216947942534 2.2732769131284427 10.367102560772743 0.46065555454652923 -0.36075097033939163 0.13191713255799214
Ni 7.4983774634214635 2.8262700580056355 3.562720996536606 0.7901856191984262 -2.075184412661697 0.5222928677423522
P 2.2394708106823162 9.198882943102282 9.013203924085802 -1.1623767130539593 0.6634482310691605 -0.41126671970075623
P 7.421261646877003 4.688104687199897 0.436662621092944 0.7309618005401024 0.8885552548182762 1.0838097139823335
P 3.906876223582275 0.9613140079754564 4.873110185351484 0.819365326086176 -0.04792150627162715 0.3747902220412771
Ni 7.658684719208864 3.709455645653551 6.2466830632476595 0.7101289229551512 -0.03018449400318027 0.9791179927991975
Ni 0.4550344122986212 3.8042316437726433 11.637611882431608 -1.9031611561114385 -2.1596978591247447 -0.04433636002353009
Ni 7.036927416511879 3.417584217609475 12.391566002501117 -1.1211161637422755 0.6036713681208442 -0.3369327848738713
Ni 2.273416262272903 6.181667397413855 7.929500491524952 0.20409648293571947 0.8547110525753214 -0.11694765573235344
Ni 2.9963410438482376 7.705812599865418 10.47564532537024 -0.8861060219468353 -0.1725647308760254 -0.04951816133478568
Ni 0.21683562972926226 1.9718554237173382 2.5720061770685696 1.281403877023161 -0.8375160288532738 0.9188017124076435
Ni 3.4891446482614428 0.47025505485089736 11.86134715280026 -0.6387751538025128 2.304467422165373 -0.3879930938847963
Ni 8.19338596638987 7.2674852209933185 3.6568652785341444 0.6407785573857868 -1.1504557932466575 0.9638338129466175
Ni 3.265814419406023 4.659361603669171 2.8245114718025435 0.29737430585495883 1.0447999083780395 -0.20070005565966081
Ni 7.152085549494066 7.012801434634278 9.715803239450123 -0.9759673629853579 2.886347919663371 -0.26082196065222174
Ni 5.108521056037336 7.0117423811363775 0.10466328441571608 0.8720282036975305 0.9668468887413285 -2.263398420039205
Ni 9.039198113493471 6.356699212799253 7.599465977784619 -0.3739934371715946 0.8529814714787245 2.0695482974218424
Ni 6.294484464769106 1.1677644104652232 2.3745131375847257 -2.4834321430304716 0.050794714054364136 0.26106904366602135
Ni 2.371072142710847 3.995855297291809 12.887957382887034 1.427335064472058 0.6212209469688333 0.26450352326886706
Ni 8.400932582149393 3.5665205832088964 8.850899330561132 -1.5007128060332606 -2.5207128817588007 -0.3870191600073012
Ni 0.40381616975500284 7.915765310852627 9.528834776350235 2.7598427021495695 -1.6775134293675045 2.2131827184167627
Ni 6.0770161899239925 -0.022464940075631275 4.425272691867102 -0.6398575882334142 1.6160303823613589 -1.6052978264352031
Ni 5.243903394852229 4.981360316745614 6.716505206756432 -0.08945407829777498 -2.2586431647424066 -0.9782839269336765
Ni 4.550557791674384 7.108552876764595 6.435976799071444 -0.15171257001736455 0.2915438152161108 -0.14589056401894873
Ni 1.4323048263091054 3.8330397569041184 4.051864363421981 -1.4555534358878028 0.5145641316395267 0.29110878456122125
Ni 9.017245978269454 1.6130592465603493 4.977125031748311 -1.3659229799131638 -0.23345745259633985 -0.12889608634348126
Ni 7.737342666285355 2.376896936949297 1.1232980984678658 -0.11659490037862501 0.8540502790628711 -1.3250781779826597
Ni 6.68130839984859 4.622675618904194 4.428658876077493 -3.3405461486203305 1.308184744661431 0.5241312065026715
Ni 3.977656299025263 5.312714002386842 11.282545617374678 0.6871327191702941 -0.5667297578994885 0.03061669644459243
Ni 2.3893640404070333 0.4640177871448437 1.3433183206451997 -1.8457358241144342 0.27865744617174587 -0.7263651823083555
P 4.287104299157294 5.7092923775785644 4.604314975630074 -0.8272596412325881 -1.876891166671316 0.6708712630061091
Ni 8.4763576290744 5.6172754925197905 10.682833349331352 0.43074873968476785 -0.4795274517503677 1.422842833028659
P 5.568215303726718 2.0467509438933944 0.42855621686252643 0.11299818416630217 -0.29561592840295536 0.24452219505093373
Ni 4.572249808495408 2.92415818701768 12.380988473442267 -0.623363961453765 -0.9617771875279049 -1.1338323257573635
P 3.1162927873998676 5.840419922515929 0.3577259757275322 0.15632461486807914 0.45055574710836604 0.5413221164596613
P 8.698712413918596 4.991634993663839 4.336880742552894 1.8637294324783775 1.0475856986532925 1.2841117628726273
P 3.2034324524025233 4.661173142547158 9.147716724239261 -0.6252748053232328 -0.9393918778541692 0.5240677002545878
Ni 0.6249902028484697 2.780247680561802 6.898878864066308 -1.7306481044089548 0.8730270772756901 0.6188524467366567
