# total energy = -340885.04853061686 ev
CRYSTAL
PRIMVEC
9.14694799200746 0.00000000000000 0.00000000000000
0.00000000000000 9.14694799200746 0.00000000000000
0.00000000000000 0.00000000000000 13.38748297397363
PRIMCOORD
 96 1
Ni 9.016119369947223 7.70387989163759 11.601030458174353 0.2537861368513629 0.8640246166667637 0.7729970232342815
Ni 5.371737398519296 5.744091364608075 11.251376473358112 -1.110507277878178 -0.8996454511941668 1.6518391645298518
Ni 2.0751223965002192 2.933837890663887 8.275833987209673 0.13956770712471447 -0.7915513891977013 0.41973336241087067
Ni 2.108911223038785 2.844216092497977 12.568290042182417 0.6771344703070016 0.004709746770843502 0.7907772300358381
Ni 3.1740824843388844 7.042354306114531 8.13507800469115 -0.31754949525125314 -0.8891671773706621 0.8529357058424537
Ni 8.524233085177883 5.150262342488353 6.587859830767772 0.07188213085228265 1.0785595213269876 -0.2099781385274771
Ni 5.019323779440282 5.710256803328661 7.22634882732565 0.19644513703804878 -1.01219394941756 -0.40803252903417464
Ni 2.9965402203666134 6.922986632501026 12.856321037179947 0.20422683786599663 0.5191658920775962 -0.634118628867108
Ni 1.794841610686807 6.439506393099567 10.601828816463168 0.7372879998684464 1.0573507484598563 0.5359467110803608
Ni 4.856105636301632 0.5206369722560786 1.8582766109379198 0.9308375605262549 0.1538933797187672 -0.21453336199832732
Ni 2.748603043280968 1.3339634802124718 6.4445875228077885 -0.31252247435030694 0.7342296726580968 -1.7116247692289166
Ni 3.4587812461182215 4.984400731328684 0.9295201905550413 0.7161339914986506 -0.47026556683246756 -0.11794935752399043
Ni 0.45779377955154016 0.9652408525470306 7.179238385472853 -0.0904462670077152 0.23094831302124094 0.01561893748417955
Ni 8.79125079614535 5.08844726675808 1.7794372352743546 -0.9378744127683784 0.47483647403260165 -0.8605500278546018
Ni 5.298415461991644 8.222594175388416 4.001077276945137 1.29890563335235 -0.19543726459882468 -1.7029331549921898
Ni 1.4612158231481873 8.77288372422076 0.4962576112995977 -0.446104910425864 0.12613189333478278 -0.4345118062716259
Ni 6.3474332128242 1.8673037340865148 4.167965175689438 0.5654200379491295 -0.20167604641968492 -1.4617567364850375
Ni 4.447666959683713 3.2547128324540604 7.067827642072099 -0.766855429112918 -0.20035372806383558 0.24599235183855697
Ni 3.626170397622217 0.6476121626622545 3.935050031582755 -0.14755946708093942 -0.5649155875088852 0.24674157129975566
Ni 7.138644229496093 6.523960165549642 12.827377349086827 1.2650290352095632 -0.22045846923351065 -0.2642268725687127
Ni 6.232053608612647 4.475016334710869 0.7452146731061554 -0.30080955678875293 -0.23738095602046216 -0.2767931392694975
Ni 1.1630984884040214 5.1202329116475 13.075006274019156 -0.29751237409471987 0.6847809311086658 -0.5780500680083142
Ni 3.924498112174284 7.423900955113775 1.7826770843160331 0.43065772263285834 0.12801985438611502 -0.11668128944484421
Ni 6.230608390801848 2.035790519370865 13.242295723788104 0.27634679576069826 -0.0808298269638737 0.0702188842172468
P 5.079583873981721 6.39545469071469 9.258930597278614 0.37014835239389154 1.062118859272461 -0.35726789688679755
P 3.0210723353575273 5.039428771517102 11.694836985127864 -0.44192841045067116 -1.414030376943352 0.10021311658649194
P 0.46439787613000383 1.7797582931551081 0.5330722482926733 0.987416228252248 -0.3469690860639508 0.27875720497440376
P 6.7602807184598745 4.15640983606676 7.444511773424375 -0.23589562972418726 -0.15976526511851194 0.3530109213826565
P 4.303959256990856 2.8591804997034713 0.37534044466615935 -0.7824185736584977 0.12632189785840178 1.3772615448544345
P 2.2808098199904023 8.773487422799954 11.709215072955685 -0.4075923561729626 -0.14100186846807974 -0.1917474744520633
P 2.335096957377081 4.689365918117679 3.057995821033821 0.44090048340678906 -0.06588554694921556 -0.67855911856867
P 7.207603071746837 0.5541486462651054 12.025882418587834 -0.5911205280390271 -0.834127314886699 -1.927271676006397
Ni 8.449969012988761 3.395264838028399 12.763479513258332 1.4855553815665319 -0.7358805779979585 0.847079761282309
Ni 1.719708578421571 6.642202764538285 1.7206260173229835 -0.9828350366394687 -1.061170893536895 0.27915778284693216
Ni 4.149101424479236 3.3482037896957184 2.6929456930584807 0.4562425130804981 -0.5782431578557267 -0.4018675378740434
Ni 1.34404341709539 3.736683825407533 6.141936045855944 -0.8206115397884512 -0.6098075629255693 -1.11542631244635
Ni 1.4773784805639008 3.4934847674737495 1.502851816521468 -0.8379729138850344 0.46385966330612377 0.34143710050212805
Ni 7.925254331238667 2.5792198570759957 1.7008933060366682 -0.43276037079815793 -0.7384295696720573 0.1656183814651793
Ni 1.3501901662653728 8.308008377396302 5.009662772783533 0.6041735045682434 2.5774774402433547 -0.8884195005713602
Ni 2.665539606952674 1.4902756774830612 1.3907587107872594 -0.2948122015547374 0.4342552101761295 2.055731703253724
Ni 1.1860664752579306 8.738509492999338 9.561943378683159 0.36973054813018263 0.3364224208963561 -0.12132830129855234
Ni 2.635235767666732 1.5405564515714472 10.46863736008092 -0.36517943842439043 -0.42680286766314235 -0.06547776998783561
Ni 6.154642986253177 7.521928798647565 6.093554178207571 2.9110281960188704 0.45813613055878516 0.9628922749689546
Ni 6.21429023526725 2.057011439124377 8.223181409460905 0.360503887325592 -0.18818469680146946 -0.31284643334862894
Ni 1.3095228347032546 3.8002002334973555 10.537568761487156 0.02628335917656119 -0.46675421124509936 0.19580801767468214
Ni 3.4434601079341127 4.397038601564882 4.955511010229765 0.9208439396486529 0.6261988597993989 0.7015401528448756
Ni 5.876731260015696 4.060485790611984 9.557913233319624 0.1644277035911878 1.222895596374623 -0.3146989131763354
Ni 7.811310797889745 8.993032472767107 4.7800414447127295 0.42959945657167303 0.08811479066106115 0.35197836635308416
Ni 0.36924125962665855 1.0522557704845996 11.820478550490908 -0.27934213094359633 0.027542685504959016 -0.737067399217208
Ni 6.311211298072515 7.385492919749553 1.7644298374124636 -0.1312818129668384 0.8049350095934589 -1.1212195220893595
Ni 7.545628541355042 5.979808218939112 4.066501738423141 -2.9557836458576903 0.5806715647915612 0.001050809862017545
Ni 8.00981786706678 0.10233971490094572 0.687391325557103 0.08069690093043522 0.6844775409356341 -1.1471025605037082
Ni 5.158924502404981 0.8040807727465442 6.1453368811854086 0.5120475358652601 -0.13556681349543748 0.22415134470406556
Ni 3.9495607501590357 7.8468832793213865 5.844158977583689 -2.3921620945698803 0.6750364501273923 0.8784629035792807
Ni 2.2449629301136724 2.4888571561083466 3.980621042058605 -0.23247297719588347 1.0513163693403185 -0.17381557256399097
Ni 7.274275176955177 2.417767074934081 10.483215766073656 0.5648646796662917 -1.2312519387591183 2.3048111786580368
P 7.021810260525571 4.07108710354057 2.8983632815776605 -0.3750272777527477 0.48063611143351415 0.43665584919782213
P 4.3157222323369835 2.502358051606702 9.431883837354189 -0.26364014682730724 -1.2201231758358084 -1.2323582844494196
P 8.917817117968346 6.988734895944235 5.322046602587851 -0.9921480865102783 -0.3956742645791379 0.16931331381826323
P 5.13359660292331 6.416117646629855 0.11727485187229678 -0.9439810398867485 -0.048234923746987894 1.3680976189669793
P 9.08999012336505 7.083241164432721 0.5102368921872238 -0.6236529534490936 -0.7123022764573862 -0.2259395469527399
P 1.9503305826221307 8.569784887062578 7.209226655046944 0.7970826034285756 -0.4972688348941887 0.07341965054273161
P 2.224638411280783 8.440190925395441 2.8366204667379273 -0.3800910654289002 0.9757385348040034 -0.28966742412900437
P 5.027985939356911 6.161704430240121 4.915977900240679 -0.3662053085857435 -0.5112502367749453 -0.24861693394559764
Ni 7.32128134359884 6.135964918090818 8.628688489190463 -2.9196455053742363 -1.9194956316054037 -1.3445907940942907
Ni 5.837829289450313 8.554994271872307 8.372210806598845 0.41656936286059226 -1.980515365821886 -0.9245460710905883
Ni 8.355910944960588 7.845657588266659 2.521947155806754 2.3302231909732387 -1.0428145025168944 1.448117548435048
Ni 0.48294514293353674 5.373292379708131 3.9515968608215926 2.719026953684788 -0.09337475350841984 0.5717102418332154
Ni 2.8856792085508522 6.552681582802241 3.953912868098139 0.41239286288539945 0.6432151918517374 0.07421206453703993
Ni 1.7798863504294828 6.368022993154008 6.234590972034899 -1.3214819759909693 1.2844951143539751 -0.699517465987892
Ni 5.446614316235784 5.60393267780503 2.8824457623728925 -1.0234772356408632 -0.8071209615011841 0.03333512381702001
Ni 7.9748033494734845 0.4747192924445999 9.060487556738767 0.06379344030687722 -0.06873741457571388 1.173125209819715
Ni 6.138635826956346 4.068425341623212 5.340253602919474 -0.8135101528569795 0.8454517387605828 -0.37587419913407527
Ni 4.498350199491562 3.009355094752247 11.538511067435019 0.2016297665627818 1.0678699028236254 0.15025501163523156
Ni 3.8459532682417805 7.914470079346689 10.368525841754092 0.26766829415009386 0.4261768040433692 0.36289449904495563
Ni 3.7609506789015277 0.22601560110234065 8.264360970120523 -0.7468802715425717 1.4432964728973208 0.781735431548544
Ni 8.33172641400012 3.472840105454923 4.576216339869879 0.3258423313876646 0.6377747375624565 -2.796729290763274
Ni 8.618519826910298 7.915357333319141 7.490912412099209 0.3515631331925365 -1.0366927058898727 -2.116908017652728
Ni 8.271091294583726 2.755298609341128 6.5803492716257 -1.2186941566987657 -1.173254536308728 2.148990757119886
Ni 3.773308205878681 0.8982010400222719 12.964318139523801 0.4032973283420345 -0.8589322897455207 -1.8910427755813497
Ni 0.5051603359530862 1.1446308000495644 2.898336755427968 0.18705058319702628 -1.2945748671874802 -0.5438801069948247
Ni 5.572229355449137 0.6633074110265008 10.200030824216391 -0.84938552659735 1.078398056048459 1.9838647419100932
Ni 5.216586863666248 8.301998832448863 12.42557935684005 0.7636919437832718 0.24125252316072643 0.03968112063970585
Ni 8.42297636894022 3.739510232391945 8.990739332860985 0.21757420570718014 0.4811130510699328 -0.9470151987273819
Ni 6.6198384762635705 7.618081517806581 10.495719644221522 1.26345063497885 0.6743245116620322 0.09208328839050593
Ni 3.4488933951468654 4.6239652387049155 9.372282323080961 0.2989568198507303 0.7808692268935068 0.2850507512925994
Ni 1.0548169159720926 5.427241080012533 8.69452730742055 -0.21438732333876626 -0.4034485092079181 -1.8990805582841614
Ni 8.780832422180158 5.385814551752337 10.845776094757225 -0.1128529168376895 0.4299586396833047 0.07515128852185766
P 7.184223472225295 0.3734945905255306 7.007357167722759 0.055120338012911524 1.149157386150208 -1.1333584714447384
P 2.777443370859771 4.917051751955792 7.16405719559574 1.604833742314591 -1.5765392662452722 1.9412834169044566
P 6.952330042229159 0.3505311771457065 2.600867024614212 -0.4430941486239982 0.27657768082458173 0.7460081533502636
P 0.5062927281364847 1.806385059276864 4.950891801404108 -0.1471077242555015 -0.7450527314155297 1.4933681927427314
P 8.85652341828374 7.082280734874911 9.405550688268677 2.1277542163386127 1.3699889224524213 2.688785638301743
P 0.42022086055520336 1.9200999189215457 9.42915255863074 0.7703009644593573 -0.04478347486327771 0.49652784296310615
P 4.436590005450307 2.48185059381042 4.8864049021134885 -0.5651487865656138 -0.15954749268075102 0.4240013936586053
P 7.160166998539201 4.483733376316514 11.708197932319223 -2.793623655254756 -0.07524102002218655 -0.8644493629090081
