# total energy = -340871.5649897699 ev
CRYSTAL
PRIMVEC
9.28958189201683 0.00000000000000 0.00000000000000
0.00000000000000 9.28958189201683 0.00000000000000
0.00000000000000 0.00000000000000 13.59624210429314
PRIMCOORD
 96 1
Ni 6.20076815976123 3.8122586879084306 6.759046031048745 0.03214675993587367 -0.5742831447667143 0.5586827192252959
Ni 2.416907724226054 6.35792930913994 4.148947513404183 2.8376638241941063 -0.34959881037731405 -0.1815759332357002
Ni 4.545132396194584 3.7014153947067068 3.7453839155794086 -0.27806120734864376 -0.09122453993463643 -0.040478676840336736
Ni 1.925098670531312 7.507765908421683 1.7727866829906263 -1.5545835879097871 0.6740704866696973 -0.516502229202504
Ni 6.800726527858793 1.4318683107805978 7.423643169072242 0.15574945909089952 -0.4678009073420588 0.00012444139300623732
Ni 4.543571746407634 9.146020863944377 9.008965157029337 0.03681511194582047 0.19508219525225112 -0.06978950998931206
Ni 8.903739274102426 9.364734784086966 7.122120056484227 0.33180163429489307 0.9177185066457937 -0.3895318991268259
Ni 3.4599419985044264 5.060081798813688 2.2246988396318343 -1.0758457219402502 -0.16402969682182075 -1.5144610088572885
Ni 2.2012407870008426 0.9412018756798732 6.888454554007731 -2.194784161304917 -0.05416337341628091 -2.252954341887746
Ni 0.24656408717399864 1.00438032330516 4.61600540464446 0.8287981893643016 -0.7756637714331673 0.23897015488445295
Ni 2.3113594928014827 5.629765418960831 -0.1501419411702598 0.9281592423631434 0.153081168230117 1.1662392813331592
Ni 1.281265606339905 0.7363461540621181 0.6598687407523202 -0.21274490263933685 -0.15742556124174178 0.4419998871185549
Ni 7.5387280854449275 6.047768743147721 11.681374475334298 0.49134861275501185 0.7428449251309335 1.6670981475714517
Ni 6.050537038603145 2.1912916446090356 12.616238998129305 -1.9474494365058526 -1.7343638626976454 0.9995150683983108
Ni 4.341569784400303 6.921649017601237 0.33201059196772764 -0.02418791010011318 0.685792917312948 0.30997039735241455
Ni 4.8902682386622045 6.364013985392631 7.758763913115391 0.8823771510320223 0.4448671813640209 -0.04908852999653482
Ni 7.05028186045778 9.209682369837054 5.115368746474606 -0.6298552256050637 -1.8341889998170993 2.7851143322321645
Ni 2.4621944367938045 0.30879685534505025 3.5494759194068344 -0.8816089054074301 -0.40649243824056447 -0.848529606354958
Ni 5.739428935240277 3.2303221090173153 9.247361843651628 1.5685817019610921 -0.2273425979478536 0.33271411880683344
Ni 8.33259718957105 4.8829480479948435 6.472409473720181 1.4938330481942919 -0.1995749409162821 0.5278629056309619
Ni 8.20413155919168 4.243657589433308 1.115387113151231 1.5956808721707292 0.07813428240958156 0.3705628142234908
Ni 3.984088087368059 5.0775369235141605 9.886276074139523 -0.18014305744391557 -2.3926698874442343 0.4023028256392491
Ni 5.389704039232459 6.103515525120864 2.946767835017978 1.5898470390977717 0.0046184726086178525 1.1437071616689143
Ni 1.5384848441426648 3.5315368074807663 0.8276618168046278 -0.39871767939115205 0.27752384678793496 0.9742804622012382
P 1.6394811803552982 4.387729717682181 9.484154219451266 1.3228446606664508 0.3949001054172747 0.2944525042224735
P 0.6630132642813834 2.3431763113747226 12.978225213504956 -0.9529387633006686 0.18241514130754388 -2.02208341907166
P -0.3266597926981842 2.2046872219470246 7.216097184488411 1.0518473021431238 -1.403465456943312 -1.8421074833332276
P 2.4050542175108847 0.6406876117041371 8.887482505488363 2.001595840641269 -1.334958156100533 0.23828161345786059
P 6.635436994173052 3.694411049829561 4.144406765690722 -0.2295789434775401 1.1426452960633031 0.5331688912249076
P 5.708541074873555 1.498985541201521 10.634001966231486 0.05401913452893277 -0.4085140966562836 -0.3477018504649173
P 4.424915914689095 4.149712046008147 7.89518792845 -1.4441158834748227 0.06722534880656164 -0.9407756455755734
P 2.593902131313922 8.643761030426308 12.849319256935697 -0.19921910023876013 -0.1528885926033367 -0.4443077093161251
Ni 3.2796497897834196 1.7615091303634982 12.856049559141919 -0.2613734622803176 -0.10543579843801196 -0.4616960799959016
Ni 1.1638452890360342 2.355336374298043 8.881351381325343 0.601363545923274 -0.001760434334532452 -2.1526100990400283
Ni 6.078294309813901 5.055985093122944 0.32917448256322834 -0.9416408217893459 0.49811549916520026 0.0533403632943533
Ni 1.143881977177963 3.896635961806457 7.0031799635544925 0.35924867476225225 -0.17617970192079335 -0.059218419341685105
Ni 2.615602595018182 6.4598267348128955 11.42199912553421 0.06299562699593021 0.8560673094928999 -1.157676993585445
Ni 1.6120862028450833 6.353173043122568 6.3529668144007205 -1.3114541594413223 -0.7696414764984874 0.14819607222367379
Ni 6.6440948846577985 8.352644107667707 11.071664832942917 1.0911815809663723 0.45012303044632157 -1.418677645907376
Ni 8.122243893287122 0.8851959143671115 12.22355257194465 0.8541942608399031 -0.16634214700508126 -0.9963934920501938
Ni 6.432106621930399 5.85697930669306 5.839191614954655 -1.152272791850738 1.1304808927866272 -1.9312867107030611
Ni 5.100519349543416 6.65344020421537 11.791926075659175 1.1063397767640495 -0.8491178747582602 2.0344925913692897
Ni 8.038479731805397 3.46272887312398 8.459201187704558 -0.7578313712374367 1.3245421029735318 0.418122309170009
Ni 4.320305931053106 1.7632277030455565 7.2266343574249445 0.8235138010369106 0.3830861435014822 0.5828634302365575
Ni 8.271443870835972 2.8092532227489166 5.141867279315531 0.18371971905158035 0.4880115779619788 0.8916470063697225
Ni 3.6949405560072766 2.424776000235261 10.08068937655781 -0.6416524753503078 -0.8668052647356942 0.06607503725220233
Ni 2.0724964691595176 2.8170564716836677 3.894439904606249 0.5663790594282891 0.2944609888629057 -0.280115261664195
Ni 7.307278148290975 8.146944891998436 8.227616551610662 -0.6990443830062154 -0.8785996862674611 0.5252902598077792
Ni 4.4359798069287235 8.314761192005905 4.330117587630349 0.6787465519891277 -0.4213472438652099 -0.2654193502149171
Ni 3.3740040748194495 7.898755127963029 6.473782473949414 -0.3093870140451188 1.5659769173483933 0.9285657337729427
Ni 5.921764852015624 9.110896954155933 13.16098566418068 0.42493676098868105 -0.9321902178994075 1.0192709108689995
Ni 1.3351358927358818 7.941496495044921 8.160614512007347 -1.3423112540314948 1.5591542379996053 -0.049036593712676844
Ni 5.152578167436682 4.13874104958917 11.71124605542309 -0.3620396072438281 0.08912369154154974 0.4528710255051039
Ni 8.436101712941282 7.191399901609924 5.9783904284521325 -0.741480183572923 0.6422361157679197 0.6512578596505558
Ni 9.274003436056358 2.779582297632733 2.857970577973339 -0.7086564521746828 -0.5960722156173476 -0.8142526874499589
Ni 0.33778778305406293 7.183587363093108 3.890211286850179 -0.9158287458222484 1.6508127801478665 -0.69940536589006
P 6.952564746714155 7.167934417313281 13.607935326082668 -1.190982292605794 -0.04988531486621731 -0.9475767276578068
P 5.502126561385263 8.859929605083039 6.997619219730276 0.3623591953667759 0.15088158947563693 -0.45176005182911233
P 7.757414136841321 4.304522931124366 10.340431664849472 0.1960910961327397 -0.15720573192145185 2.343272567958029
P 0.8666892089768606 8.4755545679721 5.619422398289461 1.7452702251975039 -0.5838137099649687 0.6516754068039486
P 8.680826462866374 6.266222554992486 8.188309543018267 0.11636967174169636 0.7422384018951861 -0.2198331769446859
P 4.465762207029689 7.164608746933946 10.006209223392025 -0.8483190330060487 1.5032132038576111 -2.267969070129023
P 7.3610555388663 7.307677600319779 3.936384225546948 -0.9662146544739683 -0.07912055758225083 -0.11385924661501681
P 3.8651814369337587 7.4660092370387 2.32978444986956 1.3382561101255146 0.5602282093355447 1.4308926999163292
Ni 0.3419634501923612 5.915819519493909 10.307991515319658 -0.16083767224708428 -0.20082089750824125 -0.7553625979819701
Ni 3.3089584211990615 3.6182178977309576 5.772556513842915 0.6626087658870008 0.44765631407338385 1.4314552572880186
Ni 0.9179110355260548 5.205017858194622 2.653565401085745 1.172960659217393 -0.9947806390371189 -1.0213388491416215
Ni 4.936716148988103 1.1949468097902556 3.2212350398411567 -0.8072896258685646 0.16141025692110267 -0.295427209430917
Ni 7.787753911866197 6.414447126424492 1.873861051692607 0.03133172023374604 0.8592475069930943 0.39355824667739964
Ni 4.304262822826541 0.04416360209607064 11.497689711243087 -0.8122148310843238 -0.7238766115585469 -0.5989955599117297
Ni 6.3865133531544975 3.2281018989037378 2.1321216516448738 -0.6768017695579311 -0.2891943411473277 -0.7017635817095914
Ni 8.398293113936 8.731203866405844 0.8581511541007539 -0.20027068143172605 -1.0758974011137923 -0.5350681651301495
Ni 7.795984481575947 1.30091307240776 9.695262758757092 -1.7539970635475406 0.39136972366651307 -0.5449807962581711
Ni 7.802459320275377 1.734049125778827 0.722349540764512 1.7342605043505617 1.095654014915429 0.8974093627747963
Ni 7.530237407437352 3.7176164258283797 12.58076580005521 1.3535845129524688 0.2834895774530666 -1.5452126882178485
Ni 6.362248964800249 5.849947093069719 9.747920754693563 -0.23536906779675593 0.4740934252189899 -1.6649173378700488
Ni 3.5831218566887086 2.6216501129426137 1.4550021569975147 1.0252898633695697 -0.24241620445152445 1.79565304852543
Ni 7.357989976784792 0.9196992800736018 3.293948314498144 0.8226190571367833 1.987400008756861 -2.2093337769843178
Ni 0.235906149670618 4.845000105258584 12.658577197349569 0.31798272613392975 0.3774880805884144 -0.48056617742752716
Ni 2.3199059083014477 3.586066654203371 11.772429100820776 -0.30639450707569815 1.0949688159229467 -0.5103161549964502
Ni 6.089785522828528 8.50347905166003 2.0162954266233872 -0.3176495111642271 -1.1441355074555843 0.5539778575504588
Ni 2.7161251625454907 6.3412359301688115 8.56378330259435 -0.8155446667885051 -0.6930002336946646 0.12815432308145025
Ni 3.651632524419409 0.24690594379399725 1.0628879690680746 0.7838051695933792 -1.6936684418608121 0.5683408111403503
Ni 0.48082969665190595 7.630184020876621 11.967684039374168 -0.015427390298663753 1.0049210699052307 0.6904448142626625
Ni 1.731819626083184 0.8938668102667502 10.79575588498322 -0.3340698615037795 -0.7597285882601497 2.150627007171728
Ni 8.305211501642901 5.12918699979656 3.90303276801654 -1.6670089302917548 -0.6979483217285593 1.2017819543244592
Ni 5.8928742517929145 2.0558681172628464 5.291127639147805 -0.9218649247139994 -0.7975813974418651 -0.5099896248949668
Ni 0.13098310711903324 2.7154841813829935 10.720854913749884 -1.3267069718353344 1.6368180085306716 3.0047258800843477
P 3.8908113938515894 4.109896897276786 0.01270814826516578 0.5251871585710116 0.7385344706810377 -0.7549069985017901
P 0.9946819996291125 4.627735359918162 4.853641274495614 0.5363385472021408 -0.4301702414734785 0.5236293271655885
P 0.4241270166842558 6.179978075099358 0.8014456872584843 -0.9029696304713932 -0.31616958418459096 -0.6317532139587249
P 9.365756638114137 0.31836233799756575 2.578473064461865 0.8669266208049069 0.596119009694883 -0.19809012884063948
P 8.970531369151068 9.096414495716317 10.416883067329488 0.6348642487838808 -1.8616229276583358 0.5441654994457273
P 4.294722422045601 6.262906174195217 5.532392948711825 -0.224674049976755 -0.6650592843100224 -0.928494257105059
P 5.836876651104013 1.2555892015117485 1.193858999730423 -1.5269074621507575 0.017480416172950538 0.529914645953668
P 3.6645264643258786 1.1723824149539344 5.125076359732718 0.1784859814564668 0.9319145956405177 0.036472383894421055
