# total energy = -340858.8594498711 ev
CRYSTAL
PRIMVEC
9.38940410364004 0.00000000000000 0.00000000000000

0.00000000000000 9.38940410364004 0.00000000000000

0.00000000000000 0.00000000000000 13.74234200118739

PRIMCOORD
 96 1
Ni 1.8916832111983988 3.1084560674013098 4.831945007994461 -0.08119672338498919 -0.8335683570594354 1.7794239882610776
Ni 3.514538398274986 7.874498727042372 11.732016089151271 1.1753540991502338 -0.3079191712503407 -1.5242067753901427
Ni 1.4404847944071748 4.827571423640581 10.096910546758009 -0.5757227054267181 -1.6635330559280126 -0.2536012745340665
Ni 4.0641565471344165 0.17196317734558095 7.662688797268719 -2.0448556797711688 -1.4671511680277314 0.12609666922147317
Ni 0.5694204017626787 6.969275682874871 0.6184922435589073 1.449488974861278 0.40476362847491587 0.045014617037477306
Ni 7.357574482691765 1.594611860033927 13.185007569602602 -2.2906816812351902 0.3615719235787902 0.71384545257479
Ni 6.524584123012025 3.3517543022182696 8.230632245792098 -0.9097838251797492 -0.537024517525572 0.8432213067681671
Ni 3.5847148033005323 5.514903960044792 10.855611942487771 0.05483725955485395 0.6131782791700149 1.8082697088481763
Ni 4.696363893024179 3.7752445879912453 12.225791697035461 1.4443925341749768 -0.025760139683239505 -0.3413445407883218
Ni 0.8981471893605366 2.298986164583892 9.844738386280138 -0.5513815575781923 0.22604676195456555 0.6572382456037068
Ni 2.0042433855958097 7.602299906907158 7.457212959391002 0.532030149634774 0.5790607686610156 0.1562387400224922
Ni 1.2439645700046211 9.257595484586268 9.758533329793645 0.20854860516980214 0.9599447623048564 -0.58791127707311
Ni 5.229315849895339 7.451534247889871 7.085509931032852 0.09811252530372135 2.016376855605185 1.527814290235743
Ni 7.808237703458578 3.4762296302118028 6.326754076760253 -0.961109472036919 1.220124461387389 -1.0340272432425675
Ni 5.440051631858592 1.1285969638300308 9.281838925551744 0.245354461144242 0.017592002050150348 -0.3837327759465456
Ni 7.025208362127906 9.292843306965972 2.0111643152378127 0.5389651861917105 -1.2776199845006964 0.1486719834188278
Ni 5.4741821151697865 6.392512767233415 12.219759005005905 -0.5654773735496261 0.9741701618756192 0.8556482196776102
Ni 4.93873257685137 0.6012899166058296 0.7384653523646232 0.531196340879569 -3.4049512543692777 -0.6572104776895649
Ni 5.447112463619257 1.419358635548802 6.50203828627837 2.1994589410727667 0.9044834960127583 -0.6788085155753149
Ni 0.5168895035560391 6.4470370358958915 11.83298034968642 0.6497288246005392 1.3835118966395203 0.5723589311608078
Ni 2.435226415710555 2.431705389234159 2.6548971544603104 -0.7244383975992879 0.5396709540094835 -0.04950941958403731
Ni 3.929578220504612 3.2628366469343617 6.595952982337578 -1.4601690802829432 -0.2752900723614098 0.41782354698266755
Ni 8.290374206222396 8.640242175724927 13.33085505883766 -0.40264195414622267 -0.08917408516351093 -0.1851788200956101
Ni 3.8946684166666428 2.608967946161814 0.6726381192427203 -0.3519649966166455 0.9716522805497718 -0.0012536699014430023
P 8.874620476801683 8.384287024400816 10.837307299512483 -0.4090270317369601 0.6670557459147609 1.0028847562014922
P 2.0885320647387493 0.29184051423113866 0.4732494319373966 0.8548090116057664 -2.5921761799061103 0.5384368244920662
P 5.865804763980398 8.670438498786494 13.050676184296343 -0.06635914415152443 -1.5531951922026928 0.6165181421765252
P 0.5169120381254881 3.704626880980657 1.9997580673350788 0.11501598592727934 -0.13464095924705843 -0.8132458434519995
P 6.183645476653634 1.8368397028020624 1.8774376075450994 1.6634338113459866 2.199071218716045 1.0028780713332728
P 0.4998965603107577 4.215297782309185 6.24314612940275 0.6828968267120755 -0.8646262548065046 -0.19046629374679458
P 6.586751366479265 9.286580574539956 7.736086706785067 -0.12980445709036356 0.34689760939606706 0.33530373391088064
P 1.8703129278376625 6.819139113921366 2.710442990271138 0.3072242020658451 1.3319602498144738 -0.218057830211818
Ni 3.06006307950973 5.802332393365909 1.282905244952768 0.171410305556608 -0.9258804736312958 -0.11781308905644226
Ni 7.73627731168499 6.214668067261663 12.750996456718157 -0.22291412986285483 -0.22837103921236798 1.077750909382763
Ni 3.105470236949326 8.542357639681132 2.7834841024378796 -0.480891679087746 -0.5559365239387265 -0.5130050146825229
Ni 8.838931352436939 1.6287047857293724 6.53151538099836 1.0217841642091563 -2.866657126102663 -0.37638661999411954
Ni 9.086576881276756 2.418766790608898 3.502991309313196 2.0516269370567315 0.8408782604572872 1.6804123481818543
Ni 7.916779212970929 4.548377497572261 1.3506779625704282 0.6254061886947745 0.57393476028836 1.0857113018804205
Ni 1.593241007059117 8.679818513319612 12.237253342421424 -2.6112560793556967 0.2760135807909956 1.1249419652462689
Ni 8.763975740807432 1.267982665275607 11.553516947725106 1.3948172943500108 -1.0774475192097315 -0.723297084905993
Ni 4.281389796622113 2.5699174151876036 4.282662999795977 0.6548319501550594 1.284393555779104 0.7954334978609269
Ni 3.7332551735847366 5.198734561272351 4.441525141828186 -0.25256640551164894 -1.9455627610061008 -3.884916307877696
Ni 7.723714289217211 1.4742584803687606 9.493292057975788 1.327451820421159 -0.736625426583783 -2.323587687934592
Ni 6.367048703756123 2.3089483221611067 11.045159595526668 -0.14736817700573976 2.83454353339757 0.7758656030313283
Ni 1.3563181775154172 0.2844238240612592 4.284257320584489 3.1383180863519176 1.492468049525965 0.7805941188552492
Ni 8.914149867376684 3.3857908914900925 8.398687553219078 0.155632473897061 1.3609882616157076 0.26861754543724065
Ni 6.99758473574509 7.039264299821676 10.346004860625312 2.465050298089174 0.5373057962114165 0.35347526261358475
Ni 6.894620532171349 6.292618898747091 3.1915898498599913 0.06809566722665691 0.09418979321054746 0.5653493326121941
Ni 5.927080014073617 9.377075649685288 4.496163961218694 -1.9393725730349891 -2.171432116842538 1.2638057043254234
Ni 2.364467867640911 5.069836824024465 7.426361255934628 -1.2890734777532766 -0.7139742648431704 -0.1825367544870727
Ni 5.5804326101214965 4.491965958718437 0.8421591126242733 -0.8547773870368827 0.9157297583505389 0.02381407170046221
Ni 1.4799015121349304 5.036297873161305 3.655861133752776 -1.169154398097425 -0.8220385020429649 -0.35828014020139587
Ni 3.0218951525056026 1.7678369732686479 9.181725345013293 0.7389877561683725 1.0342056778019608 -0.032107679167822124
Ni 6.179194899187471 4.8564344513430875 10.511599205280389 -0.8872684176860526 -1.056640352656393 -0.37841933415343215
Ni 4.557870184952623 4.864039868532101 8.246215839506428 -0.18194282965681566 0.7238354739079663 1.0537375771873012
Ni 6.489580425134686 3.7800707416148907 3.4939624584873243 -0.7447717098400012 0.7986512334672762 -0.14205319255072954
P 4.977163407165735 7.728878461382592 3.6504331193367654 0.03521614288981677 -0.9860327176411599 -1.0170471637448033
P 8.748717959409717 0.19815398068760118 4.435464281586817 -1.7478166457684416 -0.0699149798235828 0.008450958980830607
P 5.788398517923319 3.708748829309024 5.78402775039062 0.5091393610795296 0.18782577080015395 -1.1627006720522814
P 3.8383038248325043 3.7029555670798615 9.952052700697916 0.692829255334439 -2.110813988939849 0.05236000165895498
P 3.8813260736720885 5.9256058776554985 6.210424995622509 -0.8801150944707231 1.7630190645404928 3.813940490889767
P 2.4913562724462675 5.842105908443273 12.868480434540158 -0.2152519853319067 2.013415973204649 0.1647514054791937
P 7.88824481440622 5.304346576756342 9.24186259934934 1.3777233149822015 -0.7554358744220667 0.15213628781834443
P 7.048813323625661 3.8169429308757046 13.274318640911472 0.7636582623318591 -0.2993214022790006 -2.438562536211291
Ni 8.493758084902938 1.9141802230315814 1.3686915340236678 -0.29248381053187694 0.3926948702358398 -0.10150920969009614
Ni 7.108004126044853 1.5996727487559992 4.003171429622853 0.4585001987664233 1.3386818848090236 -0.1164771438538381
Ni 3.6530602745583534 8.230056675330758 5.564769206473701 -0.6641352298338562 0.2489257234352681 -1.3694291932942093
Ni 0.26052685210106147 4.857326444717107 13.412731600109169 1.0744894650226722 -2.3193361117470896 0.9204335915841115
Ni 4.856265442072219 7.196705825038208 9.841124404704766 -1.0645809476597086 0.8068440536907137 -1.539197335261704
Ni 1.6469671763869436 2.470708973188684 7.4169202102759195 -0.24078921037106274 -0.14379048695681043 -0.8992489870866964
Ni 0.682607788343085 6.99611998873091 9.620559794700203 -1.4236105644326191 -0.1185761924747119 -1.5095936534626582
Ni 6.631013016638541 0.09869296372277504 11.25860609840655 0.16094668702112283 -1.6888532798603557 -0.2438681064067026
Ni 2.5009804114817484 3.76681290325577 12.685514753661138 0.03912241992275843 0.3199349647642941 -0.025261088559633917
Ni 3.9186020073021957 7.710559734301397 0.2184745286881748 -0.43810440871889067 1.030060802395652 0.45333408118445156
Ni 8.866442305972509 8.382399754209468 7.789846677967069 -0.8771855795287539 0.6953548499697703 -0.08798597839268071
Ni 0.9139138764516387 7.626130214099402 5.272469550390041 -0.7001129334800458 -0.680166572265106 0.3568724612205918
Ni 5.902761457876646 6.909371285756462 1.2790339937095203 -0.03400001109452854 0.8183435696898811 -1.145254451551376
Ni 8.62769793206502 4.505993728200397 11.269613296641959 -0.583222613348189 -1.445914113025826 -0.7620842329765198
Ni 4.345613319551566 1.0389469350390332 2.6947908539080685 -0.12112132749406883 -0.2259572875645528 2.2127960245013054
Ni 1.4876477703830002 2.2083408589755664 0.4451065715168627 -1.3229608745293409 1.6037016855926767 -0.47999847784951527
Ni 0.09465458108944784 6.076850396273575 7.2705506701819616 -1.1555648323384486 -0.3556367890412779 -0.016617553952022995
Ni 0.28162578168801694 9.2787873692722 2.23888834574438 -0.19662742825218396 0.013584423552654025 -1.0416261386357482
Ni 4.6857444771713705 1.4257434302259993 12.579726217383131 0.14897151693711763 -0.052929501009179813 -3.5548375698111814
Ni 5.777807270282321 6.094408581635867 5.301781391600739 1.7448891877090014 -0.6934738308969735 -0.9001257332646948
Ni 6.57114617713588 5.783196788142192 7.693952695557929 1.7447840295897048 -0.4211222723385973 -0.5491326136430156
Ni 9.254844389232712 7.021001909164105 3.139451428737921 -0.12566935187606745 -0.4159792946850771 1.4680849926959103
Ni 8.390239906496909 5.257080317337209 4.885237386860395 0.6073434176557927 0.4046947229101933 -0.5416311630596479
Ni 2.4007673032615644 1.4408791493725313 11.701549351256315 0.4544939058205076 -0.28955326714864327 0.27177794544309325
P 3.8187926434513044 0.23045165235028173 10.398060654992737 0.15456366631291446 -1.273927623250774 0.7385236720477604
P 0.7320054424559295 2.7775828620634413 12.06713612188987 -1.035855554700558 1.3245400460910028 -0.317097495315499
P 4.092259033118021 4.124361405178811 2.2795660604208816 -0.5729739390369873 -0.8835480314116719 1.9608153162897972
P 7.702437899895845 7.223559520298184 5.492209770728931 0.9605890807570746 0.1623620793114107 0.295409211708788
P 2.664168251907758 6.381883961976669 9.14908777692809 0.9386642556595254 0.6608056512399909 -0.5094054702567227
P 1.22021876744781 0.2339022582971493 7.358735013018385 -0.5051811477627299 0.4927174680780804 0.5133485140648708
P 8.09331878579543 7.33897407349246 1.483389675697546 -1.8328700238953595 0.22236674199981707 -1.3497723382952302
P 3.29255411039514 1.093396088470013 5.6012273230208915 -0.09397896275132202 0.37333523476230546 0.24918797595771922
