# total energy = -381174.0299400518 ev
CRYSTAL
PRIMVEC
9.17395655918221 0.00000000000000 0.00000000000000
0.00000000000000 9.17395655918221 0.00000000000000
0.00000000000000 0.00000000000000 13.42701274210371
PRIMCOORD
 96 1
Ni 7.240058802700263 3.0484965098429098 10.811349726330503 -0.12588969541698966 -0.004360590961540877 0.8590145650466818
Ni 1.1982930000366268 7.178510729776371 9.66144659367376 0.4588966628738936 1.5909757533855762 1.173839205167604
Ni 1.4736584728169984 0.5758373118106784 0.09755218188157522 -0.2634447429870495 0.6079013470417918 -0.8412847518670867
Ni 0.3638051638532869 2.305387700336124 9.455638057681128 -0.06771642951036724 1.1932021830752482 1.3794030166774696
Ni 5.517024675346056 6.775315349689174 4.808038396356547 -0.9062292750592715 1.9023054929793626 -1.4184827562877507
Ni 1.7103006759876305 7.196032986339889 7.360795406983576 0.17171343861932364 -1.0145789047099687 -0.10290429026540988
Ni 1.998628949042478 3.3374944817088235 11.09537174429063 0.6509891793702014 -0.4473009876164942 0.1032750433412673
Ni 6.691346127529034 3.4763056147258746 3.0271606396388417 -0.014400234585730039 2.4538567433661997 1.315295130453967
Ni 1.7379693282366178 0.03975167011276083 6.524722311148834 0.7928117439673636 0.5370373730413782 -1.0229082505112705
Ni 2.0230500207556092 1.582911118583971 2.4149018038581014 0.747276735650042 0.5159972645416275 0.48525921202782235
Ni 5.230457801903876 7.6112370752447 2.2675001781467694 -1.0868310173071607 -1.079911664479508 0.7911032459166891
Ni 6.715391067033211 4.9883020509873415 12.32485619580158 0.4712621264177819 -0.7858756789691627 -1.2964795404093608
Ni 4.385683208503431 6.740958883285839 9.191823513298203 -1.6408728953263352 -0.581459093689863 -0.2804101671967945
Ni 1.4398065740110426 3.0102411120052848 0.4223038136977471 -0.8511035377297214 -1.3660301949149893 -1.7557528698963827
Ni 3.028607372549871 6.539021756858548 4.918636861515074 -0.6278695626336025 -1.508283419291667 0.7553798243731507
Ni 6.447337237436673 6.681291471406722 8.108854483318462 -1.8210424351328125 -0.3440863651995171 0.5970163246981718
Ni 6.287848006883408 1.1416438197854675 6.822291510400766 1.2768206285278525 -1.272288287875138 0.12470004598426264
Ni 7.388493415892774 0.9837325097185519 9.83879109540481 0.56344157406652 -1.0101231829314605 -1.3419227603438244
Ni 6.33935977159762 6.553342302667789 0.4057411529648819 0.6791844108574948 2.7356589058145144 0.3553398266261493
Ni -0.11014343692525394 4.279476316233363 11.90763842348541 0.17080198254864778 -1.0980117165143284 1.3951541088641393
Ni 2.376375774309156 5.0742344997991 6.940127309696968 0.24794047670386332 -0.7022574906268745 -0.8911245582073491
Ni 7.470857195697618 6.210181292712345 5.981425022390928 0.8867922493805823 -0.659302070111271 0.9188814166056433
Ni 8.540540502140558 6.539994196228043 1.911590121099013 -0.8103512955130239 -0.0776920526658404 0.22301543132740947
Ni 6.689511336265839 3.7695603023224016 6.89332086717722 -1.984050632668654 0.44492220297167245 -0.051577614966975695
P 5.208137566187104 8.159784619202242 12.49419733804257 -0.8017769235804514 0.5847938144900509 0.5170509026171224
Ni 1.7655921107040249 2.0889006791916938 7.6552234435929165 -0.050775173670338354 0.4636364915517241 -0.76757122423302
P 0.56829907190584 5.971603384759042 5.746640545374281 -0.04993596559849465 -1.8620013940436773 1.0473275598958995
Ni 1.5538205031060073 5.785656464190501 3.165297486866668 -0.0664730440215694 -0.2706515451481339 -0.1152440427776854
P 2.1489900930613444 7.789578786027297 2.9247930480870097 1.1529875585295755 0.9645058993129776 -0.29075088700117024
P 2.656346573160148 8.797328713381077 8.650540825347283 -0.01269199364537169 0.31870777722541244 -0.5317738106495938
P 6.473492186893523 5.80508690366774 2.8830075118589966 0.6010074481354358 0.21622437654750504 -0.4523580904244274
Ni 3.372116992845321 6.503399284483609 0.8485533460069961 1.1121095893682913 -1.4084716519086518 0.4003819544674524
Ni 0.8360941959342675 4.947321988123871 9.78288133603272 0.44484147033240806 -1.3612654265364943 -2.3147595481200005
Ni 3.9682131523885724 2.4529507876786174 1.0427320575778645 0.6853303758542325 -0.7759638191720895 -0.30212133362164095
Ni 0.9147168363534552 5.206247731186012 0.6682970305412547 1.1128822058682575 -0.32059291006326723 0.41773407259265477
Ni 1.1993571789692798 3.544991025663596 4.954178603074433 0.021999901309858884 -0.3148277254447159 0.9634216651098634
Ni 0.2971169232055538 9.19560685288291 2.618415015980477 0.395548537634551 -1.5306070224895318 1.0155340695343864
Ni 5.511896433765425 0.5641350131340179 0.7008765016061845 1.9038520115308761 0.6290545840806393 -2.93105426143181
Ni 1.4348709855130468 7.60804453844674 0.8417765444763836 -1.8297427911202875 -0.03971017410542839 0.9519889977928896
Ni 5.575380211471987 2.530305587334937 9.0720685223407 1.0368521142858724 0.5329135806809919 -0.7377826801166778
Ni 8.777347836524878 1.537756905596731 1.0378762824998176 -0.04168992353961853 0.7777509929794993 -0.2593970552802371
Ni 7.21290389200497 8.642242981859482 1.8694834963999407 1.0976818439787355 0.31651951132484196 -0.46568231833715923
Ni 7.484636478084216 0.9873745703759947 3.7960583577454705 0.9967693873323737 0.09971560812478311 1.1014454247862255
Ni 3.6336389655448835 8.590428476586844 4.51691390141659 0.5852044196649082 1.308769156409991 -0.9131386005845952
Ni 8.53383434007358 9.107124044215311 6.067935430450593 -1.2327922866630445 0.7051232422104438 0.29116997681645984
Ni 4.223762879526433 8.059779321401775 6.832080121789914 -0.6873072970749453 1.7517820581740926 0.14566250716854268
Ni 3.1342087837030843 3.717305447146596 8.68472573876751 0.43139614346077965 0.23106015600875687 -0.5447722797917908
Ni 0.23850359890714382 4.1480593920069895 7.272983214522674 -0.23555598699658142 0.3362311308211564 -0.40559075236190145
Ni 4.106372934507189 1.266171102818542 7.435422789427155 -1.2912332044087567 1.0739788439348408 0.3118629863894371
Ni 2.7213257057462146 7.940829803808814 12.398046936686075 1.3323819107329244 0.4729428565543145 0.02955817327309103
Ni 1.855772101290081 5.9380909223367775 11.732939690755888 1.103304075261519 -0.8643280068397954 0.07015486374853079
Ni 9.068942038028215 6.594955368517062 12.702477337866727 -2.069491476041978 -0.06128378651114606 -1.0156366565505217
Ni 0.33629705583982916 0.17395289008103337 8.41719298988972 -0.00803084072427649 -0.6461429070214937 0.8195404182114596
Ni 6.421952900310363 7.473673600286622 10.851416063144901 0.1459854377256002 -0.006243924027182795 -0.6248508304119368
Ni 5.182909186318166 0.7259324110963815 2.943859281498505 -0.70591179955001 0.476534944780947 0.3115200012277216
Ni 7.515965538903277 4.237413726524607 8.827481673000431 1.2698318559148454 0.825224098859798 1.3184470458193873
P 6.912906346516199 1.9049812029689828 1.945292484417018 -0.3752993004672117 -3.1446090615669524 -2.102935871743352
Ni 5.5039334396831565 4.575813453152058 1.0125515760895625 -1.6706257011087355 -0.8150641276076608 0.35983514339334155
P 7.5724954577223285 8.49239557939431 8.088525913517888 -0.4642443003390521 1.0101365526678991 -0.13786949348668515
Ni 8.659554237427733 5.023897001493332 4.014959046796634 -2.0753168244745033 1.2662590509619223 1.1555905433700613
P 3.882721053479981 2.862421153885944 3.1624508082218203 0.2905043182080029 -0.874734803995416 0.7067273534727699
P 4.478486950595856 3.7157275266602476 6.749128291385217 0.3502233313351904 -1.0416261386357482 1.6768518845241056
P 3.3655484401230815 4.94698255174018 10.364847768058102 0.9366495392223417 1.186104138577886 1.025160536880557
Ni 8.600923482612322 6.459263380647443 8.150008851351936 2.1931196291183004 -0.2927162382576572 0.14551441162645262
Ni 3.3387054439425325 4.257467995031334 12.983290305907527 -0.5623730235926895 0.10509821259293513 0.5018837079583809
Ni 4.6476822269314235 5.9527417305733925 6.7492218657396394 0.4533402518320386 -2.6958116919105892 0.5519675119886495
Ni 3.586411438430233 8.989807490846594 1.1033177824842095 -2.5184675373680503 -0.7460305219477668 0.6342728950567851
Ni 7.838164058676712 4.328043240970146 0.8285486168643761 2.1780421659598876 1.3717575843170697 1.6546691777794793
Ni 5.989061423628347 4.597941035786195 4.86922593279722 0.1159474966026132 -0.539638043889019 0.3970726875885613
Ni 5.470824631338794 0.9759529947626031 11.325832535695556 0.12076831503002426 -0.1416634133114786 0.3552058721514464
Ni 3.827622271846222 8.64213289438369 10.436843142434627 2.048452910204124 -0.6313325814815385 0.38357825264655226
Ni 3.5504128338463388 4.036302256165755 4.948404514969157 -0.6540863302382863 0.37142464800315383 -0.8718793368244919
Ni 4.475615502268956 6.097671892453202 12.091803761737388 0.22104493786459997 0.24732546882768372 -0.6037438732299925
Ni 3.5968055309362352 1.8153149539366216 9.84731737040488 -0.9608505619485773 -1.342271659042811 0.365498512326706
Ni 8.016744292323526 2.7553427357658578 5.430461058339758 0.8352619427117743 -0.07056752580591717 -2.3376079134730836
Ni 5.847296276677551 5.173927883084825 10.18050812463612 0.01875671178221286 -0.22949795372795959 -0.8932652586994357
Ni 1.8472403219162223 0.21538339419961805 10.830482929623106 -3.082853220515394 1.6390170730645193 -0.39194873609843467
Ni 5.447467738558317 1.9854734956853668 4.897690884454435 -0.9248018958551363 1.6591377550737942 -0.01061222829820753
Ni 4.8492248732371275 3.417353771439405 11.431718339494564 -0.032254746268647674 -0.3326814657966851 -0.1845545562480499
Ni 8.24013012861757 2.1517239320435055 7.5397370945092375 0.45084756731717196 -1.089092816758144 1.4665119917818354
Ni 3.223563118220703 1.652954275056457 12.262957677746419 0.51157136755979 -0.2758886251773571 0.7256033644416665
Ni 7.783340495732433 7.658748995005147 4.143616444963162 -1.4135200129658365 -0.04523110392365758 -1.0105193899286145
Ni 6.704052057026663 2.715380982053461 13.412968145692057 -2.317578248515718 0.09224141123492502 -0.8907553477933885
Ni 0.7777634294903895 7.786936686608296 4.720924341971291 1.5960575387838578 0.2024345218522643 -0.6130852052355764
Ni 8.563365305454711 8.630188403260288 11.19721550293682 1.481636763238416 -1.7798991281252832 -0.5414552996034159
Ni 7.6898578808726255 1.1282406696078247 12.321861816460045 -0.1658531231838047 -0.6846644601354596 0.265333218259014
Ni 5.495823662299833 9.067813641401349 8.743617033942295 0.6577138996885447 -0.406771402933564 0.676997173398189
Ni 0.4681607517387908 3.540670092238771 2.7702614235269003 -0.019257048457399093 -1.297471729119301 -2.1078397368028727
P 5.9801718599581655 8.89034345646877 4.974520016413849 -0.11467248654493155 0.7949264763175212 0.1213244446438104
Ni 2.6678048445988036 4.183599298775085 1.8821582344460945 -0.31429422153874903 -0.15728209368534204 0.30864962165846194
P 8.42140750542128 8.376840425638262 0.08912131602719217 0.3725695602408745 1.3612512854691072 0.5903047170059511
Ni 4.200736249173331 5.331444713030153 2.9801523700801424 1.206702017333896 0.8475119637237211 1.0670857163594334
P 0.9466605522456879 0.937394856366551 4.524983313392124 -0.4641975062615167 1.0723094266522177 0.3051848030383131
P 0.3130052981491947 1.948640061076718 11.603986891195987 0.6646558782240165 -0.16907754365837332 0.39647336344166556
P 8.296494916222933 5.798600916552344 10.615449980554757 -1.6797173789973587 1.3125815881775458 -0.21335631097109062
Ni 2.9415557010675633 1.5862779605519346 5.3921001600045 -0.15828945190393384 1.6104330907792395 -1.4400147168222555
