# total energy = -381165.1709451847 ev
CRYSTAL
PRIMVEC
9.27993219992993 0.00000000000000 0.00000000000000

0.00000000000000 9.27993219992993 0.00000000000000

0.00000000000000 0.00000000000000 13.58211880452722

PRIMCOORD
 96 1
Ni 8.344607644375525 1.8782489547646954 5.571398336560225 -1.9301207154194182 0.2774685680699673 -0.5320638310861868
Ni 8.055185125483627 4.383041797739773 6.550316090307212 0.024239075053022772 0.7070073466070339 0.21099783804124306
Ni 9.319464499883859 3.4825079175362115 1.1797262020701167 -0.11797172612149359 1.1573656329926134 -0.8199564227029555
Ni 5.387065479491445 8.924696193045929 10.890332411370366 0.6463367681998546 0.8910865058805622 -0.06760252964032229
Ni 1.3776244637213058 0.4903618142560821 1.3178932534769943 -0.20498274219541474 2.554738346774626 -0.24746122307459964
Ni 3.722579758107374 5.554958009047436 13.190111140844625 0.34536240369846327 1.7217515732502733 -0.14625874599164487
Ni 0.2774783184280737 5.490703759951389 2.9208344659059855 1.135015033211555 -0.7892057717836601 -0.6952751457717703
Ni 4.8346682478780325 4.399625036205203 11.307005069676567 -0.07349806918915085 0.31622126335813283 0.7370838542774403
Ni 1.0648257961475847 0.8988486445542495 4.913793587987426 -0.5924683003161733 -0.11584876624121984 -1.9871246436082872
Ni 2.751286396483049 0.8350815918876573 6.31197681303851 0.8088238031249038 -0.19511459115208332 1.3120185165852243
Ni 3.2765862266868067 4.810874502256677 7.0114702466192025 -2.145497399254647 0.8614774247648775 -0.17946917130534254
Ni 8.605587171719273 2.38374541010263 7.84094304761234 0.8609187240479301 2.7280409842579405 1.7451612104234653
Ni 1.8596798108534895 3.8034543653968083 3.9447227700746126 0.760563168346303 -0.2413545959562295 -0.25462637336447114
Ni 4.900648564324146 8.802980605070228 6.523966651415919 -0.01460592283863291 1.1681370125765045 0.9093107421980726
Ni 9.190798242847942 6.687694347494973 8.04800245812367 -2.0685131712891085 0.8062493575295082 -1.311447988793735
Ni 6.910774632593162 8.211941736652086 8.786326839121678 0.47782332457506743 -0.6023392795729821 -0.8171603480150572
Ni 4.775072524640769 6.736775907788011 7.6263325564410644 -0.695226551922022 -0.3962836160283627 1.3080369062296568
Ni 3.137452206366612 0.3276400628047014 10.00251018200617 0.2869042595615704 -0.2823816891008685 0.5740509741512501
Ni 3.3981626156826628 0.4062661425730542 12.708353679529306 -0.22392791583934987 2.0212197855197838 -1.3087755841678945
Ni 6.885588897173366 2.9041175964199053 11.406588947850251 -0.17982089821780642 -0.33071997119494007 0.6803910295710862
Ni 3.7991299170896506 2.8764077194989355 5.892656590135674 0.9663961743571551 0.15176759162501605 -1.7210861717521329
Ni 7.166538838158752 4.459350678490321 2.2570084509273522 1.7365577850251706 -0.46640839786990645 -2.672578432414262
Ni 2.369547114158529 5.660814193252897 1.4465502305809212 -1.1146177005021254 0.8788197726980671 -0.10306832664709993
Ni 0.8061189241480903 0.5333473872251459 10.896498926177461 -0.3707088528830519 -2.02089659785241 2.837992154067803
P 6.349440826473757 4.530119439843073 13.204834680939337 0.2879401570252525 0.46206580463049457 -0.00025299655107053205
Ni 8.163955208333824 1.3806590014819076 0.972251050605652 -0.018878067851425553 0.5761479658895948 1.7819012461569765
P 6.031844434061409 2.0951952048177542 5.554203550576681 0.6415704571594628 0.23153606720391093 0.3564844817535538
Ni 4.042301254945342 0.9640828544683988 1.741621444074894 0.2654484036806396 0.020989971988105788 -1.2653607075173692
P 8.865119029672645 8.083266199684182 9.703404982076313 -1.34068246017882 -0.22795194939707836 1.0987321396201206
P 1.1958305960448827 6.201221752735735 13.118303027109036 -0.19717430189458948 -0.5612211693764334 0.19929957576770838
P 5.017102430861739 0.3163426736005525 8.543912743716339 -0.9753168738855525 -0.6528146626147144 0.5172349936034705
Ni 5.473331727266842 4.541589435782228 6.853414444972196 1.8761946548249235 -0.45654641747416214 -1.467206189635383
Ni 8.42146404111346 5.9898527418084315 0.71604233629776 0.8925548628959725 -0.41928496201954246 -1.0157929796227279
Ni 8.081957729273647 8.466054114323526 0.7569547724603455 -0.5358094141715481 -1.7365798965123578 -1.5220269941300046
Ni 1.1047851832948372 5.522942243683288 5.6217206237602735 -0.8522399653270097 -0.5675216576731644 -0.4239463720509537
Ni 5.281914570117197 1.685950204076036 12.437430705058693 0.967355967167263 -2.351076894493796 -0.6549574199893301
Ni 6.07040255147823 6.680706558706798 0.9217246049018325 0.09886251609586844 -0.38370655069430043 0.7802555045689078
Ni 2.9868203503112927 7.741681183078695 5.636185253752476 -0.5077751337421513 -1.2123918686298218 1.9018375522040083
Ni 7.626693545795461 0.06788548648358034 11.955985977451425 -1.1623103785923983 -1.2310778750750992 0.3945576344761914
Ni 8.997664298280217 4.08380111080287 12.275138614458431 -0.0759185057051854 1.709024098381276 1.165201069876632
Ni 2.556565583545102 8.809996233654372 3.7606302632443636 0.14525652997937566 0.6182222693518256 -2.206466996959484
Ni 7.715019938472552 6.770759018733955 2.9282778993548497 -1.6433660940618342 2.045594614819722 -0.0525975715910578
Ni 2.5199655317780874 3.331300705697536 1.3476419314560808 -0.1458018609598844 -0.9843123925159434 0.6569322843275137
Ni 1.7968917910118012 8.0416364247788 12.091508248241263 -0.6675481121701471 -0.5322890597231155 -0.2431872782895941
Ni 6.54353060403641 6.69700211928055 12.180960296668694 -0.7064504456622994 0.7129085425828174 0.8710491276137128
Ni 6.974332886789989 0.9279254554572888 7.8051819016971855 -2.3217017837657887 0.8144619752472877 -2.891698642452323
Ni 5.303314093285233 4.3384238847337375 9.106742474872469 0.3931083036241746 0.46669867541681564 0.2862943938917134
Ni 2.9086276433668545 8.208406082564046 0.6607859092588374 -0.42314161676147133 -2.314356142033995 0.40382723270357546
Ni 4.23252130086833 3.460412399468954 3.296257826518378 0.41886330110109155 -0.40147595886257953 -0.1662274758040879
Ni 5.533196568531804 8.586693230188432 13.345789423915893 0.3187813107758252 1.4291986000433579 0.1114516656147887
Ni 7.942081314394283 1.0137954501367294 9.798194847384165 0.24246968339727917 0.36986116017077597 1.3489549846002575
Ni 6.66952424065932 2.339322375668375 3.1697946253367943 0.6246783093898145 -0.5973210004227841 1.8919123226704966
Ni 0.486858639930005 5.145323251162154 10.34600222463552 -0.5482790073934686 -0.4875642060119152 1.0328995573960276
Ni 5.214078267273161 1.8565617537049812 10.010985543892279 1.498190553832039 0.2381234906134415 1.0354755456533198
Ni 8.71632460015127 3.853603117868651 4.324180117122888 -0.5478146661625404 -0.5318329460223035 0.11393586548922313
Ni 0.9317051717566561 0.09302760622302564 8.827983525829831 0.5851455414025148 0.7955682236665782 -2.286589770554004
P 2.0972924694474058 2.0703435469495837 13.236250034703756 -0.43371784961542076 0.21291022457260753 -0.637385729654154
Ni 6.199263687085928 2.5012107892270894 0.9878134965522248 -0.12167745710785495 0.5437633789113022 -0.8653806164740258
P 8.230334561855491 5.886975415771635 4.805923658540221 -0.630921719196365 0.4687241904872766 1.0247041660694287
Ni 3.9842274405543745 7.4478878162196915 12.02242936250382 0.62694859348123 0.3207800863734089 -0.03748694120186447
P 1.8663892016819763 6.673078454611341 7.172526250278447 1.0151422334126066 -0.3826143460713862 1.0318369204594682
P 2.9190954066511328 1.6860801231238904 3.37976051054727 -3.230477479395998 1.416616135392657 0.04564530864294074
P 8.473014063315734 9.282808768524907 2.753489452337382 0.3147325946277483 0.053039287114166715 0.6154413641725788
Ni 2.8682877790080283 8.331411581086302 8.077108964809076 1.5958991588291225 0.3267419603837986 -1.0585059451102221
Ni 5.581006778142266 6.880113737299498 9.949947719223829 -0.9538399349586991 -1.8589122135953924 0.9478487503722709
Ni 8.697755456240062 1.913642615373061 12.5024347726595 1.7024431027296487 -0.26698669470203695 -0.02172710726444645
Ni 8.808548564263994 7.222459708328131 11.62473138113677 0.21455161683077242 -0.6612360539091902 0.7969049402001308
Ni 6.096785398124686 8.867420452806067 2.0642243597956362 1.1671373676673964 0.9924296223064393 1.2290857843457348
Ni 1.549006247705389 7.065118461444325 9.554137276023468 1.7873542988517477 -0.0177408689231888 1.3731812041374736
Ni 2.1840969532782 2.356815047468787 8.508585898618298 -1.4547188558016495 -0.2639242537266293 -0.29090309630831834
Ni 2.3936006978755935 4.223770325002129 12.066625966597528 -1.8768140335764776 0.04151894517939301 0.414343558853867
Ni 2.9119220192231654 4.56310959806613 9.416197582950335 -0.6230307464840625 -0.28372380495105975 0.3513073084279885
Ni 4.413526374325636 3.3420004672815544 13.405999478650868 -2.086694984404458 -0.2824469951211652 -0.5145854717957654
Ni 6.229015149044613 6.827626441966274 5.916180289736132 2.0884258510526355 -0.9414058229604045 -0.4169522001213077
Ni 4.875815466319954 7.8797387312880955 4.27995660122641 -1.2205756899921947 -1.7563588789114977 -1.778649571988898
Ni 0.28746538123529 2.1938501617992783 2.988052725279513 -0.20057844248013199 -1.821397761589702 -0.011351934677709482
Ni 0.8260828418373344 4.625118103620691 8.237459693637112 0.3487495750031413 -1.3534868110323401 -1.7820912506805953
Ni 3.1653848016553328 2.5609735512401657 10.73321481084751 2.1340241085077247 -0.5498532938591241 0.5561216433663391
Ni 4.71821438134044 1.1166170965815876 4.173282855012666 0.6646443082597908 -0.9479767913097029 0.515294839157964
Ni 1.2814658084449864 3.0847329127336485 6.304507395780075 -0.2556674130344758 -0.10436107731659446 -0.23722977515457855
Ni 1.038461509365108 2.6309163986458417 10.800228911717266 -2.3910156396702624 2.311703020681864 -0.6647378964148617
Ni 0.30146694262121065 7.736057544292993 4.62126136388581 -0.1984282289063486 -0.03419361516257337 -0.678641136759515
Ni 7.230960126030612 5.0887249459575346 10.800704044235133 0.6891998861119679 0.21684401240937493 -1.1213174811198046
Ni 0.6570321767690409 7.755406202491326 1.9736039679307151 0.5519749681878171 -1.4916635513467988 0.8388110935156133
Ni 6.551808303371141 9.03002342112798 4.955612673505397 2.9472984912048146 1.8699620436516504 -0.3151473135676637
Ni 4.3346005527540195 2.5535217658525102 8.12157747091008 0.16131949697950929 -0.29084473226655716 -1.463527198121899
Ni 2.4365575030554893 6.40097228881205 3.7026891518808474 -0.542215317697892 0.2650347131819887 -0.7786089701044203
Ni 6.034860411958031 4.9896059923765295 3.9397245987050096 -1.0395268329045582 1.1256916989281 2.521859593768734
P 3.607378682388378 6.232708561976477 10.428581555431446 -0.6258296493854383 -0.2187790246485587 -0.4920620938822686
Ni 8.425992647924389 8.748321805651438 6.5296710256099315 -0.7204259340057851 -1.3150866139875867 0.16372424976625996
P 0.5129278248752122 0.9427204510283209 6.966689934803347 2.1463723456604322 0.5663564337204698 -0.7686559726567666
Ni 4.786811638607623 4.814837033216239 1.398482966854348 0.6968093230281096 0.09012179378876092 2.5460282205951374
P 8.203088681534 3.3141235515847716 9.819219461299822 1.417983705164145 0.636498184842878 -0.4915365603961019
P 4.233607052911114 7.913703282370061 2.2128805183303677 0.08166543549129161 -0.4429134000717598 0.3574077648987716
P 3.9044942648996614 5.249221369717806 4.5491265965441885 0.8740737733726496 -1.1038229238794666 1.3382679372000565
Ni 7.016491617818779 5.829820314647639 8.52651472722222 0.4762138139961024 -0.7108791708576144 -1.4443423976633318
