# total energy = -340855.84265884646 ev
CRYSTAL
PRIMVEC
9.38399968273615 0.00000000000000 0.00000000000000

0.00000000000000 9.38399968273615 0.00000000000000

0.00000000000000 0.00000000000000 13.73443208490895

PRIMCOORD
 96 1
Ni 5.714489689208908 9.267393873057221 9.92272828986357 1.0612930209370561 1.3535832274008883 0.5701030452470955
Ni 5.047709608273119 2.5363542914042605 12.634592461385347 -2.031238603208366 2.318237993586904 0.05161849550724014
Ni 6.120835633402583 2.2834742742195777 10.642563626891045 -0.7353905257354174 -0.3026206418555627 -1.8650340102224137
Ni 5.751744167026304 7.903955056936125 12.116255052552845 -0.15999049375544058 -0.6681122122037332 0.4867676782525488
Ni 6.717573542441887 8.800324068421137 7.649886087021098 0.9229818119272619 0.26065226784357687 0.17705310566468216
Ni 1.1309689977406547 6.684250960394135 7.505606157073933 -0.06082613014843718 0.8501586573179486 -1.198290139121117
Ni 5.843613521644015 6.424379863619035 5.251977693105799 -0.4848072120920683 -1.224970990846413 -1.4700734838808487
Ni 0.1927548559071966 8.469753919788035 3.1944504192488106 -0.32345711898493973 -3.953036143474069 -1.5931815027876435
Ni 1.8542313713673524 1.9546683174831185 1.4286829490986812 -1.3879527060196934 0.6973981056520441 0.5662345634306248
Ni 8.40846701937861 6.6218661320490355 8.017927483858896 -1.8416693673545446 -0.28885624108161867 -0.003090723110181774
Ni 0.7020188756712765 5.48464739067453 3.9807188419842134 -0.44588739509841924 0.29509553712311115 -0.4805348099689596
Ni 0.9964775176200197 6.754405740284023 0.019720474844649366 -0.03837268624092746 -1.9516958704870326 3.4885696998218827
Ni 1.0093148288679283 0.9513498642638841 3.6824343434596134 2.2965887907482445 2.3127759420310685 1.3945221317070953
Ni 3.673976544755125 1.2203703605029552 9.297276280906521 0.5126987962960138 -0.7474880803298998 -1.5247870733736448
Ni 0.24884489742108581 2.296208361473534 11.882948181421442 0.494546036646387 0.08198605205550397 0.15720084682544538
Ni 6.156842039293099 6.3983204971457575 7.587257274690291 -2.008197405118186 0.4311063801345027 -0.6712278750145795
Ni 8.174214241102625 1.0745523930458978 10.406524135119737 0.12316406895571046 1.9693089555831054 -0.2938166704106875
Ni 2.792302876409167 8.184611712493476 3.9343102727031223 -1.1987043438404 -1.3894917683720394 0.13515672254121242
Ni 9.171386174681961 4.208066873464722 0.5238749069080815 0.42422045164794686 -1.059337182762266 0.7789889791516584
Ni 3.226237778986505 5.288409194171408 4.902161900000229 0.7031591765055374 0.7638703783426651 1.255245216349922
Ni 7.2973733324735335 0.3288284783351398 0.4445819883535641 1.8349528745663175 -0.8875661514321295 0.806148827395902
Ni 6.076411780005214 8.001642491212975 1.827063754559004 1.8767983498471936 -1.167478553056899 -0.021857205084407517
Ni 3.9048604672284792 5.4076141391876265 12.10592608435798 -0.4207178378113271 -0.6226461094511341 0.403234336314583
Ni 7.3689544802798554 2.3423776387686446 12.699816887964086 1.2433296958592588 2.1175795897984564 1.499140062229502
P 8.890382311144952 1.7392586101031868 0.8113968964632177 0.2603792166878483 0.9685960102219513 -0.3356806576343251
P 4.570092188254981 8.089364118073684 8.572785541751788 -1.1308709291361942 0.03215010236998334 -1.1083817468947428
P 8.763557558575153 7.785209927892968 1.378085362463009 -1.131056048563807 0.04782740389592408 -1.2190942203506618
P 7.345879225631751 4.998180859174828 4.5394083868526325 1.7317351668255465 -0.651684148554697 0.48904181899870625
P 9.065206220902658 8.702646018143737 7.839325575922531 -0.3082369596010756 0.17860090976777626 0.1613200112001415
P 4.624641377059143 4.878103202209739 6.585550054176661 -0.5426197522251622 -0.4925092087220163 -0.28533023020623116
P 4.371057559915693 6.935873521652488 3.272997309847035 0.21981260811939565 0.5835627702964271 0.7242041701012948
P 1.920304111496392 0.9147804184063545 5.866552708300092 -3.213968168887065 2.080534878340333 0.9075942737275983
Ni 7.6807941660103065 6.335288172838592 2.7908643092934478 0.7875224705439664 -0.10452974168397482 0.3621522215622924
Ni 9.03614397460531 2.5167135805549377 4.300058220075285 -0.1455522068429235 1.3682716826509984 2.7119224814295233
Ni 0.5913571237545446 2.109626300404696 8.947528990996938 0.36510667620492604 0.23657722917224416 0.09077099733698561
Ni 4.308775955564545 9.167670110899673 2.208359112220301 -1.2647048191009251 1.6230453802266114 1.6015897814559967
Ni 3.4663367889199805 8.954090283412535 11.072369569710283 0.021418831995408276 1.9701340225875617 0.5949159905257173
Ni 3.19110408504486 6.928150490104953 10.16905546023216 0.6575516630790675 -1.02028032597012 -0.6510359734477368
Ni 3.0486455893909836 5.67754488337337 7.9315515225193485 1.8336421261746936 -2.737339121730415 1.903608785171818
Ni 1.4200149488065077 8.062403887653186 9.324841779291559 -0.9128555221265374 2.114475496951836 0.4091154776857083
Ni 5.217822750306811 0.4759545753155588 13.390315965910265 -0.8656953195009672 -1.5153806924580804 0.9130239293836017
Ni 3.3974113129580727 7.261761054559927 6.57361454527592 0.1067887129214806 -0.32425158986177705 -1.9735880425744332
Ni 7.635244232678911 6.274432936403877 0.21290042592694117 -0.8527621563790669 -0.18324895006274894 -0.44139696342723334
Ni 2.869120295908715 2.9882126329315297 7.873111727543122 -1.463679407429047 0.20504830532602752 -0.5495871846819309
Ni 8.240427741223419 8.368312885731095 9.947258064426459 0.2524872155342813 -2.632865430095356 -0.3772556528626342
Ni 3.6404381307200184 6.806702769220131 1.1522903828915128 0.2224464461978169 2.110910662418713 -1.7986630389963474
Ni 3.4089536322818503 0.8218760086492847 4.617570533473398 1.8498691295565175 0.945662027133597 -0.8261880054349642
Ni 4.561768580742631 5.157136425862202 9.849949743727398 -0.8911276435311426 -3.135189825135581 -1.0562420887767099
Ni 5.075664542635342 3.221405019269639 8.330014907174833 0.5572156477614661 1.020793518161113 0.9286395244336716
Ni 8.057261455954462 3.4574689094395175 2.5938988528329343 -0.1663917692960941 1.3949252806827845 0.2859202983817463
Ni 7.586700803522893 1.241728343251669 3.073792831117698 0.7205107804101075 -1.5831187192350027 -1.403553645781744
Ni 0.18260699890172252 5.947438091561312 10.014762802871605 -0.08252649794000624 0.09673724222274953 0.13138439998297372
Ni 9.162067863227888 4.950960573941292 6.170371889700434 0.32879035827239506 1.112317077393407 -2.398768544142804
Ni 6.1200286094498635 4.487710057081449 11.442608699219324 0.9951079404695508 0.8358718083816314 0.19377118975031143
Ni 9.08480939575418 8.038540377051262 12.43413803392924 -6.51151853067216 1.1561302179236155 1.4663417847525584
Ni 1.874622802172693 3.4483382779744476 5.121020227178118 -1.0049573224598047 -1.2395000377005234 0.05966219174732306
P 3.848866142508982 1.8319443726730664 0.6700757415427083 0.9552568699108839 0.6021317915478663 0.6439111894774975
P 6.848095590795078 0.49490931580506975 11.980888045283503 -0.7449725129968976 -1.2322181593271295 -0.97738712615102
P 1.2532612785759965 4.644075639920561 8.4789511776492 -1.0532976614364054 -1.399812433571757 0.13646695671220369
P 7.462559874795858 6.612378908604857 11.410442225903841 1.2508496583853876 -0.6333742945019156 0.25082474023019385
P 1.3798045111622903 7.002359157757338 5.334700463459373 1.0890655630646342 0.0011109736759916352 0.03323665056594276
P 7.256008662896939 1.707887899941082 5.606023793163529 -0.6978855868114239 0.19874987391182544 0.20915307152302043
P 6.904690491479387 4.165501051958499 1.0713280508348002 0.0766687536076486 0.5909690900628275 -1.9155507880250429
P 6.8197089924581435 4.832421892886041 8.793991745592125 0.0793576132937214 -1.5679080729328352 1.21171258317461
Ni 2.8903562866645753 5.450574088670761 2.6600297737585654 -1.693914239323031 -1.7032974803101442 1.290264155627268
Ni 5.44139653720844 5.445112600990728 2.215322978212313 0.415043156024053 -0.7869624842754382 -0.06315786360540736
Ni 5.469238863577258 1.2906471323856956 3.7432914566942177 -0.07806100596948493 -0.15539001886895173 1.6014005482633258
Ni 6.483536596153257 3.6928008476522782 6.4510351140574 0.750843627065694 0.3775467017404917 -0.6123120745149777
Ni 3.7414568848016985 4.490478336919265 0.7486930121368093 -0.5203280307064974 -2.1088969744227937 -1.5025837978037284
Ni 0.09169012022821056 1.85995561103199 6.522756083455531 -0.153249061266549 -0.48763388290758597 0.6273046912690681
Ni 5.3814797007187485 4.023840196257891 4.24495537530356 0.5667840081761917 0.08450341916071898 0.350506409793248
Ni 1.9102726160841004 4.302995411903206 10.644115740400112 0.4885679646860812 -0.9695244355734915 0.6638621786781276
Ni 8.621605798891588 4.726861283070452 12.08267441052021 0.17612210920998053 1.157860827461477 0.10050313702308497
Ni 5.5360341716639665 2.6409014292792254 1.8770570116300813 0.057962435447396946 0.36455620301809477 -0.757253901467412
Ni 8.50405243777861 3.7648605794305614 7.758443007861144 0.5671678738781716 -0.5362611569969861 2.480717829423102
Ni 1.4791716813407305 7.380534335601435 11.797176549646489 2.0169689806632296 -0.7541634354675464 -5.089255995627003
Ni 8.422261498570442 3.581844438152809 10.154112379507621 -0.9369567860501153 0.027026665100488935 -0.6737886937632203
Ni 3.1208648491599207 8.978094554006212 0.3018072519182148 -0.0234389477492306 -0.33575933339106045 -0.5956754943995611
Ni 5.796402620409928 6.886663828535505 9.928579213520786 2.0222371710407043 0.6116800973579337 0.32749195117594565
Ni 8.522698444686208 9.30020033513521 4.9184375086467 -1.572758459046601 3.572811637791099 1.8968514118433266
Ni 3.232590746614308 -0.0271385264100528 7.1024732942920155 0.11183270310329128 0.6576838177815577 1.8017344788328196
Ni 3.542600552451965 2.9942653125769247 3.4529186081061027 -1.1093142860113412 -0.1997279215543786 -1.2775999298960383
Ni 8.627189278564472 7.229395640456098 5.194334599682897 -0.7525140727895815 -2.937661739445999 0.5323939607320959
Ni 2.389626076000531 2.468873951357687 12.84236640841263 1.0268212124124314 0.7774411750485642 -0.7399496058610096
Ni 5.242840492841113 8.48911311065385 5.797523069944285 -1.370548651610633 2.0931515386630792 1.3678590205936119
Ni 1.195878121937866 0.3213090795756739 13.29969562161938 -1.7505723541367078 1.0544078637814485 0.14342564741822397
Ni 5.019163481945533 1.3652499280149903 6.923266118391109 1.0530153543092962 0.15535762296911954 -0.6627843722329166
Ni 7.0932807284305746 1.9462321019773654 8.228778444305908 0.4006886870745938 -0.8741930725593332 0.14162767497753673
P 1.6664481583688853 4.575000019967449 13.074025449240574 0.045818343885695285 0.5783812260954878 -0.328180492602538
P 5.267567331392458 5.983453881451279 13.743496861218686 1.0204001393774362 0.007341785077051871 -0.6056225783099441
P 6.411411176378822 8.481146095120609 4.159225033126187 2.3433160196014544 0.38764239541359696 -2.0506738291148423
P 0.701910959677599 0.10925415199919804 11.21810495797218 0.23821759298914455 0.48577188999818277 -1.6646818248204749
P 3.309980590080319 7.417000557465011 12.530787597866896 2.3318026196452166 0.17143601658822086 1.2893897234421148
P 3.505787122608729 2.4008211873446506 10.89798295432696 0.5203087474327879 1.3379974571474893 1.2106304058540247
P 1.8880888413837666 9.272639528749897 2.116654915992915 0.9196638032976225 -1.2156183459869194 -0.7225866891025298
P 0.9389629849895861 3.7089037907088653 2.8428347750486878 1.154647976951134 -1.0478839466200018 -0.23052742343373844
