# total energy = -381162.89561593416 ev
CRYSTAL
PRIMVEC
9.28989605751893 0.00000000000000 0.00000000000000

0.00000000000000 9.28989605751893 0.00000000000000

0.00000000000000 0.00000000000000 13.59670191725948

PRIMCOORD
 96 1
Ni 3.9962345052210475 1.9108479708334438 12.626387050711001 0.4693224861929079 -0.3286934276832145 0.28120360963236735
Ni 0.2007156321289372 2.4069098303536185 9.535421312108902 1.9542770009506472 0.5834059330035888 -0.13676777578207414
Ni 2.9119643090733045 6.072526231554599 1.5823024425813643 1.4050867945968188 2.6099155061674018 -1.002434556037951
Ni 7.689228229542857 7.064724269761887 3.4662617388165984 -0.354611433100557 0.23017261119748103 -0.2526556227913455
Ni 7.351168918933112 3.473166918414736 1.1822572307868857 4.052088921203873 0.3380375879022759 1.0752024319292968
Ni 2.1987325538640947 5.094894750067183 3.2600678550947357 -2.1343650367869116 -1.8379353542334087 0.15216225596027344
Ni 8.26112350902751 4.652454169492858 13.010085761737441 -1.152824293478834 0.706619367139996 -1.2500338473523116
Ni 1.812300755473505 8.356614348647117 6.55184305377403 -1.0230530036192511 0.3599210182389285 -0.19697375584800914
Ni 5.377381903598953 2.705719330924172 10.257596450069526 0.3576777307307066 0.6412652672142183 1.488500837348101
Ni 7.1857716129123395 3.6149121495574534 7.957578019543824 0.04586822328702424 -0.3376907460858184 0.5765210329582974
Ni 4.999394620551707 6.978774153197958 10.541020025104716 0.9658333598751494 -0.42698181644316785 -0.6994449608787437
Ni 5.955594312273345 4.986565274359014 9.527916005237739 0.6444989436601675 0.47820539050483446 0.7868832942980706
Ni 1.4034803080428084 9.052083822958119 9.198997952161381 -1.488349142261585 0.7996233675725584 -0.5362650136517281
Ni 6.436402162779472 1.4236022224913027 4.6359181548491275 -0.7863348779937682 0.7596848795064078 0.9373887313812113
Ni 1.3040970020548162 7.404985285692173 11.069659691452214 -0.9496606067700288 -0.37331132350290547 0.41524447340158155
Ni 4.099900453203849 8.34679492871542 1.1155715712829029 0.5232727151571182 0.9283459044526529 1.7833719171652316
Ni 3.856347253251783 8.727782848127791 8.275210707120628 1.2261842944282237 1.1995029284822953 -1.489048482321455
Ni 8.537405012119947 5.363539958756729 10.130997465148797 0.9400056001787682 -0.23951805696812295 0.25539436187874726
Ni 3.0873761228389878 1.5162968034548654 10.098052707434718 0.9674436417850629 0.7491757524449678 -1.2077741673521523
Ni 5.474033980201971 3.0722243026794795 2.0078521344898297 -3.5395901567338073 1.7314667436555085 1.1325904829304625
Ni 3.0632688430634367 8.385868230733132 12.79694396489645 -0.07655768195108105 0.239214152574459 -1.222359778475811
Ni 2.066342247859712 3.0765348143618905 11.824058691207618 1.4884257611357914 0.0669443272310331 -0.9849790795656649
Ni 7.773348236620934 3.1299981650779958 5.689974822667767 0.6654719463674088 -1.1526918816660277 -0.5277076110000203
Ni 5.225938021170812 2.9198793003522137 6.442566008687402 -0.4430123875434693 1.3435839500963311 -2.265373284377389
P 7.204537202564214 1.5340590843530744 7.077681816517547 0.26029488450415816 -0.8661876857563534 -0.10358691815473128
Ni 2.6157745591373196 2.4930457448348924 2.422905173057874 -1.0063907124722218 3.0593304548031055 0.3787381509454316
P 0.15321174961168163 3.325559762979775 1.9283798623141446 0.9537460896933124 0.40139702599552807 1.7047277849987674
Ni 0.7345399893599541 1.1913176662262284 2.838120784803595 1.2054360061372789 0.049015767777070424 0.2116449847069387
P 8.902405020744757 0.33649117618735064 10.953543425028107 1.3874341145120621 0.15074326412555974 -0.4601176797651882
P 1.3443594107435393 8.653435811502076 4.304539208357532 0.25985136920883634 0.3767391182375318 0.9289012627354906
P 7.114685329736034 6.266675765284554 1.37043893541171 0.5475904659668763 -0.1703543534882679 -0.5287357951542184
Ni 0.9014794180946921 3.8374887646412366 0.0735694723416255 2.4942418320514657 -2.024615955685526 -0.5916458044148778
Ni 7.589436168136705 1.378564807326806 9.465180409456517 -1.733041801452112 -0.7737195032226029 -0.3813588763977303
Ni 4.111689331059408 7.697505526760589 6.290990209737945 2.4821725595917576 0.15147088632020364 -0.39223721387313093
Ni 8.14111663421419 2.2237316636429028 3.2968734935312494 -1.4082780478406067 2.9246704693926535 -0.37871963900267036
Ni 1.7830933228668262 0.5617999496456964 11.669722864195998 -2.025936217158846 0.4609337479085804 -0.706185364926371
Ni 1.7171350622092503 4.271521989455688 9.264710959568061 -1.0283517901243453 -0.7127892433961337 -0.48154319662881584
Ni 8.648930212006455 0.7122600321014944 4.970573647613106 0.7967612155334148 -2.0113827448247035 -0.05851316574454439
Ni 4.858485480037043 0.6945274788700604 6.343377790512621 -0.6725810466083643 -1.5721377947434667 -1.686116083434851
Ni 9.18906333752093 0.16753955600776324 0.11753204655427996 -0.5387687539101883 -0.029257354203220582 -0.15108676350790753
Ni 0.05079529262302728 6.691093947876388 6.503724180150362 0.5523436643811455 -0.1921159135350756 -0.853126224586705
Ni 5.512958643885806 0.1990741075291916 10.171026697451252 -1.0956527293638485 0.6835789403807647 1.575051883066468
Ni 1.0845396031278935 4.389429347803006 5.375075222455111 -0.49919844781673384 0.2206119640922394 -0.8755153909151825
Ni 4.245816847590968 2.5334289221698896 4.17832110916736 0.5906019365313958 -1.1154098573861175 -0.1421282687630391
Ni 6.287327203797482 8.928667556361514 8.192787964017501 0.7417938581585998 -1.2964011217629414 -1.7898914634513046
Ni 5.2791226750109 1.749575378577737 8.211183815813857 -0.5994046224246904 -0.24849814897954625 2.6970496780827484
Ni 3.2699225766307296 8.388162835012347 10.200300088318588 -0.5847709316719155 -0.551038829526793 3.4920283477944443
Ni 3.5193562806667735 4.648310875936057 4.873764571769932 2.6621788343474924 -2.1487495876433576 1.022447251714452
Ni 5.5114072312759745 5.094523154232492 6.786181606015357 -0.6826168335778114 1.4572549919599418 0.22479463471501931
Ni 8.656910232556434 8.651327005140208 7.615539846534131 0.44784863258984803 1.1789844968139696 0.06130306978485572
Ni 4.137171515423313 4.117439776601244 8.492894334051124 -0.3812089810834273 -0.5668688545805141 0.6373965282874312
Ni 0.6930996218752619 8.177672374451873 2.2605465919752836 -0.48916420350918344 -0.5623234013016767 1.306807147587614
Ni 3.0115055432910407 5.643100795090311 10.329359966654557 1.3977288115698507 0.6221203188546512 1.7359186087792748
Ni 7.024480440864898 8.397945095360576 0.7436988976954899 -1.2421737278779446 -1.0540630788475203 -0.7286136120229
Ni 8.539402339731408 4.886197239409093 3.683142718744162 -0.8522332804587903 -2.766026462362778 -1.152075074017635
Ni 2.4806065742686254 6.137936388356008 12.848393266188534 -1.0638666952015032 -1.394305901931231 -0.5427146259318137
P 7.346700479020957 3.9109718409512966 11.066763101920802 -1.3543291044279773 -1.5525066507761005 0.5798038174746272
Ni 7.588980963239209 5.273669506136816 5.83528272887558 0.3486891540788511 1.7696828497139137 -0.28803554495253625
P 3.8064605124445743 1.2760415165356782 1.2464875708131506 0.9150113921272757 -0.1417588012387623 -1.238595523608383
Ni 5.802403929422158 0.9825458364011997 2.169775019456245 -1.3060844104889766 -2.4885164995319142 0.6009948497299457
P 5.642348313525063 6.794954983672401 8.14334992518068 -2.6207650472873962 0.9299348462063275 0.46648373119253206
P 4.6941565120410065 5.01452786091948 2.9474925868280697 -1.7750901367724137 -0.46306339265707347 -0.43472083695863845
P 7.423760165239915 1.3640725697738738 0.9425760594322955 1.00841905575616 -0.4940004485555622 -1.2510016105822197
Ni 0.4114336951381578 2.037014046606759 6.343799551784995 0.4585120258409652 0.476616705861476 2.6318534438910737
Ni 2.1228898440037494 2.2476066960217715 5.002362742281298 0.6683400119438232 -0.3336595134392383 -0.8881140535157995
Ni 5.379184143397202 7.016128824480228 2.7064374398747115 0.8270418687948272 1.283613225969654 -2.9574224670126936
Ni 0.5719240781618409 6.5337974310518705 4.044053315208203 1.8099643229417797 1.9090317559596026 1.1223880884761637
Ni 4.955453413099547 6.46615769924232 13.429149248351383 0.8907026401785821 0.679964483556629 0.4195096764358388
Ni 6.8715594649938625 6.120582862875957 11.732063639402863 -0.5337041949030874 0.03273220012569847 -0.019905480674675395
Ni 8.682606084525286 7.179565962473007 12.881759785174985 0.612660458993332 -0.25180664452748897 0.48686100929730347
Ni 7.110040381802402 8.845049203660269 11.93417832984941 1.524304991530904 0.43864639726528976 0.415495155959807
Ni 3.416303465811212 4.009119590788943 0.7120045599651446 0.5070385126864428 -0.5296863319929459 -1.1896239788056866
Ni 2.9601324191450695 6.499824281865285 8.072280363816935 0.015907929479508087 -0.40743011956348546 0.6161041945675583
Ni 6.636181373404988 2.0773229047748187 12.57492288558553 0.8062987227102049 -0.7209460681753131 -0.8669757288752875
Ni 2.5028558748707233 1.0646499360760808 7.383253432289883 0.04657450532542946 1.4057056591277404 0.1023522744166818
Ni 6.080190395645094 4.023184493131981 4.191998622852733 1.1030166259280874 -0.17453111057377685 0.6907086094470104
Ni 8.013259797393031 0.032589883691949595 2.6393913324110785 -0.8637279113619512 -0.5436386804079798 0.7848809191560612
Ni 0.42767150412454885 5.6418745288358325 1.1215839918881962 -0.7347166395968443 2.2653853685622467 2.072831596158804
Ni 1.8715702911066507 1.4069175695136964 0.2650908945307313 0.22546852085359234 0.8282032360927801 0.05749269489983002
Ni 0.15858688336048068 4.327344973722079 7.430964479484978 -0.5973233144156294 0.2755317560585706 1.112617382242645
Ni 2.98148988974391 0.45698669952328785 3.199426201841995 0.9872228812945192 -1.8858260072671007 1.0184995799206138
Ni 7.040152495192973 8.203386806212462 5.879852862277954 -0.6196944830219778 -0.19714036333286047 -0.9095174588922401
Ni 0.5020965758755495 6.780063280597178 8.835313392791376 1.6441286832594715 0.1829900399744074 -0.6796374392345134
Ni 2.5912213643601403 6.305052325112223 5.793431747993555 -3.0262894651877366 -0.6521343487182382 0.3473663215023695
Ni 2.4643399666050456 3.5109210552192978 7.1442782930212045 -0.32066824338589295 -0.2548150923365095 -1.1066087141547198
Ni 9.166154454312256 2.4481755477960063 11.949352445758999 -1.3514972914061372 -0.9720415455683904 -0.08442320074208687
Ni 5.6341639152660035 6.349773883817233 4.776085961673583 0.009452146551835334 -0.16120791110230945 1.4955258625156824
Ni 7.602302673912865 6.289389560680016 8.134117626667793 0.8486383640186804 -0.9172683064822527 -1.679950063833455
P 1.0449181972540116 4.917160462334684 11.408067373156982 -0.22928918015126315 0.9366654800619417 -0.16027742886824012
Ni 3.4378560242232648 7.285396456192881 3.869552840227099 -0.9968994851523346 0.7539405208234629 -0.03477262759449495
P 4.170234254814907 4.88185885803908 12.233374290088042 0.1178341721023648 -0.9318202361544985 -0.7428282129603851
Ni 5.803574456301433 3.961155858426258 13.433092809147038 -2.417568193347811 2.1235175525494463 -2.2832036276905905
P 5.710508279503181 8.95197590509248 3.86982503417601 -0.35398665503236454 -2.684503208876306 0.9174814509343231
P 5.136058278655031 8.47117734448222 12.11797891958323 -1.7801827208039729 -0.2899204206800749 0.8187027528015126
P 1.389740552055125 7.666895319877954 0.47582753733168637 0.5829639603701637 -0.6151791116501276 -2.2953747158354854
Ni 7.775261955169591 7.851782827428245 9.805615146439521 0.2901407642209971 0.6223710014128765 1.2674908664864946
