# total energy = -340864.86163474544 ev
CRYSTAL
PRIMVEC
9.28572974247014 0.00000000000000 0.00000000000000
0.00000000000000 9.28572974247014 0.00000000000000
0.00000000000000 0.00000000000000 13.59060409405127
PRIMCOORD
 96 1
Ni 6.955782227233407 3.829100623496831 0.8229385049538348 0.3987850422939777 -1.1734003178579726 -0.5561013316513649
Ni 2.7033823316790575 4.013060213694073 8.492034698551828 0.5244165989535743 -0.24312737158593611 1.1172273702108309
Ni 5.626892170561983 3.550268733413403 8.348368675046974 -1.2843143658017366 -3.3756679320241276 -0.06556595882626771
Ni 5.237151525478006 2.712398775174162 12.583758042446142 -0.019628829974521034 -0.3722713122741653 0.8789138750737702
Ni 6.128024428588573 8.79655741687203 5.267527932898744 -0.3143243034457361 -0.960097485832637 0.9607145505913455
Ni 4.684390610569045 4.790294357285492 13.467269219086143 1.6457669901938432 -0.4121249539359934 1.3076522691967287
Ni 1.4080880448997959 1.8643888001515498 10.455523591301532 -1.4107370509040607 -1.1737075646857464 -0.8059703928365087
Ni 0.5865572565616747 4.252529895769521 2.818868022826606 -0.5193965200311635 0.14076224165344792 2.6138395238121563
Ni 7.310757100488678 3.6404610255534164 3.6232824256914764 0.6883933310502725 0.17143910191201442 0.5304417221017317
Ni 7.240659127322306 3.0328400198421064 6.132325578564817 -1.9865294332264498 -1.6018330078150542 -0.4235254824634513
Ni 8.745346617824138 7.429001581916759 5.694789425800096 -0.3710076150703933 0.2828432021183193 0.3520305597472582
Ni 1.4226573547286523 0.75090538572734 13.199330418461116 -1.3119550103371405 -0.4536325862614768 0.07322836046753195
Ni 0.20486548194274107 3.1261616028758903 5.4093052389917515 0.5359168862836899 0.6367067013092583 -0.9570514999174614
Ni 4.3105657061139135 2.1143699281965733 6.466409417242039 0.8082882423364078 -0.49122725668579914 -0.32604544853740625
Ni 7.472133796164711 6.225338875374051 4.116824528297986 -0.25450218908178107 -0.6974628974517085 -0.6951291071122092
Ni 4.7065092186075 -0.07726098502231775 13.66181918395503 -1.7828826362336394 1.7745892858765955 0.09349996623237446
Ni 0.8037384017459787 8.443894690300878 2.3410085890345997 1.3607283230861016 -0.12160058112333251 -0.6959598305436208
Ni 9.17493232885816 4.499158875409052 10.185749930496657 -0.34313274303699615 -0.11074975445175765 -1.3014078309489137
Ni 2.5318377620306873 3.4660378797119646 11.256431702648637 3.094928406512373 0.005623516834364508 0.28091513185767103
Ni 4.336649320715098 7.018553759701903 1.0513758116260545 1.0805804084117583 0.24935664032509958 1.9692876154268666
Ni 4.840028725318223 0.8711472276042324 8.63188150144954 0.7266312914855485 1.4218359890306997 0.6108501452574706
Ni 6.623938106548997 0.537876818844798 12.680835703125412 0.8622376999696699 0.3050775880364875 -2.284765572861071
Ni 1.2160870128212342 5.13412635495464 7.009693316465003 -1.0032400826583818 -0.4593162669098155 -0.12487539521986236
Ni 7.240491984188515 9.36809407714361 9.773655748413953 -1.3834296213383594 -0.42413072014761793 0.6465758807938542
P 6.771265493256858 0.18029451270237346 7.612573028614418 0.04095973024181333 1.1453549816849822 -1.0631395872274916
P 3.344524821445289 4.6660698659595266 2.197682423235122 1.4216446989555 0.41884298938611736 -0.49700889636458273
P 7.197257626914356 8.045369744963176 3.0338985930227884 0.02584704297009097 0.19980299776668817 -0.4015086118727279
P 8.595790655999052 8.241595784034809 13.435643881026792 1.651611364789762 0.3164158958674422 -0.49831758787367736
P 8.25297080286231 4.115946098272613 7.896793427616702 0.8304838045968407 -0.9667314462093868 1.8101543274653988
P 0.7118830354247359 6.122777991333441 4.071812882367841 -1.8120512873777952 0.6940584997558499 0.5960372486143541
P 6.506622198086427 1.62738912216436 0.9430085608321077 0.2620658603616519 -0.22324708772224133 0.07253441972430089
P 3.9711165728419737 2.6840680139964435 9.670434648994862 -0.2994648698354004 -0.4806415107501529 0.3810030357202084
Ni 6.648981719428809 8.221594322357717 0.7424665146167825 2.0957779205423326 -2.2699855863384193 0.5791967800182476
Ni 3.3863941764601475 9.105261499255924 7.379113999344718 -1.9245396217872148 -0.16508539177984471 -1.5648695432168276
Ni 2.387314665678667 4.519996052755103 0.1942045357257175 0.5390063238422912 -0.5119421206356474 -0.015330202599167146
Ni 9.027317084530992 0.5721012326346105 11.701509725039234 -1.8533946262112726 0.06059293109170854 -0.3509141867546279
Ni 7.7850257426230565 2.064384845463155 8.473782668341759 -1.0402068896907182 -0.033711790430148394 0.8074996849968417
Ni 5.204354328336183 7.895349496655333 8.406481556947504 -0.6377022324533081 -1.193723602796357 -0.18858835999779133
Ni 2.9855292272493577 1.0327124235922631 1.4347195175506309 -0.5002605705326609 -1.0384878501170824 -0.5304358085644607
Ni 2.464339793167745 4.904258117342569 4.6821258211061645 -0.20864939241372454 -0.7563198196889168 -0.08538864997914973
Ni 7.44758232695662 7.492998830699727 7.86848402361719 1.785987500411208 0.10974033935063679 -0.350410507645332
Ni 2.6740579974282426 2.9187091166512373 3.0827972453865597 -0.3550287231436337 -1.1963723532731139 1.0231162527570186
Ni 0.8710107273783022 9.070523584616184 4.539696656791369 -0.7075567913526007 -0.5826235463116095 0.8886069339918179
Ni 1.9907861522168098 1.5590182947138376 5.62451223805138 -0.39558119064469943 -2.9470789189948405 -0.3471781167509634
Ni 1.788747246381082 7.086711015370357 5.715052745053461 0.791240799935818 0.8483084914830875 -0.20163670854131724
Ni 1.66980633522887 5.4500175920915845 11.378257690004688 -0.27263129458232405 1.8365942668244823 -0.3399137218790662
Ni 8.616553547507861 1.0581924657658655 6.4073308194573775 0.4334828507864793 -1.607211241407832 -0.008787002164010673
Ni 8.644791451389029 0.7590201848729343 1.674172485312699 -0.9039875302129463 0.28531351803568283 0.214468827308979
Ni 6.8082319830138225 4.225666279877308 11.719286325890963 0.9674230729597726 -0.6912212874173708 -0.49047340923891014
Ni 6.5047929093443715 5.668278667634777 1.9262781883028104 -1.2902225037560553 1.3907220412347145 0.25891625898907666
Ni 7.989794652977385 5.108590598403107 6.18674181148965 0.18554597362704173 2.817121738376697 -1.533853040230655
Ni 4.658130567104413 2.6268214906727345 1.3943145221023818 0.08959780296449087 0.3849599634854273 -0.3735818035554727
Ni 1.0793917865684652 6.72674041956064 -0.12559785074195562 -0.5612659065714398 0.12200167321649312 1.4186959007398212
Ni 4.240560590244093 4.588441166042866 6.6737616175864165 -1.0744357289666011 0.9612017746404092 0.5971867888377651
Ni 4.641211967672816 4.791594359437206 11.007070861344573 -0.2075754426232554 -0.1648449936342645 -0.28338981865040874
Ni 5.787906722781466 6.664702459734898 6.098756737288655 0.3246760789937054 -1.1814596978273395 0.25717407948698934
P 5.687722985532562 4.616214783441279 5.2560433424613136 2.490188487917698 0.0974401818270451 -1.301530472569707
P 0.9085334323416073 1.5309103910478414 3.3797520940378525 -0.4058085247996624 1.0170615619225063 -0.8116021372009893
P 3.9534086863896927 7.767048570010778 5.746080082123021 0.015181078615812563 -0.3699858586740983 -0.5156416809744216
P 1.6558127406386298 5.880801162251116 9.12376702988558 -1.0307809683911282 0.4324893765249584 0.794270073680445
P 1.418274490331444 0.6589107334612705 7.812721359892366 0.4143332744412219 -2.492725652517255 -0.1268397180350848
P 2.772969589714398 8.45399756416563 13.39548402884144 -0.40310835225967995 -1.3984165816654948 -0.4750897276939882
P 4.590716169808366 5.547712753792921 8.922978911834393 -1.4903180930624977 0.44713489435227516 0.6514825740668522
P 5.484634792245807 1.4185159193024766 4.595105534216334 -1.7163329733378634 1.412701373719283 -0.12463062619890794
Ni 0.5064241953570336 7.469589506239213 7.915031529232289 1.0719792970063085 0.035133867588655616 0.4467805963366499
Ni 8.721389435313972 6.4947921785058265 1.8485399167762204 -0.08509323022591797 0.2155270933701643 0.11339876203883052
Ni 4.312645709556657 6.223964587385096 3.761199653966857 -0.08898099531609836 0.8304886896928472 0.1381623421367556
Ni 0.14558724097049552 9.320086854826728 9.5043983741779 1.3373089157208968 -0.8918334113489156 -0.9762527554362607
Ni 4.144611145717915 1.0775996407450303 11.448344520295473 -1.2943822915607 -0.39705391853548394 -0.3645585170109399
Ni 5.304500922666468 7.474501657226763 12.328118190749297 0.8044889231949758 -0.6515075137675166 -0.7682386826136898
Ni 1.9415160706668342 6.322114749839533 2.2705280438064386 -0.8012547325283943 -2.2892794015710254 -0.44599512432087707
Ni 5.3735774655707775 -0.12436656298968898 2.320241983233928 -0.7967198207725182 1.109084429388722 2.0337397723636657
Ni 7.352756455718709 0.8121289870623295 3.8815176388269212 2.1354436145630706 0.8340887483392797 -0.9183353142941862
Ni 8.433513244546475 5.972451313946981 12.214758931692767 1.0533567968091149 0.4929691790775704 -0.6595352691679996
Ni 5.942309835486516 2.0989184740504823 10.238793732578467 2.090163659679349 0.8954666372261288 1.97861172104127
Ni 3.106633713411209 6.695271081759497 7.712722408663598 0.4128793156035147 -0.06645298941691136 -0.03935741875169996
Ni 3.3230655002123464 6.3809862758528855 12.820221005259267 -1.7741141460123897 0.9994567043565498 -2.7837920138763157
Ni 1.2142112954309034 2.6930658860322385 1.1401473871288377 -0.7222069371656078 -1.8656605880628194 0.34157722562441817
Ni 3.42814281698949 6.879639244061563 10.345588909341805 0.2920654920475357 0.17685615916252767 -0.10225740071003035
Ni 8.379321726279294 2.0721105725362006 13.310243816326492 -1.0119268117991025 0.3156913589965918 0.7986951993313341
Ni 0.5748906658230034 3.546201583824468 12.52953123840627 -0.2810987086233869 1.0069949217151237 -0.9807956376119368
Ni 2.6541679645070126 9.067524293937586 9.998145691409787 0.09637908755238239 0.5764953219266846 -1.24962684172188
Ni 5.035604763313999 3.9055221785583276 3.3471211114568558 -0.31634930429556485 -0.3497389354996041 -0.08344181066542404
Ni 6.4801950114880045 5.462831899015627 8.292008010332362 2.9631724821225935 1.8323740580955477 -1.1730074532949282
Ni 0.7627623339239408 2.517834881710792 8.094360326050532 -0.08922756410926569 2.4347511328850002 -0.28330960023177654
Ni 6.499713615223031 6.915482160530261 10.151419659388777 -0.18955020969042838 -0.6384064576091845 1.5394960974490455
Ni 3.1538795058963722 0.5460854038599089 3.647609180241915 0.8136428217801019 -0.6833706810247006 1.1164298140101998
Ni 1.1433147495141933 8.027374000891585 11.533802018884352 0.17771645028029392 -0.673810291029775 -0.43663450904158346
P 3.119763735143524 7.877632324473397 2.583056918235269 1.6009601182917979 3.2836085548930223 1.3185717443227098
P 2.8934797891783233 2.222297963977834 13.063465336439513 1.3086467718995138 1.4484962719307053 0.598004399643054
P 5.249427260082053 8.717127285402281 10.534118007102323 -0.7472793067532033 0.1542412499764892 -0.022542404076890208
P 8.59230850737839 6.748366883927375 10.07514946172066 1.028227348731339 0.8510752555949471 -0.8806180022490704
P 8.424125371865165 2.6555422524959673 11.04791042894068 -0.8982280020213499 -1.2255698007726763 0.06587217721277688
P 2.4625940759925857 3.292831164455331 6.378818057978418 -0.49141494721657303 3.1502606034257745 0.7996760751873647
P 6.577992316215547 5.845106817456901 -0.4314679284351124 -1.095061889857385 0.18117252714969442 1.4180171295052417
P 9.58380157703165 4.632436953148744 0.8345205955526446 -1.5192843983878608 1.26452252788679 -1.6077956531563924
