# total energy = -381170.6725073999 ev
CRYSTAL
PRIMVEC
9.26011023956653 0.00000000000000 0.00000000000000

0.00000000000000 9.26011023956653 0.00000000000000

0.00000000000000 0.00000000000000 13.55310736188879

PRIMCOORD
 96 1
Ni 3.75692851650332 3.5075815326554953 0.050059229025994606 -0.4979805162492327 -0.11086056899800907 -1.92293473919394
Ni 2.834751195098429 1.1518002708041744 8.398358670581796 1.3022989753046152 -0.8265549018560798 0.7067916310518021
Ni 5.814784257080972 1.1037588197623758 5.249361936222793 -0.06727754220073574 -0.6863539320227405 -0.4104683921691769
Ni 8.865323797134497 8.962341970335139 1.3273710317153928 -0.7836100228634375 -0.7907499763423285 -2.035214557136979
Ni 3.9384914946406653 4.3033213111681885 2.098129811292955 0.3940182170329537 1.1908858762372456 0.6611517217255001
Ni 5.391458325242916 1.645734541923979 7.585959028042638 -1.6999465615600404 -0.20239826929769014 0.1587504507007524
Ni 5.687578125052987 3.707090604107992 11.938728400972218 0.6395765666578856 -0.1275917657097609 0.31904330618796023
Ni 4.349603341296737 7.634099562262183 11.856664379523197 -0.21424925509900522 0.03143225036735232 1.913313928274724
Ni 4.857390737080869 5.423979831807835 4.235304876694959 0.8206830164563351 -0.14684675728463098 0.33500934259891335
Ni 1.4025362711624603 1.6671809568454916 5.383023290980393 1.6056801494752864 -0.6182315253232062 -1.0634288363331363
Ni 6.562389983451169 3.650261308610012 2.12110229235396 0.525367650012934 0.5879740119902455 -1.1070951668728353
Ni 7.382530151997621 7.494614524281725 5.964072047581254 -1.0613619265017784 -0.4118236206454907 -2.604969732126352
Ni 7.6244505275695165 1.4552725980096157 11.653842040687747 0.6020168632365568 0.4637581047312529 0.6647672069909002
Ni 5.013182828894135 1.4287423826598176 12.373580391814077 0.7681499795546255 -0.6174385971082657 0.4429964467038693
Ni 4.835166472913499 6.5259144098864725 7.084127735055361 -0.6083551467497588 -0.49244107448824215 -0.19138006381031555
Ni 6.833257463101065 1.1908316347481185 9.307460716568217 0.38226416182081907 -0.6278379380647188 0.7519209192902728
Ni 1.1390861396784246 4.948519480277157 10.763173169806146 -0.6000579397379731 -0.48213146503211807 1.0371807012698846
Ni 8.709337243009767 7.520255769064828 10.77222677942133 -0.770300450238725 0.43049188647895537 0.3169756250256541
Ni 2.1747646302080894 2.515462599893876 2.1013551076302446 -0.23052022434488686 0.128475710976611 -0.6661095799514076
Ni 2.4685508822805855 5.3833927693721755 7.4540867265505115 0.5804021131802585 0.25568798185976604 0.5343827090273506
Ni 4.629869832667415 3.8890980675286855 8.003041793671676 -1.716251983588283 0.5756576565167376 1.5701320771673475
Ni 5.422007428362981 9.2890942142559 2.960730362542175 -0.43679006078284127 -0.0057968091874351785 0.29646542088744426
Ni 0.2486700698017271 4.699829964244283 8.511405168302145 -0.4442598867973252 -2.6354036231361775 -0.21692320238674254
Ni 7.182558075041637 6.880909989519934 13.021567706076048 -1.4419929235945488 0.3196030353461722 0.04774024349875649
P 4.023332623099601 9.150785210254298 0.07678205466524345 0.20621944281599325 -0.5554996935116239 -0.3078443521483472
Ni 8.022829722879699 5.112599370602838 5.448023707603909 -1.534510471308996 0.14186344513742663 1.943817239069904
P 5.5997089406012455 3.9892368978228276 6.281716047237422 1.5238545342570466 0.28561330866428875 -2.622901891124741
Ni -0.18323442800493317 1.6153150803448912 0.09894427609514649 1.6434565968931116 -0.7560706797925882 -1.6666464047460134
P 8.51578242233211 1.0380490787075176 4.742082920481489 -0.27925677031864166 0.4020943091728688 0.4762744920307088
P 6.739785912057132 4.775698046045643 0.03273911915155736 0.9171515783987301 -0.9577649810447183 0.005817378012725465
P 8.847275842608578 2.1953405947830467 8.453113701424154 0.14033029632235186 -0.23888299448728537 1.9350433495320154
Ni 2.355596059649926 8.095401205496232 7.360936501326 1.2148981799914431 -0.07354794859047979 -0.18619877671969223
Ni 5.143648519666669 7.983687237614918 5.135204225294074 -0.11651802439410254 -0.7545930668057972 -1.0873650354337596
Ni 3.1408811738938853 2.22626936241597 11.343002369910822 -2.405806424826192 0.7531527348148448 0.12010162798030286
Ni 7.987919107916788 5.330184176911462 10.472417751759476 0.6824265719438763 0.7827656725852713 0.35222956313194176
Ni 2.364837649499524 5.679123644559316 13.304231639943785 0.08867400559864083 -1.2745259189564049 -1.1683627554340654
Ni 8.964907020824455 2.844789154414025 6.24859263351797 -0.22903181272481846 -0.07145481350687695 -0.6256761545267095
Ni 7.078270715436252 3.0463539703020035 4.536157518761671 0.7506775338014748 -0.05895076750259525 0.8405000511822621
Ni 8.452341408244338 3.7513446701312683 12.487873300349811 0.3317288720754287 0.5058735458440643 0.19684494357962873
Ni 8.187502260249843 4.858613071610074 3.316147277183809 0.21260040664167257 0.4171136653998365 -1.768236347075374
Ni 5.89568983876027 8.36509265116727 8.397478034114165 -0.025057200078943943 0.8624107352124244 -0.913444561860788
Ni 6.891522075659854 2.130492043964674 0.3809451860818872 -1.3070927971488326 0.27966660416255057 -0.37759812380371743
Ni 2.746807929766131 6.324997801703375 5.21564217141485 0.49859552412541236 0.09264507443124691 0.11436858215126755
Ni 2.475653386704074 3.76081776273261 3.9910648435505935 0.7745610252872918 1.456277458538021 1.051571165663602
Ni 0.7745822790253568 5.2646503779479294 1.417465420616891 -0.48656456110280716 -0.9265114223470754 0.39857806848949423
Ni 0.6519080448655007 0.6930979404667006 7.569261197564887 0.7000861940071685 0.4872235348430448 -0.8574917006442522
Ni 5.740508914211606 4.990977084946904 9.892941361848456 -0.3662289627348273 -0.7923170637191322 -0.26043963761213856
Ni 6.378724960327993 8.847442524589834 11.383200507723554 0.8034545683931904 -1.869053158684136 -0.3632806787397808
Ni 7.460639180435858 0.9147173767327101 6.998458752756191 1.2124283782947118 -0.06981624946218945 -0.8323293424460116
Ni 1.315157872544416 0.37304631219240103 11.840685133586858 -1.3186313939160517 0.3241670005677708 -0.4178675128467255
Ni 0.9024727331874961 6.744406706981932 8.814832120968246 0.5473212714658896 2.0083683834784125 1.018308289845414
Ni 4.322878663635475 6.919552428840949 9.74412861499475 -0.6861325600405539 -0.019425712824779447 -1.207393901194598
Ni 4.464437966271554 1.6649400102086152 1.2551718055236625 0.9453028440219656 0.13989320878493325 0.6386512266301388
Ni 2.2224078965168896 8.028682112443772 13.081798240002644 -0.034505747086353476 0.7618384355143009 1.3524414004869612
Ni 5.978086298160795 5.906385265890817 1.7491912696561087 -1.1595508135693902 0.7177771835290283 0.4218226408397316
Ni 0.6569159123912147 -0.01029353835352034 9.756272323340205 -1.2027319769425544 0.5496833439401629 -0.7738107773848286
P 2.529871331162388 8.411615444157633 9.586763230480635 1.8166260512326715 0.21611896131789232 -0.9274383050367188
Ni 4.831508729435952 5.6394903734608395 13.148573819726531 -0.08721850409903688 0.29798468574544806 -0.09664159718514968
P 6.609033157872437 6.962982345068018 9.838363199108429 0.34308980561420266 0.5736015453186574 0.8013478064628328
Ni 7.992901047134306 8.383983275709536 3.562230998243059 0.5578532813454651 1.0419668098046184 1.9997559592190526
P 2.3596242075302616 3.865447746410575 9.350370214609368 0.7991001480792368 -0.3285509885680793 0.2601943543705519
P 8.416689984475848 8.835747005571756 12.551708795126556 0.30499556984564247 0.065522507182842 0.5746297294728555
P 6.722191702924631 6.742591725408263 3.7048774378013247 -0.7414606431888973 -1.0472578830002286 0.913444304750472
Ni 7.674306960184984 1.142253097322275 2.612998413247415 -1.2258184264483727 2.3637490906448257 0.01844972206475532
Ni 0.5410960117049785 2.439048171598401 10.562139884236169 0.6015939167665252 0.10395072925205324 -0.5648022018594725
Ni 4.842093035245663 2.5788110128809514 10.030586415958055 1.3574262552960623 0.23637642601534772 -1.301120895836114
Ni 2.266430459788422 1.467190359669368 13.579942157160152 0.5147086276371909 0.45639626504954306 -0.8625847988964436
Ni 1.9807005034765983 3.004127868384 7.328503891817751 -0.3567477627172695 0.8146272971805583 0.12347183000411639
Ni 3.5835236953374134 7.457046257728799 3.255836180299608 0.5203218600589102 0.5088393133406075 1.1926465676820945
Ni 0.5483902004069108 8.529867049748182 5.772701686869049 -2.729770308244221 -0.6571238315130296 -0.45842178012000406
Ni 6.11271903846471 8.898521291734507 0.6513404001182258 0.4775780413334807 -0.10253739384429436 -0.2716589033667257
Ni 7.56363938474155 3.199118006122465 10.170509457144814 -0.6156146565256495 -0.009920344437505495 -0.008501866823424067
Ni 0.33996827301229127 2.900433155823078 3.5757572410219245 -1.1326565602817074 0.4076041832475045 1.5996462845763806
Ni 8.7977898143959 3.2540582391662185 1.5307832395622842 -0.040397172870123975 0.8673801634025576 -0.35268361995022485
Ni 2.429945483399849 8.734904406912312 4.858233407097216 2.870294465744934 0.8668142635967587 -0.8972088167282162
Ni 1.9005172103827401 7.097503964051097 11.105402761697468 0.17480261906760863 -0.405197887798857 -0.2271698198154152
Ni 1.379145233126303 7.582446668293187 1.6952770568080824 -0.8942649036085437 -1.7626822500263644 0.9076528948796755
Ni 3.588440813784444 4.942935633905106 11.156714883615896 -0.00717260648903926 -0.38920922568008454 -0.5642159903386993
Ni 5.183707755828353 2.603637367977918 3.38151346815508 -0.4485731694606984 -0.3775482444023885 0.7758018396729284
Ni 0.7821311207542069 0.6686642140366909 3.00229807063422 -0.5633148186806685 -0.22306325384620937 1.491036202175445
Ni 4.4154242036724325 0.19952296161760166 10.333512396669382 -0.8868817237705952 0.36184883138926066 -1.1873696355538712
Ni 0.10137598099945958 6.46532550970018 12.943704996565668 1.2227534143698038 -0.00025016833759311757 -0.10457087933455539
Ni 2.570310231836932 9.409012639659004 1.8452963960038737 2.432121665681953 -0.3094204383862155 0.6932465453775157
Ni 7.5112919825173226 3.5923948807842216 7.818285929582285 -3.6663733104993437 0.9719348447871972 -0.7106472573524664
Ni 0.5593995452688219 6.6310166591779955 4.0910323618084465 0.15659175248653676 -0.08670402635646357 -0.5058588905560449
Ni 1.0728207920193824 4.691773668483612 5.612774955909646 -0.22670290748132568 0.0003913219011477132 0.33356078307784487
Ni 8.11205088340162 6.866093813408353 1.9383521681056741 0.789069246205796 -1.050908078158306 -1.3972732120896711
Ni 7.09388326101383 6.024257206968507 7.862672415179559 0.09596951081878956 -0.47904048481162015 0.5232529176627763
P -0.09904335927289268 6.186086890547241 6.927019781601185 0.44684718790852723 0.6239661138141382 -0.44755089884377114
Ni 8.402846119921591 8.14559100207421 7.712070615060381 0.9974389025955726 0.18189680691022866 2.9373454937571606
P 1.5393543974428334 3.521221674788219 13.197690369547423 -0.8734788201011279 0.3252144679956786 0.020126081325913724
Ni 3.681616041306144 7.068343877441493 1.1128642859939488 1.5354882618412329 0.09791866412536039 -1.1403600995735523
P 4.330240451140916 9.126977467265004 6.698216351943073 -0.5200166701136657 0.2789073573990229 0.717104582942036
P 2.3758016198220933 5.7974030304800745 2.7529075642690675 -0.03257921948760195 -0.47749679447358406 0.819481539949066
P 3.4056925415581722 1.746466019262585 3.8060376582361597 -2.1701663627562366 -2.1085429335174846 -0.20785646419878398
Ni 3.8319354080681944 2.502831809758754 5.780725572244477 0.11488743076921505 0.40092574278606435 0.56416148295168
