# total energy = -340862.9484416663 ev
CRYSTAL
PRIMVEC
9.27877538447025 0.00000000000000 0.00000000000000
0.00000000000000 9.27877538447025 0.00000000000000
0.00000000000000 0.00000000000000 13.58042568816504
PRIMCOORD
 96 1
Ni 3.0872619236081325 8.331171011314902 6.911201070343489 -0.3362352445862145 -0.06339980441288436 -0.616925404917273
Ni 8.02476729638871 1.6479847071834324 8.269976560939101 2.8240480331828848 -0.42876564781646803 -0.8673315695528094
Ni 6.8923577336506145 3.505632618972045 0.6968415854032481 0.8886534709590374 -0.3637064534232897 -1.0047704032599791
Ni 4.607607799027144 2.416935366239924 2.0477245498067385 0.5305119132180348 -0.7123662969261022 1.1355683346118637
Ni 2.309951088089025 0.14939199236259706 9.159779555572714 -1.2439624443472512 -1.470171957131926 -0.5063265742210828
Ni 5.100347877685025 7.3816553867062416 8.320726821940518 0.9122443709050998 1.1075510234633312 -1.4821183308605248
Ni 2.9027349210420494 6.1778549275160195 2.725482478239219 -0.6175856642090913 1.5416712507234935 -0.3433561719017119
Ni 2.75279919245225 1.5373631491509063 3.4938086757241966 -0.23769565904740356 0.35427796102053827 -0.7787917755391878
Ni 7.167640436528401 8.336886736843173 7.415753957718969 0.14881365120301468 -0.0006119225523860429 0.20229928182598064
Ni 5.845414969355532 4.943601528092384 2.308251216470877 -0.3484220164603935 0.5251460209204312 1.9990219092665056
Ni 5.424260641429149 1.7314008963054264 13.511152121469525 0.15203987144979622 -0.40953559594226235 -0.4281400984173272
Ni 8.65333936531988 1.2070944243891442 3.463307485859701 1.1581827295772698 -2.282687093065488 -0.30635774030049173
Ni 7.920529535699446 8.026121997569112 2.324276589133012 0.4706293779297894 -0.8483216041092101 -0.5897876681602165
Ni 0.3062951532562568 4.893171384835651 7.0955276513650745 -0.39747197990950894 -0.9606800978089842 -0.1735360936503592
Ni 3.327340953345893 6.029793511518283 13.471442675088383 0.0991913601901969 -1.2119002737053837 0.38716391311528164
Ni 5.05967900594735 7.536239781675365 2.0182273234197736 -0.30270728803209807 0.5468649006547615 0.2644644425008155
Ni 1.263128947871649 2.706757909869009 8.460020723243998 -0.6055073928883185 0.43667256136837057 -1.1988506396102772
Ni 2.6200663130985102 3.7223662502858974 1.773413334693253 -0.3316486536567966 0.47556743866135515 -0.9739888991027483
Ni 8.359304257746258 4.1313746614647044 2.495239878099704 -0.5988050411674785 -2.84758828239667 -1.006709015043589
Ni 5.342672371023177 1.203754065314181 4.414113788099827 -0.20824572921740264 3.0373413521265236 -1.1325596296925269
Ni 0.8050627242894048 8.115207518343334 12.773924666972455 0.2892033400083922 -1.413848599949849 3.766686442998809
Ni 6.431712938438003 8.581800008464421 0.29688740307263173 0.30240415496938244 -0.08264091203068348 -0.7245307002027781
Ni 3.0353378975428735 0.10140216698562803 12.491492667796726 0.6242808168410796 0.3283892661792344 -0.7140771089696218
Ni 5.949318694137299 3.8434728243037233 11.67825627042639 -0.9188593051184564 0.9199296553644994 0.8423589587678719
P 4.499398722548758 2.9392747378120614 5.1633591122465985 -0.8627015269799658 0.3657062574621379 0.7705002249543569
P 5.904372307028629 6.095589306519847 10.890971679435955 0.15191697271868676 -0.039250975080822724 -0.2772657080305419
P 0.9470660279536879 0.8693432952994644 7.344891951453711 0.3067079245510589 0.44760000691415175 -0.6919172850431309
P 2.8442044070285304 4.896920010019776 7.8262228481155525 -1.1094127592624183 2.305367308271823 -2.6341759213766633
P 1.9062686938797413 2.495953415913217 11.003783956295143 1.1238045092077162 0.16025248916757562 -0.2167123719275171
P 8.32898122036576 4.282887781839904 8.811700221798752 0.3912820490487132 -0.07329803736320278 0.5174167705969734
P 7.684746578883097 5.8850538970450925 1.370468603113024 0.4040100381383429 0.8452239390204926 -1.053045179105967
P 4.563394435159925 7.836658686592249 13.16205305030018 -0.1848404629195849 -0.10609271529572051 -0.7381986846081737
Ni 8.760592727951819 7.09653718210773 6.057467458576831 0.26496863583074365 -0.5303861862734478 -0.22734696882322783
Ni 1.0770709473962077 6.282157639631741 0.9136160433280162 -0.8334696266980419 -0.5325070892711926 0.08567609931258148
Ni 8.598195604257365 1.8268330993220785 1.031638352466627 -1.4562226940406857 -0.9136440794661039 -0.8980318268501438
Ni 4.242710685188265 8.681500448076859 4.6989090913210925 -1.7249325420814166 -2.3390310190728556 0.14280318334287664
Ni 6.977898762295293 7.805880989226548 9.857541595476619 -0.08243496666746448 0.17398320849010682 0.10018689133424682
Ni 2.615686731200225 3.490962875367832 6.3205606344635665 0.926952880759868 0.9536591864064609 -0.3742762585193361
Ni 4.593903048044587 8.021111458956666 10.721229477286666 -1.3110772357178775 -1.0966063515263695 0.2486364743296234
Ni 1.8942805163107073 5.96572356870545 5.404235188774746 0.0476764801403566 -1.344367108119259 0.2588861770820896
Ni 1.3565105415672825 8.679143639173969 2.606409811747036 -0.786756024691587 -0.48327200639446455 1.6962066349016338
Ni 6.2856928529860765 4.36738958766126 4.954030871426435 -2.587235033850751 1.650719449103112 0.37215329863906227
Ni 2.657849485746425 1.2841824888191244 5.846793795351474 -0.34738303367291784 -1.1914839148325609 0.20755795912175867
Ni 3.673856813497267 1.3706235586590012 8.117156061137061 0.4755098459505423 1.8006191342814537 -0.6147042288962381
Ni 7.5539344059974605 2.5692464612830306 4.753868204756963 -1.8811160033859409 -1.8530218162528862 0.18007363765856085
Ni 7.785829556001562 6.520649998808893 12.073324249732352 -0.4253615072309255 1.4088118088568897 -0.6849238844444334
Ni 3.4033619586269266 4.440562008953367 4.049628651880193 1.7784755083048789 -0.6623637397557303 0.6830662624104042
Ni 7.3123893297768 3.463636882379593 7.050196195085263 1.6343363797593984 1.1293971728041454 -0.5270252402210149
Ni 9.104482694719263 6.041726016436067 3.0907693006368433 2.579563376238106 2.1680688567972597 0.989819695487418
Ni 6.050373834930139 0.9796716440354103 8.92516386867756 -1.2400445973500838 -2.5450830830730493 2.4920759347483985
Ni 6.677999468790069 8.826518425806297 4.6046061152472815 1.500065916477881 -1.3030114279906078 0.7606708975687608
Ni 0.2043993554295509 1.4759005421715865 10.122672390399082 0.833451371865597 -0.22949229730100473 -1.3563595045944448
Ni 5.7484703259799375 0.44299099750143184 11.592278211469402 0.7038487463733943 0.18026467062344437 0.16568754414021789
Ni 3.3743843436516223 4.445925141023725 11.619140265697231 -0.5102107397668375 1.28464552388891 -0.7801511177805596
Ni 8.67037519660219 4.649204548285642 12.959854620350022 -0.19769032229905953 0.2774310299638125 1.36675138935173
Ni 0.450269268774768 1.4480178226708533 12.427515512735974 0.9942039405980427 -0.008542233143056256 0.7929629248332472
P 0.7856403920235364 2.3685465535290016 2.349006380817989 2.2774991211066453 0.19128184766955442 -0.11392635240752637
P 8.910797541022657 8.41881832193185 4.319824730188828 -0.24129751746604894 -0.08516702088664688 -0.47740063521535203
P 7.964232566930212 2.6851847575098726 12.435568561739197 -0.9792684023341328 0.2651938644676723 -0.49927686646315306
P 5.0002113356377995 9.255884469791964 7.26245838462627 -2.6847227810862795 -4.235983989491053 0.13570153930108889
P 1.5064462701570818 4.581061223156396 13.117156768577635 1.9171281598144918 -0.7381354354704062 1.272971944205724
P 2.0856459762052566 7.829282060301706 4.595344041834426 0.9355354802225566 0.8607510881218144 -0.5355183652936907
P 9.164581321742974 8.461203767083047 9.030847262544265 -1.0036841121743358 0.10603975057059803 -0.6240491604462478
P 6.843254455248657 2.5197256379967037 2.6686212158856604 -0.5767555175666067 -0.338743612830365 -0.15582607796510584
Ni 7.300865090968177 2.6393940018572546 10.23447977590322 1.8590556811517918 -0.2484089316998496 0.640053506294304
Ni 1.3173726677389654 6.878987018575554 7.589339428559506 0.404934092614509 1.0475646156073701 1.6550751549686464
Ni 1.4394999070296977 5.138771285822308 9.532494037524527 2.2465091004830344 0.5769853741892257 -1.7606690762510775
Ni 4.681040026025081 5.844329352656168 6.177016126237196 -2.261664210956918 -0.28224799173648163 -0.11863224252362793
Ni 0.184129870987171 3.8178077320777577 10.735149495854053 -1.6670356697646325 -0.8876646246832066 1.198168525941588
Ni 8.085691734405952 0.19761378711977184 11.254193974349748 -2.0377090414240584 -1.0447736831257943 -0.5889183781813857
Ni 5.804504849462442 5.690023320943293 -6.40235489367916e-05 1.039588539380429 2.480088423369219 -1.415494105973072
Ni 1.7664004363908723 1.0173620289312435 0.8790869371456275 -0.2662459598812705 0.995882613852046 -0.1659474826698239
Ni 3.305619340583425 2.6272852002105136 12.875736955822285 -0.8300999388948608 -0.5198168953980338 1.4023169451611655
Ni 3.215169839853592 3.6533043264110363 9.33708581527175 2.401321649581961 -3.2379802155309463 1.876171772006788
Ni 0.9782798277541758 5.95203737527331 11.635165638359368 0.36150301801406776 1.5349596430312724 0.5322247821440834
Ni 3.782511271185648 1.5168941710415496 10.68846055476128 0.40926151634526936 -0.023383669031262957 -0.5867833341162539
Ni 1.1389418204846897 3.8443450291732977 3.762375401106267 0.4847156808195266 1.0932677740714398 0.2924557855074189
Ni 5.133241135798204 3.1207304657842205 7.328635537288891 -2.252808046117869 2.4143712836770677 0.48109736734064884
Ni 8.931600555039509 6.373516460331979 9.627638598509725 -1.8242308601631227 0.24453505056674013 -0.12988981771531824
Ni 0.46732087397493344 2.867531247902022 5.752614226987933 -0.6904309303055916 -1.0073607896949748 0.998761220951422
Ni 2.657552564939762 8.031485129639469 0.7644996305891036 0.5368339987813205 -0.45371203334916055 0.5332953895004428
Ni 8.230886008864346 0.791080537928122 6.043153092063093 3.0165344426835015 -1.3336960015586579 -0.5597610398911391
Ni 1.0755770645876825 8.674235167088815 10.843996952066766 -0.12918893499355172 0.0403524356751176 -1.6965061684199232
Ni 6.479071807100812 0.45371447800958403 2.4137304772830013 -1.4815442035246096 0.7931781261678469 -0.8660413899864763
Ni 6.196412477932481 1.3181335273060404 6.722555219462472 2.2072907784123594 2.1996214347925602 -3.81156273468621
Ni 3.8924554786279737 5.934129339121426 9.357728306477503 -0.024607514136035038 -0.2805420647889685 1.5700557154034573
Ni 6.248837557858985 5.226177348283841 8.53994159774505 0.3766758690997642 -0.16075076896023283 0.501404197218801
Ni 7.1649959855940555 6.529557623008795 4.263859797520385 -0.7036147759857173 -0.4392922583794047 0.5130860044321034
P 6.635845993019077 6.2228569872759385 6.5745958699920255 1.7143858769138216 0.8982789098639433 0.8102065424050434
P 8.40869517817967 4.364132737563171 4.6812812741804954 2.411562096363047 3.002455338882616 1.0622111618759513
P 4.860176060195183 4.009265979724389 0.6071167570171783 -3.877848859507954 -1.4782349366457188 -1.2681025319285644
P 2.4163322458513896 7.1372617264966545 10.29494027516005 0.1854279599919387 -0.05635780996443843 0.05541550065582715
P 8.380784622353312 9.128941546168159 13.281683371182377 -0.3409169663326 0.0853642244991175 1.6740941192733105
P 5.329357328599366 2.7741403754311804 9.62966229938264 -2.1995805542522957 1.5800423943025241 0.3235594488907589
P 4.946190306375481 6.369368847813901 3.925395130617192 -0.8819182091177327 -0.113263779122863 0.13415733474242056
P 3.5741656526600365 0.34019144696944426 1.815580728627057 1.3404675159545365 0.4778189536996932 1.2054187797460982
