# total energy = -340867.1796587934 ev
CRYSTAL
PRIMVEC
9.27941572060377 0.00000000000000 0.00000000000000

0.00000000000000 9.27941572060377 0.00000000000000

0.00000000000000 0.00000000000000 13.58136288481582

PRIMCOORD
 96 1
Ni 0.2926699814444147 4.416686283895291 9.745456525886286 -0.6348791611822162 0.49703692138904076 0.5732274498086901
Ni 1.282480179757202 6.555582280146243 9.119110825847045 0.04320944550793849 1.5237596605503951 -0.5453420362523318
Ni 0.426280573644897 0.8949476614684894 2.2233776509612455 -0.2877740637610334 0.30174158168471904 -0.534159537272951
Ni 0.6111673600851959 0.8088077752060849 4.694017391497291 -0.1904683506293236 -0.6587513398141236 1.484689948242443
Ni 3.4499660552026374 2.691448072367374 1.3121251284954738 0.8952612060835421 -0.564951325842827 0.6937365976400568
Ni 8.049438265866163 8.093162871761782 7.84608915432189 0.8328186233776045 1.0506967334784485 -0.7894862791385564
Ni 2.3892639061978365 6.138574626423139 13.493952513429578 -2.293379282672012 0.5891582621063337 0.4589426856204806
Ni 6.708766871429114 5.2912155194697394 12.753592490869476 -0.7283300193442102 -0.4919314818416753 0.11328049129341136
Ni 3.8797793023332012 7.623800755716293 9.107580224131024 0.378694956412322 0.5507621788266386 -0.08644794448159951
Ni 0.773464337401493 6.140365553617081 6.0965379462092715 1.7433958909929266 -0.07821578637979434 -1.2033243591109148
Ni 0.5251490341660072 7.19109233094578 12.015132892606363 2.6729887804788026 -1.8941185862931962 -2.5509845361591483
Ni 1.3246180056001586 8.061928359146194 2.979560932853525 -1.1756304927400723 0.6212155476521947 0.1791192441650915
Ni 5.6043308371131815 1.2029741476447933 2.3483259087806667 -1.6973677450892701 1.0103280998534148 1.0524293998988392
Ni 6.943396892666541 1.3025422760955574 7.713344331588738 1.1567488253442206 -0.38096678316563426 0.5269676475102022
Ni 2.4167402555308013 7.471980238513781 4.986723562662205 -0.014012255118691997 -0.15507840116580388 0.8811515061550372
Ni 1.181547977226078 2.737241987922316 11.612201184274403 1.2994594489732911 1.4041223738010205 1.8263008553182742
Ni 8.205239652323604 7.989938653599033 13.087027872602526 -1.5765526359817106 1.0598051235376198 1.5265163973599258
Ni 2.1632266237251274 5.39196213369061 10.878522340883409 1.3701169633898533 -0.03323510790404599 1.6760646127361198
Ni 3.119581745290148 8.738518382420246 12.726334207801058 -0.6523672906646507 -0.66501891799039 0.8793147100566147
Ni 4.401792821997483 5.06094682352326 9.28161195030462 -0.14087357042033158 1.1111189433202477 -0.5029116350022629
Ni 3.5418229893623874 3.0465898628676213 10.410766491663159 -1.17872147296057 0.27163242100416446 0.15957114682983486
Ni 7.128252129094096 -0.35466111677669165 5.897191046575606 -0.4178109485771772 1.5595535303205528 -0.6735704071048271
Ni 5.57176008866377 6.829594140819367 10.888843834758132 0.40005439592470454 0.051486340804750036 0.2309935644368796
Ni 9.231181110818007 2.987108809431517 7.834830439480388 -1.3300015834262064 1.6124928015217455 -1.4004238419035109
P 5.983487754960174 2.9081038657567913 6.658059505360224 -0.8300451743975253 -1.3425290264692558 -1.5093799947899553
P 3.989480552523782 8.036641951874214 6.3280185338217025 -1.2839667526543306 -1.242372474152312 -0.7618152955858493
P 8.875111378766494 0.9586842548586962 13.687976740325189 0.8825072488519833 0.5020605998558773 -1.029411341737111
P 6.731139542230121 6.59149361818021 9.095234889732989 0.5839173254223686 -1.1571146933240717 -1.1194431469152268
P 2.747922595177379 4.857031667632715 5.614290433782912 -0.5998836189436378 0.32085850501982804 -0.5071297868486685
P 8.400812613668274 7.6552579743041855 2.279305616197555 0.23606095165745794 1.0132293326606099 -0.03559692326800322
P 8.480569189999523 5.336990876193655 11.569038910958849 -0.32365098016330063 0.8620081004573671 -2.4885021013542112
P 9.153939256090684 8.020634960114888 5.152741585599076 0.7205344345591913 0.46911268417494695 -0.6817303172078001
Ni -0.17054823359014787 2.186230294780994 10.07940784312184 -0.16829541407671017 -1.014033830839776 -1.8151286407515386
Ni 6.16676549075058 8.66714111829692 9.132311722355345 -0.35134613208572396 0.710954247069924 0.3936886016076769
Ni 3.620401079923531 3.5447274464178475 7.2919827761070986 1.5194813448900153 0.9266273790996493 0.5082153066033634
Ni 0.29380670984471474 4.734051573843529 13.126305782584481 1.9979952677742043 -0.9932534037593151 0.12409866495483789
Ni 1.1533199952365882 8.196182942783253 0.49941071935856224 -0.9577282142695117 0.48552994919070575 0.736921360557647
Ni 4.845172574607545 9.122175816790874 11.137613829353738 0.2163760716340209 0.4882861717796042 -0.7223100384023753
Ni 5.281527809674529 8.431258375965287 1.2548256656463945 -0.32380601768392625 -0.8954018454264643 -0.5180222653914562
Ni 1.1330351929259292 3.302664613354787 3.0556706988883033 -1.941340238284321 2.1537989771418067 -1.176578201365322
Ni 2.908651351272038 6.326492069969871 7.301190740120303 0.30186036665077043 -0.6864266942422049 -0.4721414436989417
Ni 5.3053295104644835 2.822037286876937 8.768875062328338 0.18613578469224074 -0.8461148262658783 0.34052461599018774
Ni 8.617997333741911 5.8415126976165865 1.2142876110378196 -0.04506501065943851 1.3521472662853098 -0.6374433223649667
Ni 1.9164591269971523 2.8829844879640403 6.172430573921054 -2.0679997219877997 -0.7818279912623504 -3.026557374137142
Ni 0.8933284034615315 9.283869632098849 9.249899547790129 0.35285974051677294 -1.0842997662448746 0.692895075575368
Ni 4.439968337416537 6.750273697017211 13.0973502944188 2.96738060666667 -0.5045103469479505 -0.6488441080027406
Ni 1.1840719782455194 8.390466065371664 6.87940789917439 -0.4870456145042838 0.5813595919975213 0.923607875547035
Ni 7.80264293089165 0.7144908679939308 3.6659630100906564 -1.5129710545753234 0.19565349437468885 0.05467425161442842
Ni 0.36644597447776067 5.828410162912721 3.291090398385855 -1.3678924449347087 0.07705467619215761 1.3438400319711952
Ni 4.595426385500009 0.40946812861907267 7.340047364637986 1.1676140501934988 1.8925368436283727 1.1158549153433361
Ni 4.708059930992588 2.1329014938297783 4.988312198597971 -0.16408600398105289 -0.8933362211466872 0.9051193298245443
Ni 7.308996584449548 0.2426400127079473 1.3486888094399796 1.5158828289054795 -0.8541862904201031 -0.6645697462681135
Ni 2.800388410485918 0.43030134438652945 1.7579444394438126 -1.0237451445902692 1.9021795089244595 -1.5644401689888927
Ni 3.3709332732813735 3.7359669207181088 3.7139598588883014 0.6319308771871698 0.35765613346415176 0.3184275269808322
Ni 6.349746285244579 6.143251451841517 1.3919809945727102 0.42894331104491285 1.3478964614287559 0.39276994644814933
Ni 2.5431815713062083 0.8544578598205802 11.042992557312768 -0.032024118315080334 0.23239610121136106 -1.810927458185997
P 7.104738090185035 2.257561161826756 9.834550050106369 -1.5078838698604031 0.24318342163485213 -0.16424052728104616
P 2.537818069139895 7.865705838715638 10.68020731225475 -1.4095255470944628 -0.23093828571891195 1.0506746219912613
P 5.800163622092206 3.110868374123767 0.12755762946157884 0.763332246451008 0.30884708238124875 0.9212897689368197
P 5.6338486578589295 0.10507731744062625 4.336366447042423 0.1071664079758735 3.3229785720502125 -0.6287133986911365
P 5.34998205791137 5.709939865062683 3.202159263937245 -1.4987937346336768 -1.4832395889491616 0.03293557438575618
P 8.557625456416593 4.741502944500189 5.86579043242234 -1.329824948639026 -2.212725576274686 0.39099819925970725
P 9.193720110393427 0.9139379853151333 7.543673002764535 -0.10947602994565662 -0.9199036872225707 -0.6522227946669864
P 2.335452575639963 4.461301713680125 8.863496334369307 -0.5266241481278543 -0.1951369597495865 -0.26346762580518496
Ni 4.976810363070038 1.0818592163736491 -0.3082890936353119 0.12227343882064104 -0.10421709553956246 1.0789595849788838
Ni 6.033327495678632 3.350258735519183 3.4101852008998947 -1.6721771047562555 -1.412563048369206 -0.638901652078048
Ni 6.384562652248052 4.782722108207392 7.29353151055616 1.1118110842912658 1.181208758158798 1.1255567160121325
Ni 7.383658761664352 5.024070426275979 3.5947694783944817 1.5196322686455828 2.9247830837111177 1.1428635827216962
Ni 8.100215227551399 2.3625855865989602 5.530290380737726 -0.1288462069421523 1.0678225945254578 0.47248905684634757
Ni 5.962033746294921 7.400083327121747 4.394670870591522 -0.590694239134886 -1.934227795609256 -0.202503941637619
Ni 2.8008245430150125 0.42081963761570085 5.7647320298402445 -0.13659062677426154 2.13626585335405 -1.1789397596189632
Ni 6.597831458975351 4.492406314478537 10.146744849730956 1.0972498986476393 0.4681397787387163 0.39544235107398995
Ni 0.3518076965065509 0.5195804569168644 11.59845651401706 0.3653555589909385 -1.5991852857795619 1.6443233157687809
Ni 8.474379819852583 7.7445259515359055 10.02110341957274 -0.3493951790069402 -0.4391475052714244 1.6862364110627992
Ni 5.424644235126173 6.940223332561214 7.287052622645226 1.4121447298848646 0.19805696160985892 -0.1053272978846057
Ni 8.104539435180294 3.5680466176011443 1.2329596509323792 -1.0957226633698356 -0.8226128864891962 0.5583983552156577
Ni 2.703455636040747 4.0226080659039525 12.994565920551349 1.1428496987646253 -0.6711898226877925 -0.9889923144901163
Ni 3.8163544973042196 8.693819437895797 3.344084212437064 1.2578016642231886 -1.2815977382015218 1.5355677089289166
Ni 1.9331899131664654 1.8926481467916854 8.272041236657639 1.144008494959417 -0.0035393806118261626 0.7468293636999783
Ni 8.66882069250471 5.820819601023372 7.8763344812438305 -1.1022848899683855 -1.035137445587611 1.5484738754676235
Ni 1.1293883826294566 2.625759089953305 0.6888750414712528 -0.3946931316127912 -0.03903885907001664 -0.8231972982377566
Ni 4.552165750380022 4.742291694818764 1.1070871633278982 -0.05210854776978123 -0.17408348151339695 0.12332219180012954
Ni 8.069769465254385 3.007736950116144 12.463751803214869 -0.2989650473808464 -0.6330408224218969 -0.3150269859397155
Ni 7.618446532965492 6.692249511816593 5.852195160754753 -0.22833581509905837 -1.5618307563905038 -0.36204372100888615
Ni 7.432347854859241 0.8034452009813228 11.342365988523524 -1.5562820586581327 -1.4841893544569407 0.44112134116834356
Ni 5.616477592019244 2.526330152735231 11.55162794363246 0.1863648699839113 1.0021036550610933 -0.5381933410226925
Ni 4.918582030728142 5.1067871361557655 5.426990071367772 0.1040268339056273 -0.11634087538628995 -0.8281320165352126
Ni 2.536741656940427 6.11052295332839 3.232852786628447 3.0041260417168196 -1.5391947641585428 -1.30104479118254
P 1.4439327302618477 5.03554906326513 1.5261381443468873 0.39992404099442735 -1.0876175177641978 0.21197871389727363
P 4.562818519388546 4.955978075244132 11.489710115682733 -0.3899314485580897 -0.7558721906285369 0.5536179031078787
P 3.6729504099716834 1.024911443372499 9.224787593529788 1.2287733953116389 0.22218342234441735 -0.029138055016536914
P 6.1678883000276095 8.2795306529179 12.71844392079065 -1.2702080083073415 0.2848916000069158 0.02714262185306293
P 2.1774983647835877 1.7345176270405696 3.6881955617174205 3.2951497227634023 -2.0222374281510205 0.05254666374846434
P 2.9141169270089904 1.76295903558685 12.927297581617028 -0.33774859590694734 0.4066443904373964 0.6915627299171896
P 8.258633409183407 3.111861271583621 3.395490318494058 -0.23936636188160712 -1.9150090565889604 0.40355263888595017
P 3.281247722351585 7.673946717146668 1.138434884812742 -0.7396816969116036 0.038127660109656916 1.547880979078631
