# total energy = -381161.69538274535 ev
CRYSTAL
PRIMVEC
9.31178730510815 0.00000000000000 0.00000000000000
0.00000000000000 9.31178730510815 0.00000000000000
0.00000000000000 0.00000000000000 13.62874197092016
PRIMCOORD
 96 1
Ni 9.013186312666557 2.483984471247486 2.6990225088358724 0.9059233137830784 0.35185186807754887 0.8211761540426697
Ni 5.159894192579812 2.7131382473543146 5.355154924911045 0.8938314156155509 1.2856521107765535 0.36146547990791295
Ni 3.9731162003396054 1.2911538171978012 9.615663613288275 1.2081891434023837 1.4940819309803044 1.5273993141855113
Ni 2.962507913904799 3.224029463011236 8.629324638351996 -0.1663768568977586 -0.9352449455653313 -0.6139496101184007
Ni 6.002936864766076 3.8099085025938866 0.35093612524974177 0.9930446301826187 0.5475709255828505 0.16116805900330952
Ni 7.422723713096378 1.093958095445015 11.996182021207067 2.1996782561724246 0.1257210310496093 0.4357922156459462
Ni 8.575746476014498 9.218641589842429 10.176881315122895 -0.25801945820642014 -0.3677636542117989 -0.4730706403814304
Ni 8.839595971970732 3.415991960245673 0.5852402509670663 -0.012316098363191691 0.3541666322536546 -0.171794171258588
Ni 7.603111658593615 5.953584391550334 13.516441193217222 1.218287151068334 -1.167036580423474 -0.6560519386050895
Ni 4.6227251128823585 3.706231061691232 10.165938102571358 -0.30679019985222006 0.06382352221386428 0.36309350242963917
Ni 7.539689074617687 4.684043232906068 3.074739162712356 -2.040033832902493 -3.0095726666536877 0.12389966157015436
Ni -0.22954300882011539 0.22693012127590081 1.8366504283663565 0.9912631128021637 -0.3541972283812739 0.3566042951608697
Ni 6.963214940308225 1.8240301629042255 9.72871429938696 -0.040491789466459295 -1.1697794332759337 -1.4664281738187777
Ni 4.006107863094959 2.681282622661663 0.6484328337942341 -0.15357739114024518 1.3289420318134402 -0.39367317498870913
Ni 2.9112185889100246 2.2596169538638433 6.237180463865305 0.8227208728219702 1.759388409766441 0.23912519240507848
Ni 0.6575816649139449 5.014518567703555 13.135927106472671 0.33040783927116 1.3337492233940964 -1.185462134118513
Ni 5.295436569962518 2.9971477630298105 2.7888356294798635 -0.6081841683895333 0.06910636787935841 -1.0504460509202231
Ni 7.317183914713884 3.87755863804905 8.764944303570113 0.6426739746362867 0.7212689987323706 1.6356131895892927
Ni 7.848756610184421 8.530472565679604 3.793573765138216 1.7542091795583468 2.1867204104601763 3.336943775981053
Ni 2.3532097290131686 0.09206564201585671 3.691167383215552 -1.1808925124699596 0.9978032279135267 -0.8444554362855844
Ni 1.392326387290072 0.6690035033377993 6.37191364692302 -1.4111227163782536 0.09982128046471196 -0.6986008677108937
Ni 1.1351068839620646 7.7123482365735905 3.150474723166242 -2.0763709767706304 -2.2176875482656513 -0.6280027457773572
Ni 1.9943334426481318 2.7809373714078647 1.9643383130778398 -0.01612467347600449 0.22215076933426903 2.119997969431962
Ni 3.526355264500951 9.179420341317014 8.107874786963125 -0.8931115067303909 -2.1086318936868658 -1.1359493721003664
P 4.935973640991332 8.425407668454469 3.9589995306424233 0.6232006964030234 0.3512013789777435 0.16945729559529524
Ni 1.944133596779063 3.1578133428155484 13.416774339147402 -2.445242776444944 -1.167318887550583 -1.0390938591321974
P 6.756632936857048 4.428434668798121 5.067425350169571 1.6276713090343968 -0.6831140849292042 1.8355812521789356
Ni 4.0102702320624 5.465721226131627 -0.37972444717309795 -0.1356164357864503 -1.0744778950584464 3.468074150971692
P 1.9183958164076838 5.4203169507731435 1.7626598968710803 2.6624901949403244 0.5787920883806612 -1.0432603318050615
P 9.209795391813193 2.0973404348580447 9.410401090111565 -0.8923520028565469 0.6001124471249922 0.6681777753343461
P 1.3890858852751518 2.133274622431544 4.318961571418207 0.8107385036491134 -0.21955626913421541 -0.46203238028939775
Ni 0.13152620347743213 8.55011112530451 7.9274710114273095 0.4796835177122578 -0.8998922770976502 0.14991254069414825
Ni 1.7584844914012807 6.882807656116161 10.724798059836502 -1.628700007409227 -1.7795718266928513 -0.7233850166341089
Ni 7.152812243543266 7.693780532499592 6.356744745249729 0.1932094037095705 0.938989500209428 1.2235185746706025
Ni 3.3753460082481803 0.6594253988189858 11.769182061525672 -0.16328150580188652 -0.5069294979124043 1.1369446461341
Ni 1.8582509815962727 0.771177090575484 0.5744050551493611 -0.40276896664239026 0.828105019952019 -1.0042664670403672
Ni 4.262973518501797 0.73853834456256 1.7221415163609561 0.018617357990871164 0.4127546171001924 2.7368323572973257
Ni 6.668822781682624 6.687241497158235 3.4424160193483737 -3.1025077615215277 0.7989649080529531 0.5703107903825275
Ni 2.9369749928562023 7.5197339142212085 12.540268827763384 0.05037922378350033 1.0058106715990354 1.573032281533278
Ni 1.513668288889003 7.91773833123767 5.426161028544879 -0.3149495957345608 -1.0390357522007523 1.0172399964818999
Ni 5.535466513751609 -0.054274684034957256 11.085332775537333 0.3636642873314447 -0.3207654310853895 -0.5880825125436517
Ni 5.508899984301701 7.191232678352351 13.727004916960293 -0.30759084137664444 0.8389653597052906 -2.300825968758044
Ni 6.372056117270229 0.5806476774217826 5.433575073672119 -0.31414406911412995 -0.7982110606060641 0.1757107327041748
Ni 1.6372263958889426 6.875963492377752 8.051887665225456 0.05486579879994422 -0.3613464378315454 -0.27133365881682303
Ni 7.03385415951853 1.8886819028168473 3.560876853925993 0.22094749305478723 -0.7269544791529222 0.30231159525557616
Ni 1.746751639278293 1.0926916923587242 8.686932942275863 -1.3621537426787187 0.4396344722101719 0.04216789161730157
Ni 1.0559473792814944 9.020607807223715 11.835799519758265 -0.7993572583953653 -1.6334524344925483 0.8660773854307342
Ni -0.06204816415580658 3.387879674087499 5.223338193666758 -0.7841910921778882 1.1134455345708953 -1.2921284625295166
Ni 8.11942233451687 7.469217467580567 1.921625144277725 1.110797555425087 -2.1410023395977706 -2.343027027606126
Ni 8.272051841777099 4.925618933403426 7.002420358795062 0.09353313346315505 0.6315112731512479 -1.4763755148394768
Ni 5.229192514404634 1.2948412850078832 7.545266835269806 0.8627910013699785 0.5090519435720459 -0.5716801599262282
Ni 3.546235930598236 5.096359867155093 6.066725401986792 -1.4211363918605138 -1.2035261907090755 0.7687678156442824
Ni 6.5392213246606055 4.467944582732913 11.349443932719486 -0.8675107754431511 -1.1469634638226827 0.7370239475737823
Ni 5.571465883836902 6.10081306211903 6.033049322857597 1.6701801289308846 -0.9475019085558134 -0.5917321934810971
Ni 2.587578106063548 8.112624729715455 1.4207822784032769 -0.08839966889133163 -0.2494898234688542 0.21028281425208947
Ni 3.5692826044112476 9.311275250889636 5.691144700206336 0.8764890676823616 -1.885275276969953 2.1024661311957855
P 8.48588772761225 7.4011855488420375 11.58374898961555 2.001256455023979 1.1113709114300536 -0.2060636339644193
Ni 4.561453551795645 7.314138960234347 2.0684338532347186 0.18909281043803564 -0.3220648666231034 2.441372751966576
P 6.2190448267266305 5.751686217160953 1.483406842199094 -0.5528146904802932 -1.020929786628661 1.0474388886627832
Ni 7.607860670167205 1.585667029059591 0.7662083208192727 -0.9758339227312871 -0.4969348485935377 0.08897379622724676
P 1.8527011563063518 4.353521339171585 7.224486933512361 -1.008625001119379 0.7920910637512552 -0.3198364915132169
P 8.94903740927349 8.760315414053974 5.801659786596222 -1.401696023747715 0.1248604828215269 -0.3229542112065922
P 5.82242786603265 2.3497923030376637 11.34591383411645 -1.280699908977601 0.2208528764584519 1.3670095281091232
Ni 7.36371491634767 8.288468522961884 13.091020080561306 0.7573248639146635 1.6242777099718155 0.9349919490142607
Ni 0.7793547022694585 6.96859715342496 0.7091866595015524 -0.45348294805748995 0.5578962187682586 -0.5582877977797224
Ni 3.2191035274770607 3.450855292268265 3.9991500955502794 -0.890320574248815 0.20998430917506417 0.2743459632805856
Ni 8.003127421688301 0.8918196769407352 7.7063309595562295 0.040981070398052 1.6919990245781895 -1.031420658857656
Ni 5.698525222898939 5.616991212431574 8.829244057919045 1.6958605644161244 0.25426950424568473 1.4747747460112601
Ni 6.763421229871062 8.701949130635809 8.472716204336086 -2.3661731267052866 -1.81233256606364 1.4124676604419222
Ni 6.446056891731644 6.868532686033193 11.27441793046542 -0.38549501005329095 -0.26488173254389225 0.02914294011254336
Ni 1.432814038901779 1.8176050295987798 11.02486202816695 0.5783352033489007 1.5844839750136455 -0.88574375351141
Ni 0.36456392610846594 4.926438370694554 8.962532982751146 0.6217007148187293 -0.5603822184149059 -0.5523099829297328
Ni 3.378055738381346 6.904727603653871 4.653411177077671 1.7055793343657852 1.0664426834587954 -1.2023306277390777
Ni 4.00887346395252 6.002229168923737 11.238274227675438 0.9257434338327992 0.15191543005678998 -3.952995005823489
Ni 3.902951882286659 4.886202137342626 2.078314590844006 0.13086760824755528 -0.38144963633932366 -0.8377687682940281
Ni 1.3784704476400675 5.67591620309369 4.696886981265779 -0.019286616143753883 -1.2802869898098983 -0.13671789638074522
Ni 8.83846924569543 3.2190662803274637 11.714544217782146 -0.5289746506379018 0.2995813408086066 -0.8562817394965512
Ni 4.14855027494047 1.2394082146204657 4.037910410599435 2.0295169925315695 1.142921432542825 -1.4985813615125545
Ni 7.1633531868791565 2.8084350795976922 6.701633795762434 -0.13906454223605083 -0.2076949989202552 -1.4372785488380149
Ni 9.397921432639162 5.175733542945846 2.272429042146398 -0.618665013316199 0.4128271222093406 0.1763933605934962
Ni 3.3721706887450544 5.5861040136284394 8.798866213886647 -0.051417949460659834 -0.14252087621576745 -0.12073874734366948
Ni 8.352468437756562 6.347724416796129 4.952862429797254 1.2077458852173781 -0.8480575518145458 -0.3087079857002232
Ni 6.523940681538524 9.037285218455676 2.10272451033226 -1.6907402124704238 1.3145420543380264 -0.8833305160842271
Ni 4.737157668231085 7.282208841242502 7.627924778476253 -0.9172677922616203 1.5656676136380907 0.13203746018594034
Ni 5.492827839250688 1.2408515416673414 13.260520684231402 0.17465246664298953 -0.06087626666008225 -0.12313064461461373
Ni 5.022778123126642 5.038291560933704 4.0981353267824785 -0.6305378534943851 -0.1820968387361767 -0.6894536539939868
Ni 8.098517371805672 6.662230036203993 8.693965204119738 -0.3312524466596424 0.026954931322289065 0.47215841297980626
Ni 8.490338761989067 5.402875972974448 11.045032290852353 1.6824520043197022 0.8125326194350586 -0.9557361235401475
P 9.534618471659368 1.5506453966512126 12.818990179374875 -0.2986032931660535 -0.4900286083920076 1.86279483647925
Ni 5.230440293916126 3.849437040103476 7.522452024963034 -1.3083053293996953 -0.4859228137537502 -0.012416114276165714
P 3.4214952265985987 3.7516725841993113 12.219666781145266 1.417331930512759 0.15129733685681684 -2.1801147322182
Ni 0.18974256711846932 2.542751161523815 7.305850538270322 1.6117268698899985 1.8664905401632823 0.6373386784663023
P 2.23265001755577 8.690197654938023 9.94373464457929 0.4541475782246824 1.5254175078687922 -0.5691807905431423
P 4.0979686457880335 8.958516808845872 13.70792506457934 -0.4441709266279447 -1.3395537458910156 -2.146849799517483
P 5.112199217521128 7.5661997333432 9.755304108305367 -0.288479060247858 -0.008671045411436679 -0.2805106973304008
Ni 2.1100324010831497 4.434254535922619 10.502785493486115 -0.12858241175780435 -0.4788504802880011 1.506438395663128
