# total energy = -340862.3851679251 ev
CRYSTAL
PRIMVEC
9.36078221501505 0.00000000000000 0.00000000000000
0.00000000000000 9.36078221501505 0.00000000000000
0.00000000000000 0.00000000000000 13.70045097404386
PRIMCOORD
 96 1
Ni 1.0142314046066896 6.843471384585498 11.585485515431294 -1.913931507254065 -1.8500977006275559 -0.024739668838525134
Ni 3.8113080508859882 8.136055012538822 0.5982607037663474 -3.0564215086864266 -1.3287389146636988 -0.22575545596639185
Ni 4.2400037992248985 3.959189690125635 2.7341441066788335 1.855030876263115 -1.4166580443741859 2.395979154323125
Ni 4.274648054625957 3.67397601333156 5.899359728251776 -1.1399659494589272 -0.29864057416189216 -0.6863565031259018
Ni 5.003104135498809 8.802449106567842 12.379111362881334 -0.09060798939656008 0.24434530315343725 1.5409004339957397
Ni 0.6839708350089084 9.259498664582463 11.391911089407213 -1.288814567664935 -1.3303083160333475 -0.21119581298466208
Ni 4.361665887159933 8.317700993640566 8.538367395882355 -0.13900103598796706 0.04058897716595591 -1.2812714652103547
Ni 6.159684956988478 6.081456899061796 9.079439336085551 -1.347472743627776 -1.0141623859978406 0.3694276721777831
Ni 5.808646258854158 8.725615805208237 10.362829739713185 0.6688349493023708 0.36221444225879557 -1.6151142983049924
Ni 0.89616104885144 8.621449019446827 13.500548063193554 0.0762406649312945 -0.2268522885749964 2.972607402283248
Ni 4.464681296694831 2.3831615732384894 10.856470595853379 -1.9014513725091833 -0.12469618932952073 0.806139057203889
Ni 7.563905275002066 4.99896666970922 10.733152585524273 -0.06515715342362326 0.03914555985121 -0.36925335138344795
Ni 7.8314177124112705 7.888424876797234 1.9910047026441067 -1.9080092282323593 -0.6929470118592259 -0.7414994668466327
Ni 1.1653144314029866 0.40340759487607264 6.2463508241068695 0.09955337151530597 -1.368413093324869 -0.1665540059055712
Ni 2.2206583920003413 0.4331159097548464 2.0461078839042726 1.3431432630144868 0.6837900279503062 -1.4764611325747476
Ni 5.811688513111209 0.13287349693094147 5.110706328375105 0.4042928594860844 -0.8649278452073232 1.7984357534768898
Ni 3.0036503907241983 4.729151479846986 10.14774610805264 0.5343713961734409 1.2437161326644 0.5580679684594324
Ni 8.948833020634787 4.473630204601725 1.6237915087228396 2.1220149998619906 -1.214975313086282 -1.5043614585294416
Ni 0.2931282182535712 6.183489426452108 3.37099557167631 -0.6644910705113782 -0.33937070489140264 0.15329122735839404
Ni 8.338584899017427 8.732720638996241 4.835642547860785 -0.3781537391968713 0.4586986879304745 0.07619541351565587
Ni 8.197508548531244 5.788838843445176 7.369418172700869 -0.04346475605185418 0.2634054051086818 0.743181739645062
Ni 0.3288564522483733 8.642052101353805 2.8326644685391598 1.4526812565463303 0.6367290699067615 0.4338325208164141
Ni 6.5786642132694855 0.29779831255770206 7.619793825899667 -0.49964633398742975 1.0484614163900265 0.1601164778103436
Ni 1.9683665866587186 9.009593858734833 8.643792270788838 -0.39486976639997157 -0.40297542622624144 -0.9881654477134465
P 5.406787873453599 5.627983159897 11.425970295912684 1.1601151707132924 -0.83251009099825 -0.4356690598045207
P 0.5613370978680827 6.795413128106428 1.2206516322213874 0.4712191889949885 0.7616407176811979 1.427085153244781
P 3.651154426012516 8.527026808090305 6.218031649325777 0.43717135538165997 0.34064262962529074 0.35928004222081994
P 6.575275610066248 1.1010245783647608 11.766550191950381 0.40571827907870134 -1.4854034293696998 -0.8373393940660934
P 0.7676468682512937 1.0068363865664745 9.68408128516584 -0.6224761595321731 1.8477965632982047 -1.0203605443887522
P 1.8741596732957735 0.3833792650041175 4.1072173575696205 -0.12436194591855357 0.1652640834495541 1.1075456241466926
P 6.764391495466842 0.25611568492317727 3.2601592285052097 1.5304820668758934 0.37085154910850326 -0.5644059948623183
P 3.2378103606938 6.994254866347255 2.4793847991151843 -0.47858077156638223 -1.5197711082162921 -0.7990777794817335
Ni 3.035739152549335 9.369487856952755 10.734399441730547 1.3843991843404804 -0.04170072217289592 0.16232299854335913
Ni 4.868552250296209 3.409019069498277 8.28899241031457 -0.6791594711568303 0.7486077957566397 0.21221551249842807
Ni 5.318918209727648 6.492404604104189 13.546348498974776 -1.4839273590448057 -1.3068346583914396 -0.19694675926481567
Ni 4.0240973547976004 6.77875093556012 4.894459151471018 2.7758521902039486 -2.3503873246259395 1.2081765449968933
Ni 2.5008078855542184 2.7709881459272987 4.544138425341362 -1.6236480468076167 -0.009858895071950763 0.6191571224612692
Ni 2.0179506506574785 7.3086180193150385 4.3979679371115274 -2.05605206270762 2.099125239748011 -0.26212756683752275
Ni 6.473392855193206 2.1389762053941155 9.808399963125956 1.5180425555609598 -0.2504290474536719 -1.1325794271868688
Ni 4.219747066264106 1.4397538477359377 4.113122139062997 -0.01378934047460851 0.6272666389422811 -0.4501585116699473
Ni 8.362623388039292 2.4471425204598463 8.309213572302511 0.7603009158238518 -1.838151584009273 -1.1320587787967082
Ni 4.017638414990324 7.045177522219117 10.806025339880314 -0.793128503876834 0.5098245600720123 -0.8197967571966397
Ni 8.062385655606551 9.163241739889383 9.696754848361596 1.3070197778190522 1.1072838858448737 -0.062062059438067314
Ni 0.9906983978306122 2.664162897984341 6.78131204560544 0.7749924563977557 0.7282210045701717 0.6056467466796601
Ni 8.358841631978219 6.011148062985774 0.12311581743078907 -1.1102553097683718 0.09969478218917668 -2.7616720420488248
Ni 6.497496869691376 3.1612859651510656 12.040216407662927 -0.5541280099750779 1.7833834871294576 -1.2394460445341364
Ni 8.117820208561177 0.4257265081840287 0.1847425278963046 -0.6870951810641394 -0.12545389343115168 0.04667529256935187
Ni 3.1269412547845468 4.9868070134633475 1.1578651208252608 -1.504768721270189 2.3444794437819367 -0.11896879992744028
Ni 9.307482034802899 2.996330258942618 10.38133881461308 -0.22080762504281326 0.7810088377951646 -0.5247094476036448
Ni 4.253661180643474 5.888783916376035 6.988627164010826 -0.815644168480847 -0.6258949554057349 1.4649546745970448
Ni 7.224211845050961 2.9844233438196386 0.38902568890520334 2.3637022965672903 1.7113643164786787 2.084042120162643
Ni 1.8612792368105378 1.8855891885199545 11.460317814513903 0.6829454205618237 1.788204819777501 0.7090940539327336
Ni 2.576873602762812 5.033947913274137 3.6709262704486463 -0.9419460117345907 1.0815065197704536 -0.1738528535598296
Ni 6.291437968274592 4.35775308014625 6.581710211839467 0.29929826235054907 1.6153549535608889 1.6073050866732188
Ni 6.658240223851599 3.340507503629498 4.654468350188442 -0.9405869266035349 -3.2484168374832376 -0.5594756474402365
Ni 8.406253994476561 2.091816584018667 2.3535730763735323 0.5442560022770045 -0.5406780551177592 0.2484438987028431
P 7.062476247963822 7.763626926781853 8.396732206691109 1.5263112233276552 0.5263310423674677 1.5845004300738776
P 4.131652743762251 1.8108339808374745 1.877660605886964 -2.9429337864782155 -1.042507512799437 -1.3932476358700456
P 3.940224745126298 3.9831626536711937 12.439941470770618 -0.47021208788671276 -1.2064734462628577 -2.7372969556385693
P 7.363013525431103 4.205546759470427 8.5735227499986 -1.379320484265992 0.11470745354792503 0.5936983160685323
P 0.8378452470958283 1.5190864779774877 0.51173618446113 0.15869800019626215 -0.13994154552436544 0.7240262497625337
P 2.528965118801013 4.228583644783047 7.429563071323643 1.1889583201972298 -0.8038669733402607 0.2940511550189968
P 0.6453838180907118 3.7638676060406575 3.7230152797987497 -0.7798464420559473 1.0384533973347212 -0.41292405279852107
P 4.677199137918891 1.3492163610461123 8.81634986832698 -0.6181921874448385 -1.1619113433817667 0.1960093350522108
Ni 1.3278550557704525 5.033517317286986 5.752695926793182 -0.3391878994566352 0.4684822496797996 -0.12389503358446406
Ni 4.782751319465053 3.639163263848572 0.5326547247326099 1.4177260806273841 -0.8509071054481991 0.5635120222931391
Ni 5.487824166079097 6.5126332547179935 2.628979461521109 -0.4895298143787182 -0.9826162357604432 -1.478317726167512
Ni 0.8575918174196691 4.73137934604138 8.875604556550229 -0.1331538331785707 -0.042420888168372105 -0.7993932538396232
Ni 5.442780081510089 8.942561296474098 1.7131457925262308 2.394298938407225 1.1587871959304883 -0.5195721263770793
Ni 2.9254316935798457 5.768525945790408 12.673287052677562 -0.23410871302709357 0.8562038350707641 -0.4647976017393608
Ni 3.1518315749983854 0.965499171799904 13.406932751273827 -0.31365890194759527 0.1494289161895104 0.16420093229236238
Ni 1.2570126551016558 4.213746804790969 13.56243313125136 -0.1832108977359619 -0.44176206007613594 -0.5518579829939787
Ni 3.2158312437844003 1.4317691004089712 7.046169765146031 0.8481853356416618 -0.20917364034831074 -0.12606684442480223
Ni 5.688135547145637 1.52393536322411 -0.0787138825295775 -1.6620718980014535 -1.9702908598804003 0.5783107778688685
Ni 4.134142711861868 8.512096360274933 3.5850925768793376 -0.12433726332820524 1.9485092452289348 -0.3505274928391705
Ni 0.11745816059090793 1.8581152923832054 4.613777965480832 -0.7149176025930462 -0.4946545371997932 0.12665408438683995
Ni 9.089712794692051 2.1663284113605825 12.514088227601688 -0.9261864349074888 0.48333988351792234 0.5671133664911523
Ni 6.221278904715841 7.323735682776998 6.571572484576742 -1.6832171646205012 0.3796411223756752 1.733747569269885
Ni 2.3309752117521603 2.764042445438894 9.253956145365233 -0.04513263067258034 -1.4491339055147043 -1.4354250405690439
Ni 0.10705739534472666 6.928963409599784 9.474725516212649 -1.531129470651905 0.8138479958123725 -0.39188625829161544
Ni 1.866100039710172 7.258172763341975 6.889011590617963 0.8483871672398228 0.2384927010274022 -1.4503626357154829
Ni 9.014498908675431 8.018530390393375 7.249456938915084 -0.5978113097956415 1.1823870947376154 -0.2977975094353065
Ni 7.7141083882594 7.445313523671069 11.393473403977987 0.36317397795858747 -0.2255914195847018 0.6541444371697315
Ni 8.49507845800011 3.888047744422298 5.923088375378538 0.8199332827745041 -0.3648048286937911 -0.29637568938711534
Ni 1.998611274364966 3.036497375918015 2.057424133662268 -0.5724880005395043 -0.8068599945303135 -0.596818863975385
Ni 7.823273831784704 4.641366063162001 3.3392653278143887 -1.5771347337374257 0.8051661517676585 1.772550915290328
Ni 6.660683388039569 6.944258927926001 4.571607641086946 1.2479317134076444 -0.9028734712131612 -2.150485596497858
Ni 5.959205081840009 2.312085153011459 2.4323365710494556 3.068694155406192 -0.2403744914311473 0.7992577567030236
P 6.931940138380529 7.710176859681057 13.489450855742065 1.5300272387266616 2.487764194746922 0.2279637764716203
P 8.777970660776496 6.558229625444435 5.452231663428071 0.3523493765392577 0.33302805050282647 -0.5051816619833622
P 9.212647949023884 4.5360291796094145 11.966494630349612 0.6330781034177355 0.008556631320759457 0.5628427641402565
P 2.0947184265407763 6.732705247281869 8.85149118126973 1.4610969914138514 -0.8927836910773269 2.139427538911483
P 6.467467479978704 5.03572646191672 0.9368823241407368 0.8953262549935225 -0.669137311034138 1.3874971065395136
P 8.27979918598888 1.0346285493024228 6.4550635073140334 0.8279808356693289 0.2364874976719153 -0.598130383697957
P 5.4216995997043105 4.943007912944148 4.342317150085092 -0.36250343425412407 1.2790574882781716 0.3270489501012561
P 2.5343194862934215 7.95590675660978 12.3422710679458 2.6082638294965923 1.5060499019754578 0.1951192191377736
