# total energy = -340873.63866946846 ev
CRYSTAL
PRIMVEC
9.20294302751233 0.00000000000000 0.00000000000000

0.00000000000000 9.20294302751233 0.00000000000000

0.00000000000000 0.00000000000000 13.46943736850167

PRIMCOORD
 96 1
Ni 7.894413394570261 8.006615676308028 9.588892400621104 0.10199566240821144 0.6216819457656518 -0.06536901232411323
Ni 0.4927715859291929 7.6944978625665295 7.792958309733198 -0.12697033007567812 -0.644530054008419 -0.4392812026358112
Ni 3.5992066085686027 5.105838822139244 11.65453806394314 0.5847871296218315 -1.2320957748166523 0.944399872591722
Ni 7.668315489572439 4.186041475472345 0.6454585344642537 0.8638783208968864 1.489002716685184 -2.5966121041902763
Ni 7.043766962025539 3.5423784351983016 9.754755202729324 -2.3516070559656534 -0.8138603371075468 2.044680330535569
Ni 6.936138542986564 2.018196209220022 0.3489286656708704 -0.381814218767594 -0.9579696408563566 -0.5731204919171807
Ni 1.5173536422307878 8.115495695602608 12.384164875008219 1.1014117433348127 0.19067892397823288 -4.007684941167201
Ni 9.378719268287242 3.0737737777339524 6.57569883614135 0.8495181955204724 -1.1972172177719125 1.12022527649689
Ni 0.7504852815013202 6.424537735564961 4.274984238930582 -1.010322700536776 -0.2595880882451207 -0.6391086258825316
Ni 9.205059732822049 1.9929341305315236 4.226952238533128 -0.3440969067224784 0.523388414799376 -1.119703599665465
Ni 2.195472501306193 4.806172590352404 3.8870912326552554 0.5117423459200154 -0.8695008092899863 0.2517601075602696
Ni 4.705151884427579 2.9897140958611867 10.789409880205623 0.2490928451407516 -0.4002356586975752 0.12458691744516608
Ni 4.100960266920373 2.9393095767439172 1.7225930767923696 0.25093632610739364 0.6444269527716515 0.3867229689231211
Ni 4.113292210615304 7.337340845509361 11.331581944164682 -0.15990924689554398 0.13138517131392213 -0.5606123321478409
Ni 5.1188977983355946 0.9453539195331866 1.5214268648273377 -0.6812171250168074 1.1029171242357456 -0.21664115236994946
Ni 5.8976968544427555 6.965661584309953 4.058341437628411 -2.374370317804098 2.257025426633326 -1.7596869148434662
Ni 0.15990021530229026 5.3766814362749455 6.7517842673960855 -0.43455217259125806 1.175476226550395 -0.09916282094510664
Ni 7.45596678150016 1.5219183019865237 5.854665733301888 -0.916267376021564 -0.6841453544071959 0.18536599640575172
Ni 5.756477693249675 8.885551955806646 13.133711456317835 1.5687259408484404 -0.2966857644283664 -0.4235141696095416
Ni 7.139928514016839 0.7565785500986444 11.077682868489234 1.361319419702881 0.06495506471514621 0.6990045309072156
Ni 1.9004261469334238 6.352248617860716 10.69885476112399 -0.8169549168724705 -0.4453940004017684 -0.5898393473337583
Ni 7.021182939766314 8.821444254479113 1.630125586143716 1.7819871210025633 0.7632831383806274 0.6935095692309153
Ni 6.268198138931006 6.357181395338688 9.464003861880753 -1.8704960617782496 0.21572763941674464 0.04968116927521121
Ni 4.9474929839190995 7.669751148689162 1.769709384355759 -0.5979648046543702 -1.112333532453639 -0.6871260343020748
P 4.648507769918396 9.014282723272844 8.961903252575775 0.8132594702987542 1.1312869336276905 0.3229927777540115
P 6.347076563863289 8.635728863610664 5.5496507510109465 -0.2261984570410814 -0.2162369749529953 -0.3489202962530507
P 0.9775274084566801 0.49677946763004566 5.283656247277104 0.4894146289570926 -2.158269868428967 0.539422071223471
P 6.187249051811141 3.59973117632279 12.32998991012094 0.07628385946440411 -0.19255660061691998 0.24357191532252245
P 7.7867021490437835 6.515527233558834 7.880415718182208 -0.4485852536455565 0.7469928858610361 -1.3566058162772958
P 7.967217877085638 1.597483667418676 9.16790561111669 -1.5024768399122188 -1.5109774211840623 -0.21422534383960526
P 3.14759058398548 6.222615961975038 13.619621327904534 0.30289189323907834 1.5704344388991147 -0.5850085016040183
P 3.316473792004653 9.136939548322134 2.166814536630061 -0.31489585967848993 -0.052978609079560375 -0.14745019519658475
Ni 8.385353594831326 5.310917205197347 9.611574894371028 1.813917908272889 1.8247039431447996 0.3815807626005493
Ni 7.379803224769373 3.858389093852455 5.260919456163149 -1.2727310318395113 -1.3353021697035132 1.1263910389879697
Ni 1.690313754023733 6.264406526391967 1.827870143880557 -1.1551940792625912 0.5013638308991687 0.13458439497751015
Ni 4.398583445348799 5.548758065534524 7.658775718800673 -0.3599909522449155 -1.2674353306582107 1.0489949202959934
Ni 6.471426730434869 3.5774140394121856 2.376870791587111 -1.0762614693214303 0.3114294983964443 1.3415604919083992
Ni 2.0761747504723127 2.9537950091139344 11.546998913451805 -0.9366292275073675 -0.052762122193380105 1.0470835622058934
Ni 7.437386039470259 5.554289034311131 3.9162930912659926 2.8121589950547827 -0.046916462045880486 -2.075846214615412
Ni 0.3602344812150671 5.8081338126225495 13.03137104835879 1.0290786409880406 -0.4088874208353023 0.18495744811342338
Ni 0.29679031208186585 0.857777793118754 10.825117299262587 1.2604933521227388 -0.612384579624126 -0.240923679066398
Ni 5.470100511235581 5.842571225537799 13.415748530386756 -1.1704828871008617 -0.23309826948470827 -1.5797099506637697
Ni 2.401020234460148 4.2346514206937105 0.2938895444306401 -0.5467258039737358 -1.4604359607910848 0.2504442169623235
Ni 5.486592185191789 2.244975132003982 4.325750433709949 -0.7751526361247038 0.3317370996055448 0.29860740693111154
Ni 2.7927435056353485 7.937878894623368 8.917723604141528 -0.7047190647934894 -1.2411257462294045 0.6252624640280587
Ni 0.5415149738248688 8.080901832655409 0.713453558938607 -2.7585766909529523 0.674978086085631 2.4707221516629705
Ni 5.061416216008323 4.590786911071671 4.395401067640062 0.47683242141670784 -0.5680878145892796 -1.3560640848412129
Ni 7.552321595295633 6.697000067678504 0.7800322504766544 1.1581940424311796 0.010948528591703723 0.06434442771434079
Ni 2.3968881130280404 2.1677348309356526 5.303334900413575 -0.7276821013475662 -0.060423752503695936 1.1418325703540206
Ni 8.33052246010416 2.946414248783087 11.749632994834258 0.7182669786812533 0.43235773604310057 0.7852339316201058
Ni 9.314758814048606 0.7518786070799864 7.334405106674523 -1.3378038530794445 0.5072881668034037 0.4906053068310841
Ni -0.16839729262582048 3.9119686283240163 2.4697827843853655 0.32758708199291325 0.2195542122516864 1.439980264039894
Ni 4.994050672838994 9.672753298923862 11.052252375942812 -2.6038685286423737 -0.029632478154452187 -0.899147942732458
Ni 8.411858070832373 7.658716819965115 11.87225852987716 0.06675535114867859 0.19987678842741707 0.2353641827007495
Ni 3.35328556422833 7.171522217527809 3.7805211520677116 -0.21757420570718014 -0.7363400341328803 -0.6808635983321306
Ni 4.814464442045788 0.9063895789287304 6.239353354510838 0.9904151629795718 -0.1409440186469508 0.5213677848249215
P 8.086276351400064 0.16324088363158895 13.169554158637723 0.1335400128733958 0.5643072645009249 0.5764554698276847
P 4.055286060533846 5.93288890868859 5.527506629429795 -0.9787932624699273 1.8364076047349729 0.7221503728960594
P 1.8520738841176245 5.932327529162179 8.097260063937304 1.2201900245180017 -0.30132326320037783 0.3928964447236846
P 5.732669679564013 2.89138064930869 6.685811129511118 0.9343370890390812 0.5164839743700589 -0.4756034341056131
P 1.705231724717378 2.103120967740044 8.287071684759942 -0.22338027086599596 0.7376057882191813 -1.5177237387689604
P 2.748891481973893 0.8564580910845352 11.6654757617651 -0.5803072394736071 -0.813692958291747 3.309855918625326
P 8.955190625910786 7.470700693332686 2.7775595698873876 -0.9641431166569203 -0.509052200682362 -1.6034761998454319
P 0.533407180992604 3.049238731546872 0.5909651477472394 -0.18858244646052036 0.3777169087697689 -0.8422843967761946
Ni 7.843723584218258 9.01735650625352 3.899348632511434 0.3601930409533926 -0.03889796261677817 0.3048161068449847
Ni 0.13467034691448782 3.161045286733234 9.325645895683758 1.5868653307616285 0.2767874828425427 -0.00752973271814187
Ni 2.0421054552793 1.1079883292173904 0.4677257764025088 -0.5942415901665121 0.5784758426918231 -0.12341192330045843
Ni 2.4493172796176124 4.626577156616141 6.46107341949696 -0.010503213524169008 -0.30245737680482104 -0.5382913000531374
Ni 9.099281105337313 1.309063432046169 1.7426895435435803 -1.9445101513718706 -0.06763466842983835 -0.6371224486904382
Ni 3.6383559283284828 2.664702958898345 7.317312480536764 -0.08203104636082648 0.4755756661914713 1.234864852921357
Ni 4.050979083183675 2.2070406007274834 12.99329295117062 0.8264299462424413 -0.1907455155501102 -0.5934520043856811
Ni 7.424106192640568 5.446292497549918 11.872568669058142 -0.38850037253851805 -0.2679526581597321 -0.09778059588559934
Ni 3.262829836931701 -0.1877667268756136 5.05827249066042 -1.6058408434228666 0.6772195738216401 -1.0051450129905786
Ni 5.675629838503426 1.8520278694023449 8.673698366070775 0.11128685790215027 -0.7069430690280019 0.37427214475427795
Ni 2.759511678260424 4.029582240578663 9.587788047454392 -0.6194237458590945 0.6213173633373816 -1.6787331607072185
Ni 2.4049130793728017 0.20805185395947068 7.159719443058592 0.49742052998070463 1.02233515161662 0.2824577937544426
Ni 3.743333899767353 5.27489688607648 2.1501802170564868 2.0698468024988674 -0.10572170510954695 -0.5171555465157868
Ni 4.631776819442735 7.776450070479489 7.303775871595812 -0.06951388773042222 0.29173510529131047 -1.63015756579136
Ni 5.075726792460277 -0.0017982550731266093 3.5774020755862135 0.918688840978863 -0.1560677616622667 1.6371620221336514
Ni 8.464701369859462 7.517276788138693 5.665299534923156 -0.7004253225141421 0.7206642752688363 0.8968043822009457
Ni 6.7475242250555 9.021829136578697 7.6596647230998745 0.6981193000887848 -0.1519588817002157 0.3808929925049053
Ni 3.4921119602268713 8.635296325287035 13.26198115633693 1.0414847279618773 -0.5469258357996839 1.3078278755426445
Ni 6.358893142747089 6.29527319740152 6.076979388115117 0.36612560438774366 -0.6542087147487635 2.2632117579496955
Ni 2.9702682771840294 1.2125521682187443 9.720879169340485 0.7046411603677025 0.15617240556093104 -1.9164663578607768
Ni 2.077141059493184 7.158822156110641 5.96323009164965 0.960375422084372 -0.18671633978605906 1.2359632281918584
Ni 7.378146695019307 4.284476154398457 7.709945922780195 -0.9058348678343302 0.15951381122933816 -1.9126639533955512
Ni 1.2848688947521572 9.054959731580007 2.8970469013482196 0.828785076738179 -0.31707049873230553 1.464708877134826
Ni 1.8688048345932855 2.4610142202416854 2.448218448216735 -0.4340518359160718 0.06712019068726505 0.1913913766642252
P 0.24095145509007615 4.129793087514567 4.741336015934842 0.8436797344618245 1.3062841852046083 -0.7428415826968239
P 7.123602493035638 1.6838624909415336 3.0684185851697134 0.5393842760070001 -0.7751400377192134 -0.9841141604622083
P 6.034563023570385 5.77290494660449 1.9758313811564032 0.36322102914643895 -0.9777560794546644 2.07157201272009
P 3.393594454813256 3.0511253348733356 3.783376825297963 2.722405383238718 0.5580216886025293 -0.7872620177937281
P 0.5478659248277586 4.672315783604059 11.157421768597247 0.164120199653098 -0.8500640407216133 0.313726264850421
P 6.190792184887669 7.483189087059569 11.546378635089837 1.2590350224096576 -0.6362043077515431 -0.8527657559234926
P 0.8075334052106576 7.977442346820765 9.887725766061383 0.04894943331550925 1.3797421451844432 1.6233541697162814
P 4.810755655994252 4.83096531894505 9.748276330817957 -0.26789480833860313 -0.17150157971883367 -0.05301537585476676
