# total energy = -340897.60588643485 ev
CRYSTAL
PRIMVEC
9.02766991142726 0.00000000000000 0.00000000000000
0.00000000000000 9.02766991142726 0.00000000000000
0.00000000000000 0.00000000000000 13.21290744623878
PRIMCOORD
 96 1
Ni 6.388809865468391 1.9063730822037839 11.43009011824521 0.8337287938966996 0.6653721875647509 0.25398951111142065
Ni 4.60610683513329 0.44891082314236674 5.969367162868383 -0.5304350372335123 -1.4531072883401555 0.4731629429849206
Ni 2.697937246591681 1.4974737954426995 4.685323736961343 -0.20021103183838423 0.518875614530687 0.6099803410580076
Ni 3.4175779637762935 4.369942986904607 4.647653075421257 -0.06699986305931686 -0.8554641286912621 0.7643048947769224
Ni 5.038351676616063 4.643210558994906 2.6016345764472057 0.4780912335244734 0.3191314950263923 -0.18636666975612418
Ni 7.274704154097171 5.979098088403768 2.4126375958729724 0.39103522314522976 0.8348369393592138 0.09019147068443177
Ni 5.0430009266863145 4.450614246375995 11.317991733832931 0.028925167674782447 0.2883682457016066 0.49043895645654895
Ni 5.704097203665919 7.784893898699458 12.564920602674308 -0.6662594752657106 0.41248336571667665 -1.1084529664523104
Ni 1.7563783445004366 6.456652805813903 0.5388724578512218 0.5208743901282706 0.4245762923254688 -1.2713953437472234
Ni 2.588431609014696 1.4532472399200576 0.4076038161104416 0.5031327498741335 -0.28512994126996705 0.5425919843110204
Ni 0.4818681381549223 -0.02557629198840527 4.741518274655116 0.2061183984617547 0.21160796082141622 0.13445404004723296
Ni 8.539381422235856 2.2343844454125366 1.4487424325704354 0.34520453796436035 1.1894997945229966 0.18054594930928905
Ni 6.624188306403654 0.7065948312107874 4.780245173589803 1.2469937749744073 -0.04566124948254071 -0.25693985198899616
Ni 0.7364917660800124 7.471046949782402 2.5776534737547485 0.1574651562304256 -1.3226168609263609 0.44535003453771044
Ni 7.446726406696467 4.097641375508515 3.8545885122728247 0.9324370438028909 -1.392752441401182 0.11505403825406636
Ni 7.695538020650241 3.8901403796546816 12.62916150267413 0.5049615755527561 -0.7586255850039579 -0.12874876213233954
Ni 7.924660286248253 8.999133574328447 6.891046232766034 -0.033040475394736646 -0.5927886597700693 -0.058452487709938036
Ni 6.956496840551124 0.7018101660899463 0.47465412702649945 -0.4411753343347305 0.15439371639395344 -0.8735235572961342
Ni 1.8042791617290832 6.45667988882402 9.227458696661984 0.2802553867864851 0.3782761237073485 -0.2791801514444353
Ni 0.30309950773524147 4.828061130720079 1.4867164238238426 -1.4386286351080062 -0.6521297207325479 -0.03155026400245534
Ni 6.432043377286709 2.086791067939649 6.953213476957822 -0.8447169174770872 -0.5793222498525185 0.2395576519568068
Ni 3.3443816150974643 4.203075533897766 0.3780806267808444 0.6998175137268141 0.41376763174573905 -0.24025519224446365
Ni 5.881969386450695 5.724436544264512 4.737871095959229 0.33858960375100394 -0.17330263748331445 0.42123360110548097
Ni 5.187624200716265 2.7846931556695727 9.37153218558654 0.9790606571987011 0.12350319746268408 -0.24625229036816296
P 0.17216850085393193 5.587486789767986 12.311707999576365 0.3648338821595136 -0.2988084671983241 0.2624733802127157
P 4.037426816346232 6.168390273788288 12.584025860778528 -0.5391266514702393 -1.3270700116017078 0.23173532769891056
P 2.347844202466745 8.462131649709372 1.4047830960809573 0.26822853752893805 0.16011056427307263 -0.15869620042404928
P 6.351688086266696 7.811949825807308 5.836881591206302 -1.2550829797404448 -0.15379387802642544 0.19979039936119786
P 4.6134824415554165 1.099281325348252 12.679859092080958 0.745251220579581 0.11979489537316144 -0.9574783030422348
P 3.832634121504196 6.319305833835646 8.263523811611275 0.0016768734817906605 -0.8504828734265869 -0.5886116455742444
P 4.5974222165554615 0.8814255919593155 3.7560857989397665 0.6496928291562811 0.3520539567860259 -0.8369478150546296
P 0.2158479795721911 5.583036148438601 3.7231727195104036 0.5226600212737837 0.1941789667116914 -0.8194267754517306
Ni 1.2939088637260112 1.1128047750671575 2.703717663717859 0.3756258305686951 0.45579976911612474 -0.6325782809631816
Ni 2.01293569934795 6.43321697439182 4.974448411475714 -0.585221903166405 0.2574211625007889 -1.0511603033784283
Ni 5.890292898226951 5.585121540217684 9.129114870321619 0.17913261390153018 0.3785936549477673 0.6999725512474397
Ni 8.682813043820616 2.276047142644011 10.232472188692624 -0.15819380686633402 0.6565713014436693 -0.023813043259197697
Ni 2.388468717643697 5.114761875828891 7.037221363275743 -0.2242873560612976 0.14970530977934862 -0.02212511403381351
Ni 0.6331547354408967 -0.0861998046034693 9.107432212421173 0.21558160075718355 0.8755986946576082 0.18301626522665254
Ni 1.5328080959766088 1.1018090729592624 11.498360970150586 -0.5825533551953064 0.6107904956641287 -0.47617704722089604
Ni 4.137471455722007 6.951170515227924 1.5997392416481477 0.018369246535807075 -0.32138583827820777 -0.39322708859022604
Ni 5.450121762449653 7.870223435911137 8.035324173891283 0.3998677338351952 0.21862655823109445 0.049258479915495805
Ni 5.246376277332177 2.818745527057898 4.726111652966008 0.04427002556196891 0.3474917913366402 0.2950939944612144
Ni 0.8167612942346506 7.529311532216192 6.949077901312809 -0.5246040323740321 -0.531008393238479 0.14963100489798745
Ni 4.91748923012961 4.64969242608314 7.144060227123113 0.21134545118864892 -0.43766295030609786 -0.6176995640791362
Ni 8.229100402984333 7.102808288878427 9.298306045596581 -0.7952666332657594 0.3354423163712739 0.24394986748723152
Ni 4.769191694393656 0.3958127762720821 10.542314463180237 -0.6568705778516429 -0.7741113393443829 -0.4036894215741305
Ni 8.043572756006212 7.151124378928883 4.685905118911876 0.34846906764824503 -0.003260158808510514 -0.1671942105927314
Ni 7.18982600038746 6.141984338923269 7.010742304283407 -0.05196379466180082 -0.16410194482065288 -0.19390463000438218
Ni 2.4203454205525454 5.181674966160351 2.4657798783264493 0.24070230708421128 0.13257070698159104 1.1945432704841752
Ni 2.2318657254715655 5.204542054369956 11.473468072784156 -0.14696785624352754 0.03198246644386749 -0.25080879939059386
Ni 0.990615261084924 3.455855284743022 3.8320870446998128 -0.0705541560694785 -0.22499415232033512 -0.123329133778665
Ni 3.955202797628081 2.675034047701919 2.5538962572792667 -1.7640117674710651 -0.958028776229066 -0.33297791399118143
Ni 1.2382081395833897 3.1472082737686167 8.108695659368873 -0.7575614054055018 1.0253556836104984 0.1383672590587101
Ni 3.843052052729574 2.4799822088323116 6.895802912109754 -0.822092752319668 1.1432842151988827 -0.15869800019626215
Ni 4.193632591036634 6.841547517940428 6.00430153761955 -0.04414352728643365 0.8525251006675962 0.4830997424826583
Ni 0.9010607742948424 7.543376642137456 11.324888873742974 0.16293723508859034 -0.8330186552035524 0.1000627070515567
P 0.12885464277226533 5.68568978445574 7.942238965348822 0.6166140443244412 -0.5527349862822932 -0.23672301072148905
P 8.512451882508557 1.7433875273138513 8.073364067135977 -0.49283393905128675 -0.6996419073808984 -0.1086656182292193
P 1.7096691797169807 3.240319662554191 10.286195853096634 0.7718289710681094 0.0953817566361196 0.7555695717864537
P 3.999032135668993 6.210332828790982 3.714557613991878 -0.47160768268265874 0.993618757518534 0.25880930109756717
P 6.9336026693314015 3.897209045295472 10.282179442696139 -0.08682281132251499 -0.051518736704582235 0.313608251215318
P 6.249946244923529 7.6267652302906805 10.181232036316432 0.5744170992414172 0.23742055100914597 0.5589755678753664
P 2.437841045088753 8.496870124020685 5.818158203544746 -0.0009965595853144128 0.0683445500126694 -0.5667274439066433
P 6.94774000061298 3.933437085163274 1.6402770911927225 0.5556490746052947 -0.2930651369566436 -0.2902029849175002
Ni 5.4621014805918335 2.954115439297542 0.36503022697199944 -0.41518533802887203 -0.7180754314957375 -0.020627446442364476
Ni 1.2108994377144384 1.0433819924647656 6.926258659754413 1.386716005399115 -0.11131642558850506 -0.18365287036938693
Ni 6.976393825317791 0.6067533144108974 9.17647041627989 -0.6620837466214662 -0.2485205175770494 0.17657539469731526
Ni 2.9627729748652527 1.7075837879378972 9.057646417688316 -0.5333264998486944 -0.6609244362060424 0.9442165529363222
Ni 6.280676433737384 1.9041251923639926 2.5991637031574433 0.9697195823034331 0.33549013889007384 0.03087252120914038
Ni 4.034817819704868 6.878145692279842 10.45337837178785 0.3569269686076111 0.3457470407313917 -0.4407089362212733
Ni 8.144538217725996 7.1986911723660745 0.21676067701316662 -0.22177307427987616 -1.2248084971266198 -0.2758801405369249
Ni 7.606037699880395 3.8229474315520027 8.049316159685228 0.6063268034658202 0.7962567650931706 0.590692439362673
Ni 3.08944924085703 8.119387128996443 12.379992392986798 0.3164187240809196 1.0713072106399484 0.5771866915667543
Ni 0.04780512392622966 4.835355488111851 9.968583463006178 -0.17394747015616494 -0.5022207795828254 0.9068620235472641
Ni 8.571926172727615 2.4359994004007315 5.89011595589418 0.13829706794240698 0.7591873710446989 -0.4902114138267751
Ni 3.533818243202613 2.631926923264153 11.502430643804312 -0.2598822224467718 0.11820261118537707 -0.17693303514705014
Ni 1.1905330141057262 3.309534808745679 12.789592226942935 -0.6604428685839335 0.2047703690742925 -0.7341252858697487
Ni 2.9601820335639673 8.449844990785852 7.963577669020769 0.6805360397893828 -0.12300131812560107 0.4398717850319586
Ni 5.866288323592391 7.791104935686512 3.4033810498724546 -1.1272940104182134 0.4332715061066216 0.37610225598448127
Ni 2.8762608128784235 8.363937682691658 3.5513391452149308 1.2941722324324227 -0.5665960605351016 0.011352706008657868
Ni 3.448308152590148 4.3552730230907075 9.359138097389554 -0.47736052600603596 0.3120553049059013 -0.3660605554777631
Ni 7.119681004181922 5.925898028862039 11.407019907459722 0.39821785693659806 0.34981118349843626 -0.45396502990023113
Ni 0.5256252548355196 -0.11951822641759775 0.3008443957594187 0.5405320164581982 1.2474192925476002 0.2757202179202929
Ni 4.621977479062419 0.3006087735713923 1.4212730381747842 -0.09833312595495969 -0.2540532744698205 1.0263568711815032
Ni 5.86110644098982 5.3556381678181 0.32358780488948446 -0.14528635477604657 1.2146115019889598 0.018683949562748468
Ni 8.020985525567825 -0.14194566709628723 11.413890867126652 -0.7547679018207647 0.03663873426895625 -0.37511443814991524
Ni 0.14870739195573998 4.87870635964068 5.85902646581276 -0.2952487748715238 -0.18455738446152734 0.08971761637180677
Ni 8.062576001438986 8.943793956987397 2.56414988490993 -0.9819942859057281 0.3760642036576943 0.1897543552814345
P 8.375393795971558 1.7533540750372636 3.8271714783634017 0.0043636762853344205 -0.3504742710037319 -0.9012256511970931
P 1.868529089398943 3.1338292667703405 1.6925996612066292 -0.10973365448241748 -0.0675127981399934 0.43882971692068945
P 4.881613269393341 1.0065490987043286 8.164942557548875 0.09992155348800211 -0.24770110699954762 0.18491579624221055
P 8.609354892710646 1.7198072531711401 12.464026459547833 -0.761872631186346 -0.38022501990360325 0.16893587587418646
P 6.455578513079223 7.779865486487555 1.340951149533918 -0.38655584721763747 -0.12584110156724132 1.0088162911945786
P 1.919156262979465 3.2044346741478837 5.938369755021364 -0.2721828941909958 -0.12392177305734142 -0.03944972135519013
P 6.739950119317889 4.042428145548017 5.93834357477825 0.021202345109228 0.23783732683159042 0.6275116650735515
P 2.535231549472967 8.748579620057082 10.227900576584712 0.06230682845902173 -0.990687442804352 -0.4118531883318456
