# total energy = -340887.98633910314 ev
CRYSTAL
PRIMVEC
9.13427396266627 0.00000000000000 0.00000000000000

0.00000000000000 9.13427396266627 0.00000000000000

0.00000000000000 0.00000000000000 13.36893325092694

PRIMCOORD
 96 1
Ni 6.818397458130623 1.765856088514405 11.6077767445254 1.11387490879883 1.6434082601536792 0.006704151493052971
Ni 4.91233940034936 0.39052583059732476 5.987330167063174 -0.043415133760841364 1.6419933820840236 0.24397300741568306
Ni 2.9988825807525936 1.8296589913308106 4.6263060088441685 -0.531008393238479 -0.9090747149278666 0.7741308797284088
Ni 3.1937623132634037 4.230666811747684 4.475210504588213 0.9572828992019772 0.771234017796588 0.3254096147256202
Ni 3.5635085842877805 2.623317777288123 2.5291744704638477 -0.17081046718908002 0.04728310135667986 -0.9339262267539078
Ni 5.219470224157351 4.220993615744453 2.4947099418143734 0.2532076386400736 1.627021848375856 0.5863166788924805
Ni 5.256664987259484 4.775608455144096 11.296200269636415 0.6325970500162589 -0.22288044841144194 -0.6099237767884592
Ni 5.90750026735605 8.112541376674404 12.360006118025435 -1.1174325442431015 0.6433833419984856 -0.08465717112976387
Ni 1.7949487507148703 6.680880965374576 0.1579991884289893 1.227848569504524 0.274536739135153 0.3734856442972407
Ni 2.68259921455061 1.4797340945529045 0.38287130911412537 1.066521359215531 0.20502310851504688 -0.6678543305566562
Ni 8.28553538904948 8.667877823707904 6.947085675214221 -0.29464970783494415 1.3162904044877006 -0.1495988661084714
Ni 8.743463939786038 2.5043255918923735 1.2324428121394095 1.0080873834483541 0.007834665553070379 -0.0882078645954997
Ni 7.116129114150771 0.931266621451822 4.653311489470753 -0.5084582758521049 -1.0151962265789936 0.6705974405194322
Ni 0.7637330779820648 7.852607345830245 2.4672367863668567 0.7911145587705988 -2.0160708943289922 0.1418187079424203
Ni 7.627009050374329 4.2983152438533825 3.7782745443893697 0.34875780253325744 -0.9679871729933587 0.20896975186762073
Ni 7.826574665368291 3.8716898495880954 12.486744167642847 0.6806540534244858 0.5583155656938643 -0.25838378352437436
Ni 8.25099869963662 7.351583291086845 8.974256896778344 0.9017727819498147 -0.672434493728171 0.1595598339759252
Ni 6.762258211071264 1.0507611919091184 0.4631369136837172 0.8533185431031691 -0.9120862480606808 -0.3148148699289094
Ni 1.891150922864102 6.6972039127379155 8.811222896605274 0.47195709560227755 -0.2784211617912237 -0.034455610574708403
Ni 0.1565797222732743 5.00506141416315 1.2154658507686766 -0.3022151788870279 -0.14136465112413718 0.7457273888850512
Ni 6.593255876367021 1.8915619651871853 7.218168087287788 0.7358078157784941 0.12932648901268048 -0.7711579131430137
Ni 3.7208921226595293 4.598266528418181 0.5231089020489844 -0.667813707126708 -0.021477967368117853 -0.41447545644604106
Ni 5.867702236207721 5.871693913878554 4.831011479731443 1.5204588783119362 0.1503588842029475 -1.6269732545261075
Ni 5.607028329182012 2.865019797535067 9.48393476256373 0.7580105771277783 0.8333822091905582 0.3469652294092089
P 9.367471857596021 5.803442619699001 12.477572443273777 -1.1602858919632015 0.4439593248377709 -0.44685695810054016
P 4.240769318621693 6.407574357619435 12.229578735201503 -0.23227448803183223 -0.06073382754494701 1.6608516524411072
P 2.711436117083379 8.34480769203812 1.3427757059288672 -1.1407208253470806 1.0104412283925115 -0.8467352334586965
P 6.427825042736682 8.061151952015122 5.914816820706936 1.1708505548529256 -0.9819755168526507 -1.4723142002859095
P 4.900483112896863 1.1403775526151674 12.579203114369864 -1.082449600410013 0.9062670702757424 1.384008376659965
P 3.9962630763039346 6.177500267978831 7.78010404717524 -0.255007925073606 1.059521273748614 1.7172349163268426
P 4.9961828999845475 1.226084444115 3.745708117845157 0.4868209000879874 -0.5561681803335583 -1.2050855647763954
P 0.21659372829823442 5.831658391610222 3.4398798414876484 0.2101329189377865 0.4496895424533288 -1.0647724948452244
Ni 0.7569344379582637 0.13638749650864354 4.62772273471773 -0.14769444999690692 0.24423551704845034 0.108912958353335
Ni 1.9860560281271589 6.63140060394917 4.651720298966729 -0.42537513407768035 0.23571462406163277 -0.6591251782137746
Ni 5.947480983981305 5.707651489872853 8.899645407719612 0.17882202463964686 -1.0621371141049063 0.6806481398872148
Ni 8.737946838382872 2.575783016191978 10.325000429783339 0.9468177380045951 1.0864088421680773 -0.583734262877285
Ni 2.3711752820348586 5.2214797644035364 6.7431557041764965 -0.7854879566124409 0.03291397711920138 0.44122135708131754
Ni 0.731004974790772 0.36498640092307 9.313600650732697 -0.0743547607624913 -0.9853696301358643 -0.13910670832789593
Ni 1.714183501365886 1.1610484143293442 11.49734885428794 -1.8944494872700535 0.5023225952680124 2.0023949395037968
Ni 4.377536800922342 6.896796930553416 1.228274842983343 -0.9862746584486368 0.5323381677934961 0.7984936248434894
Ni 5.614892938963676 7.793508594044685 7.957308959793459 0.3919289386040927 1.1643826877403947 -0.021837407590065618
Ni 5.440985499203971 2.8545336511595147 5.056812556066748 0.5780901772176302 0.7820923006673305 -0.3526409396377475
Ni 1.2754095228850202 7.6868385440675935 6.697540967442844 -0.13174332598428923 -0.6938566681576889 -0.05099346032873154
Ni 4.942692592340615 4.706343256567603 6.587047310433691 -0.03245837763902151 -0.35292273254422446 0.5929868918238046
Ni 0.8768345701743357 7.616742126571088 10.854597406545352 0.14587925116503908 -1.4105071942814418 1.2116405922860938
Ni 5.294024167290851 0.7594153067349187 10.48588239503822 -2.601661750799042 -2.4083821559731686 -1.2325778566593935
Ni 8.269486469901532 7.462582986867083 4.604220248111199 -0.47836017091514393 0.26542114998712996 -0.11083742906955751
Ni 7.27748606164566 6.238690768475195 6.854091460039809 0.6715538908954305 -0.1281044436801213 0.4899134229703821
Ni 2.4445600381160326 5.590349145138668 2.4090012234597715 -0.581168816142954 -0.20612636888155467 -0.07050067712372374
Ni 2.6422074556022714 5.54025678736556 10.88661669008617 0.5125028782351237 -0.12190577106857715 1.1728979243002575
Ni 1.0940576499405803 3.6185517184855835 3.475187463613137 -0.4821039542282923 -0.39824485351979155 -0.3280959033085317
Ni 1.7479255089541181 0.869195576956675 2.464589673806199 -1.4485968020643116 2.0136823394921577 -0.05953646480273618
Ni 1.3675195403511093 3.053304584328848 8.241773083051855 -0.4712901514422399 0.7474461713483709 -0.11277346975000578
Ni 3.823935865919639 2.647404857420816 6.894425673062916 -0.47321950725446893 -0.6225813176514696 0.6780569821212709
Ni 4.176527970660665 7.272416539660964 5.611769930735626 -0.47284901128892765 0.3606247291741725 1.3933389100322713
Ni 0.5157274953537894 0.1179883287000415 0.2423898310675702 0.6032355661350063 0.1479037377942356 0.01799952190121416
P 0.22608697910669398 5.548176202790302 7.795852448713646 0.6538389901141707 1.2682285159834674 0.3155576616322049
P 8.81936975544879 1.6336192060415202 8.064501490234559 -1.0092474651947263 1.2197128277712672 -2.1948913763067424
P 1.8731198662915056 3.4833918683818834 10.565414517417954 0.09531259396108101 0.4627512607332933 -1.0863749036063484
P 4.048712076729389 6.259270287450909 3.714892731597279 0.1080603805450526 -0.44869915351560147 -1.0354161531702941
P 7.183055938622611 4.319388013616797 10.188129730188226 0.28928073021354694 0.09462405253448865 0.6998008015562657
P 6.553284294015613 7.949996973579497 10.080309675133886 -0.6864637181277274 -0.3548736856230082 0.5652112643724331
P 2.797216082773982 9.029010474495221 5.672799668012296 -0.057860619762210026 -2.1757330582107373 -1.0852695863573116
P 7.03886229168492 4.171960833737515 1.2905687637603394 0.8148419842945258 0.23599873096095486 0.6359860210931498
Ni 5.662409431512129 3.2833512711479136 13.289561889985846 -1.1323110040168305 -0.7921962218705517 0.18186621078260937
Ni 1.6100984508872977 0.9515629779383006 6.886698077388946 -1.534150516866416 2.3657944032096285 1.3367126768977946
Ni 7.4176423595432865 0.7846925827497847 9.368760703635733 -1.135524882968438 -0.8226352550866992 -0.3414044474919798
Ni 2.8372881421377003 1.7983649691333867 9.728799981843647 2.2891634448184512 -0.7904345019844388 -2.5723812566673696
Ni 6.752676357806495 2.2846097687934734 2.545297377229952 -0.8372558332133516 -0.323489771995088 0.6428894330812024
Ni 4.308618704752009 7.1694093334962385 10.165175300012475 -0.033759098728316055 0.9596326303810764 -0.5298339133144037
Ni 8.326036759283975 7.327916387551082 0.5211879642591075 0.9519874551309926 -0.2956166997339038 -1.27030905266158
Ni 7.852799165581018 3.9089942239763844 8.006493370746245 0.5692173002080325 -0.22903695493114104 0.4990446958476889
Ni 3.0673987688736895 8.471609681572456 12.353589290648408 1.2075833914975846 -0.49442288080496133 0.12461622802120476
Ni 0.3504756934908379 5.129050047352827 10.447594259356684 -1.2238733869068599 -0.6083440910061652 -0.9563495887544304
Ni 8.8109479549625 2.6620196955748963 5.661756330932119 0.09064475617176647 -0.02681994840632155 1.2876930524659824
Ni 3.5935420766944146 3.2067329821251493 11.835850428193664 0.12981705549585384 -1.2483618589665275 -0.01820006794779446
Ni 1.2121729450470853 3.7203257976810584 12.682023981348125 -0.1321143361704628 -0.22774703247512387 -0.6057855862503696
Ni 3.378767895746363 8.637405886156648 8.08343135935363 -0.36980665278375663 0.12197184841982221 0.1762684049798577
Ni 5.919511837463935 8.020056853980616 3.2789311960336893 -0.9485645454923728 0.4128476910346309 1.9707955674309607
Ni 3.2350309625009865 8.567811853721688 3.43934548646764 1.3817087819925107 -0.8995485206049864 1.2659255788819037
Ni 3.658632912123148 3.9934314514115816 9.004283995193287 -0.5071616685278685 1.5698646824385738 -0.22460694418424543
Ni 7.365019807914752 6.291021023340647 11.574060312903937 0.910127324562097 -0.3077664477225603 -1.8136875374296377
Ni 8.06149905442128 9.161676667838881 2.2663412211008738 -0.43887162590221834 0.8413143195534415 0.8387010503003104
Ni 4.822284594498688 0.3381727400472564 1.6175209618148012 -1.174412304062255 0.39546420545086086 -0.0867212527476442
Ni 6.229319003508891 5.986118962351154 0.17101278837781286 -0.3484096751652193 -1.6642987304494434 -0.29695290204682406
Ni 8.130691178807002 8.75641634010009 11.458365600366701 0.03378300998771601 0.7725784476396242 0.5787779473132743
Ni 0.03030843404940797 5.250344069757844 5.487131850675478 0.32713842449126884 -0.5750997271307385 1.3074350109796
Ni 7.262460181168496 6.239503718847516 2.418921044856853 0.6486469043902701 -0.9155582657696812 0.48203787687704724
P 8.767715436847963 1.9088714141259238 3.648568769199295 0.07956587264978555 -0.762998260150357 -1.6321362867842857
P 1.8429036884079453 3.3802111110140785 1.3343328966127321 0.8380685589226341 -0.031108291369030296 0.7703338745798217
P 4.8817578515119475 1.1770973334772934 8.318190418050003 -0.6369854088919418 -0.050404420594480935 -0.45692256986665825
P 8.865936283517227 1.6942799186547985 12.354431470697039 -0.5089208173108203 -0.033978670938289865 0.9756495746346229
P 6.4424946865338395 7.9321668710315185 1.2325688651184885 -0.28397165929580775 0.9005610210299007 -0.41257181166542495
P 1.8314310404569927 3.2761625976308757 5.9910733924853865 0.15541418723866784 -0.4239998509967085 -0.6758481473954102
P 7.0475215832912115 4.2481041405202715 5.987932115709644 -0.39286199194132343 -0.9600774312279787 -0.8912934796850456
P 2.52998376712663 8.749510829072287 10.192487692240297 1.5940497643252094 -0.8468427055708383 -0.6906515309568299
