# total energy = -340889.94022558234 ev
CRYSTAL
PRIMVEC
9.06530981837241 0.00000000000000 0.00000000000000

0.00000000000000 9.06530981837241 0.00000000000000

0.00000000000000 0.00000000000000 13.26799725474594

PRIMCOORD
 96 1
Ni 6.297462274965281 2.004693562653647 11.232328699491724 0.5506873597246451 0.6486947269090699 2.2166853322533826
Ni 4.521423023540377 0.4748354925890974 5.903861024255451 0.8690449526994903 -1.1090224658025352 0.4693098877874175
Ni 2.9351297733179003 1.736396651297905 4.825212436157775 -1.0372416364148072 0.9052525129682989 -0.1907012925757361
Ni 3.3349733964145245 4.432510464188535 4.7958770933699935 -0.36053345501194684 0.2028027038249604 -0.48777375091956
Ni 4.944355990914034 4.5803837990322585 2.663550313252809 1.7354113301255532 0.2751373488336294 0.8328211944807656
Ni 7.406920225238035 6.212928260287882 2.659225253906687 -0.19667190833687417 -0.7721333896824057 -0.47419652645575755
Ni 5.014775318100526 4.753295519778286 11.439932454636564 -0.5707082829312623 -0.9554736139073804 0.26820076961479616
Ni 5.613856321849147 7.809936706794401 12.523277779785644 -0.7171112678102554 0.36612997526311786 -0.07189292948556006
Ni 2.0274837517044757 6.662513238723368 0.3874295877401385 -0.08794149830799049 -0.6279379539776928 -0.9441404482827481
Ni 2.5902672546736536 1.6134075920884394 0.1588169769368667 -0.04839947434931019 -0.814704944496029 0.722793148686381
Ni 0.2823708049521663 9.128767054170552 4.9472251614926295 1.1529816449923045 1.1313450405591354 0.15095975101174
Ni 8.76813089632645 1.5613545827289088 1.347484885391573 1.8226465463951385 1.572246809517505 0.3385525798654815
Ni 7.032985257792671 0.4841002392915426 4.971916346026338 -0.6865506214145788 1.0717355564266189 -0.23786226653225487
Ni 0.8559574377112698 7.099433979249544 2.3702612490751775 -0.11603594255136145 0.8301709013421122 0.8493323047619115
Ni 7.296894559164085 3.965356915195966 3.9640533236345066 1.3714475092758185 -1.1423501334203874 -0.9314242862676603
Ni 7.4726437219041095 3.8254519877411357 13.0197267842025 1.4710569308400407 -0.4570143582495162 -1.224690997712149
Ni 7.91321778231393 8.48373399461499 7.02470137761978 -0.2169951932752585 1.4773990710079847 0.10074944870593616
Ni 6.92676702187041 0.5915794598188032 0.28239981394379826 -0.41547098759009093 -0.4958004778787784 -0.5315673510657426
Ni 2.0299948425426138 6.395512666681179 9.187981658339217 -0.22685820211226737 0.43558472762083045 -0.40848992828656744
Ni 0.2707753670782939 4.918646772080243 1.5287122148950882 0.00911584625833914 -1.2388225520175244 -0.7364269374197316
Ni 6.459105815524284 1.9717683571514149 7.0403045889938 -1.210859234035379 -0.969329031733234 0.05110813152972489
Ni 3.374897021147957 3.916077890661238 0.22583590638550372 0.22997720735722327 1.4061039230074235 -0.013975745453801735
Ni 6.032592050746061 5.725250849715728 4.809357209168953 -0.8033766639674035 0.39732054193330923 0.33855180853453304
Ni 5.332079294694446 2.7459276907085717 9.293767478979962 -0.1075037367106342 0.29508833803425955 -0.8689369663667165
P 9.254593555374017 5.837678822909197 12.446270691905742 1.9344717932992619 -2.406879860396029 0.3457506402758175
P 3.9624832119624287 6.11290163101706 12.786249728114951 -0.8539998854409099 0.3366715607926847 -0.35196396817538095
P 2.165548421252656 8.704719053681044 1.4614031955301319 2.0844642953017263 -1.0289570278085118 -0.4210939902038231
P 6.261826541807441 7.6337252132502424 5.848095770498023 0.5729058048032133 0.2096043001278261 0.4029232328320674
P 4.778324840370704 1.1054601486134796 12.70250167580458 -0.661801182384041 -1.2804973060484914 -1.0033629813894915
P 4.10200739640209 6.255653065775773 8.372994888653093 -0.798197176648993 -0.35692902549014016 -0.7936596937899557
P 4.983454672447935 1.3929936475451397 3.693717624085634 -0.7880477469198169 -0.5230114910759315 0.8438237162388564
P 0.37662192529527044 5.424273496224649 3.718475891912491 -0.7154948152527548 0.36343777314293535 0.24257638417847258
Ni 1.5811441542078106 0.8740853378882558 3.024864556276309 -1.7653981062956303 1.9100596830034844 -0.6146224678157093
Ni 1.9764279264322921 6.575431871968291 4.724773335287186 -0.8522947298243452 0.3334234861690322 0.4778678046597577
Ni 5.914489193564596 5.7042102654727 9.417770039834569 0.6275733715494224 0.3161130199150427 -0.015886332212953286
Ni 8.618371977026651 2.428841281551891 10.21001557314324 -0.01780154695779515 -0.18517033545517786 0.013194130092770824
Ni 2.4995597639645863 5.2151911890375695 6.9276463569292535 -0.2088085436994081 -0.0009934742615208697 1.1443316826267904
Ni 0.6975601846220775 9.11199623088335 8.976039245883426 -1.5002687765173066 -0.13555832885500524 -0.24770804897808307
Ni 1.4467962617124706 1.1539867524277547 11.231519167318995 0.013294917336693232 0.4339492488999365 0.396602175710046
Ni 4.145357708272044 7.288409429111747 1.6424319947471662 -0.20659559520848939 -1.8773835329267023 -0.19960142327884334
Ni 5.72654718902928 7.883918700765688 8.12112885146387 -1.322365149926871 -0.15539464685464205 -0.41743196797120363
Ni 5.041137239246035 2.978878958822793 5.20756998301727 1.6737660465099302 -0.012090098395314662 -1.1101365248023203
Ni 0.7747984379040477 7.206386505272487 6.908314583599543 0.48429916210739815 0.07102055418293575 -0.04440629402951707
Ni 5.108918561255998 4.403120729541444 7.4550488619483595 1.062964752212524 0.963152984829509 -0.9908059706600871
Ni 8.07167033379342 7.416112449461401 9.169698741363197 0.1380633546650461 -0.4994373033004173 0.5702485696860243
Ni 4.642680608561812 0.41657183942736997 10.244247089799897 -0.6343739394110236 -0.8746664126513258 1.6746767312496578
Ni 8.27885799121454 7.206359309342832 4.608731929573567 -0.5256170470195787 -1.4665852682219325 1.0309437192212374
Ni 7.315007048314266 6.033652692002602 7.3253143056534835 -0.8758493772158334 -0.43643756253942895 -1.1021789605181405
Ni 2.7992679740717685 5.217502843058238 2.3138858999624903 -1.8505612705275356 -0.15995604097307936 0.42072246579701733
Ni 2.3695541549041494 5.31193617613003 11.228467784011713 0.9700988200197229 -0.024004847555029626 1.6633312243298515
Ni 1.1689082524984247 3.3468036258144176 3.904971072990166 -0.6940160765536886 0.14183027790664604 -0.14475850729703457
Ni 3.633077046672066 2.652373692695622 2.3500011880132456 -0.034331683402334424 -0.46851156025583834 0.4334720521532019
Ni 0.9400635697620976 3.3375660750416274 8.189671659504171 1.0572149942129405 0.6383293245143459 0.8100409633614565
Ni 3.65941177188792 2.709938410465218 7.000938480818293 -0.9563819846542627 -0.6175103308864655 1.0064886715026666
Ni 4.148167954336387 6.850020108384206 6.089970929663014 0.052384941359619464 0.6375153132534827 0.37332289346713127
Ni 0.6046770195406163 7.448267103623409 11.051047884659885 0.4098415572184555 0.058240371699131946 0.20488581160623426
P 0.1714422340136724 5.609115164779304 8.264025331180743 0.055622731570626784 -0.2815491658972441 0.17401251906614548
P 8.495410113746841 1.488804907719448 7.9319666562180355 -1.020201393103069 0.05659949366159929 0.7194455723703868
P 1.8178121993748722 3.182703386276587 10.271128453201817 0.3259914553710192 0.13707270861700263 0.21332262951967776
P 3.918679634598226 6.415682981175249 3.863083902135647 1.1624700440987141 -0.851434952927211 -1.2133547467637233
P 6.968866320976238 4.037997243304276 10.515564562409313 -0.04690334941975793 -0.7226393967173361 -0.612052650206004
P 6.3961925649225515 7.769940559581888 10.437708054993188 -0.8195442748662015 0.23800496275770622 0.047922534712891665
P 2.201719007693709 8.650191214722915 5.829493754614052 1.057197510711444 -0.4521549732746858 -0.9831345701577583
P 6.9551323765005 4.223165263014791 1.7642325918307116 -0.20224503154927748 -0.8126660596891294 0.5105845781664884
Ni 5.562782365957194 2.694264489674095 0.5056847421276699 -0.8357095717721543 1.2310585918013894 0.5819892551617203
Ni 1.395060538198914 1.2768670279186007 6.908248406837382 0.307789844761328 -0.262460010476277 0.217010105673594
Ni 6.666855522158271 0.7743315744449715 9.235972502339289 2.143126070808993 -0.5049849725915239 -1.181946150545455
Ni 2.8501424931462522 1.4057757344829553 9.043427133444382 -1.4721738180533033 2.3661810971250863 0.9253469697253288
Ni 6.705473742268269 1.755071189660955 2.406297668929933 -1.402973604908558 1.0390270104500041 0.6043377980602496
Ni 4.024208906969228 7.134362618236355 10.638067721008943 0.7175193018819513 -0.9907712607674098 -0.7393549096998041
Ni 8.015311302238526 7.262682079658186 -0.030227369280463053 -0.9607528600284485 1.2299123940120882 1.7060161647928878
Ni 7.726399876204349 3.6534921245330314 8.227988911325987 -1.346668759669242 1.184215663305922 0.6267858426511206
Ni 3.050920976478695 8.539494715717476 12.316150859940754 0.3208621045642539 0.22142006181583157 0.4925778571764226
Ni 9.258400985525707 4.837974579413845 10.429746899852201 -0.9150769552578885 0.15807656456217936 -1.0129082018757651
Ni 8.53593204893268 2.55425984381053 5.987104138805228 0.7689434219901983 -0.6188992408141921 -1.408756530138922
Ni 3.770715646655652 2.656761302679951 11.347879671940566 -0.39513690401842916 -0.4317848942587661 -0.12862663473217847
Ni 1.1617013311398692 3.5100607915329456 12.378219223661205 -1.0538933860388753 -0.25163875149105697 1.0099894855670735
Ni 2.843842102776194 8.426314321803556 7.940883295020898 1.2838687936238855 -1.2458105532995836 -1.1791243648259435
Ni 5.452965202010598 8.215536801667984 3.8250839361598055 1.9709704024459285 -1.4200053635798642 -0.9224897027821918
Ni 3.2819685295170715 8.605916241244694 3.7863415213043847 -1.4055279958992954 -0.5180307500318885 -0.02091978087180268
Ni 3.540103228491755 4.186749913206843 9.257148159699604 -0.9450375061757208 0.5966738537570885 0.14331251887912738
Ni 7.1904496904947 5.903801193210211 11.605543881332219 -0.08646902752752206 0.20281298823760555 -1.108268618355646
Ni 0.5912748654066682 -0.28187674556343517 0.10446772458347174 0.35285305564855357 0.7915020240170046 -1.000345020498774
Ni 4.620425272794197 0.4055466095452625 1.6963669624388178 0.17850500761986032 1.4578028940436119 -0.6725368236339901
Ni 5.836300895806681 5.620691565502418 0.5067490095081659 0.06981599235187332 0.2327367723802314 0.20230031026724515
Ni 7.991224773874145 9.249154369443032 11.22627851167449 -0.10238775564030753 -1.3553395479703627 -0.615001962642315
Ni 0.046980968478886685 4.920015633872875 6.063289003078565 0.4029448300986222 0.08839992600164777 -0.8495181955204724
Ni 8.146486336274124 -0.43206626708277046 2.595604909133927 -0.8382392801725433 0.41247436685561223 -0.11451770613462214
P 8.387551056735399 1.7109503264507782 3.5996605013740686 1.7960119745267458 -0.2841565216131042 1.531267538891666
P 1.6251652990092529 2.9558712023347247 1.6549965142477425 -0.08151142641193058 1.0489692092643805 -0.6064589581683104
P 4.607217116291787 0.9014426300591356 8.043100103159931 1.7565041462401103 0.46905072058875996 -0.3203692240882353
P 8.686960111616377 1.7126727353289237 12.461661775028453 -0.15249264271649868 0.7027650263909122 0.1557936820652736
P 6.394760245960725 7.681952661838313 1.425181843353723 -0.5003654715416415 1.0048732473864308 0.5053544401158007
P 1.7100528607721657 3.3135430038464415 6.1665673590051275 0.7078573533121552 -0.021224970817047318 -1.8213594521525986
P 6.868622124268176 3.9674963283288207 6.0903688967669645 -0.46127750440124426 0.9699764355092457 0.7240565887798369
P 2.3426573804754263 8.585745926750624 10.112217197042146 1.43648459218181 -1.1498518411140712 1.6050466296563453
