# total energy = -340874.79612894694 ev
CRYSTAL
PRIMVEC
9.20081728608640 0.00000000000000 0.00000000000000

0.00000000000000 9.20081728608640 0.00000000000000

0.00000000000000 0.00000000000000 13.46632613105203

PRIMCOORD
 96 1
Ni 4.16596448185364 6.749360776870631 7.2610292707446344 2.9416754885910823 -1.0637293982926905 0.07037854972356267
Ni 2.192398360865783 2.4802275300594063 4.91735015091077 -0.8650751694184651 0.10123435876215468 0.23773653958766797
Ni 6.162781068287659 8.457069280499226 8.204345829908624 -1.4644237417942392 0.046331793187004075 -1.3887435773521049
Ni 7.316085121609986 6.8766816873747825 9.44183368166633 0.14806597440371275 -0.2548914541003997 -2.557457288367686
Ni 2.1740243286156895 6.354461696162567 8.043544065145651 -2.3390765275988104 1.851548059920837 0.6727556245130155
Ni 8.742349823286604 7.0368863190916695 2.69307647841393 0.7603168566634518 -0.20939424099954904 0.19085195922098744
Ni 2.225944540927796 3.342546533836692 2.4572144457009024 -1.222730017331036 -0.32981185755837394 0.6671310792373866
Ni 4.879957109114274 1.6311024983635602 0.9924774463525078 0.10943669206728895 -1.2338700931082556 2.354094341163881
Ni 6.829085859217681 8.844902133481666 10.600651784827155 -0.6497658484860616 0.5456456835356797 0.11108811162778287
Ni 6.747824240373001 4.953646455279019 2.4628830692708985 0.3984685394948234 -1.9463407768227061 -2.449341886214982
Ni 4.829555031665095 3.1402849660080494 10.152047533240879 0.2303021947968098 0.8148373563088354 0.3729158878366997
Ni 0.38962885252936835 6.33381506202676 13.41108744879923 -0.19468110315909054 0.0063205429013891146 -0.4632901639558989
Ni 5.255433264394221 1.1285630554652915 3.7888183782244726 -0.42374376912184447 0.07048242229127863 -1.0715198408713869
Ni 1.0072318770566888 4.735393866894211 9.150059201992566 -0.5604596086200605 -1.3855492387845236 -0.007573955692515988
Ni 1.1765177154990853 0.05232688843902368 3.2371024067481877 1.1510993403679273 1.0663223558308474 -0.24561645655637698
Ni 2.590572932550828 3.5079404265395846 11.354873145791887 1.1701702409564492 1.4145384269280221 -1.427292641269897
Ni 4.906703885153844 4.615415208636216 12.186163313134413 -0.07523279249207043 0.6668297459468838 -0.6989927038326736
Ni 1.998905171972713 6.9219865120114665 3.278888838829822 0.059816200826684075 0.13775199407221436 -0.45687500445817447
Ni 7.225061435555819 6.9956666573588615 0.847073249426557 -0.3286072957273115 0.1914595108979993 0.24141733087336487
Ni 8.449773032339825 2.119767108696411 13.153880439913447 0.6836139073837582 -0.7996591059065002 1.1816234770987133
Ni 4.593995705842918 2.867508334000781 5.453431173462377 0.09378895822770299 0.28431438734720715 0.6775556170048201
Ni 0.4213670719818955 7.741061674238708 4.92899838567723 0.8681324681875501 0.30699408833291 -0.2812470612757931
Ni 6.8001860919179595 6.796091728196732 11.953222539930351 -0.8033962043514292 -1.0783970276071944 -0.6552412697783361
Ni 0.657223584204512 1.856347707935184 8.82597789235398 0.04107825809754861 0.865646982761535 0.15254355055909213
P 4.892948663213989 0.7547872112318224 6.9340533839674 0.41803592010378976 0.20742811841211373 -0.6730520727075119
P 1.2712493309457353 8.531706310851133 9.13706396756591 0.6698145396068206 0.6781395145327481 0.011364275972883654
P 7.520692897863153 7.397079916751484 4.748886865539561 -0.7283022514300683 -1.8882749830282253 -0.08073855280164804
P 0.38027530161026735 2.2889517381479454 1.763347686314006 0.6250318360744913 -1.029875168747407 -0.9447145756186633
P 0.9390446196678851 4.975958437355372 3.8566210414480016 -0.28661423912497735 -0.11523632946820153 -0.2566233491898419
P 7.755562162384 4.90829562655558 0.24495520050109285 -0.7599887839000717 -0.37021031598007853 -0.3862419155216445
P 8.761625535637101 6.000616662474993 7.864630491427091 -0.6857705487154447 -0.24744631067626413 0.230124531568365
P 6.310610600667353 -0.032022524708675275 2.172697570753665 -0.29574602622291646 0.5718588515959377 -1.388775201920989
Ni 6.475130415721893 0.24019101727670714 13.097227327155949 0.08318084369455353 0.22414774515963978 0.6019762398066084
Ni 3.5493533054367656 5.187292011092173 9.739601573762585 0.5182693484052557 -0.5363776279701924 -0.2176909337907025
Ni 2.737813612620053 1.0473658423420702 10.057864286508352 -0.5880272338256841 0.04702650526118353 -0.33051711115551463
Ni 8.331174496684492 0.11184605580138131 8.606450070684312 0.4059087978229526 -0.16239678920408807 0.2800558691811693
Ni 5.881263659796871 3.5866534189780164 0.6437857904632696 0.4763611382072441 1.1664130879068622 -0.30626569480731775
Ni 8.825488408870902 2.8604513070925077 3.7954300855729537 1.2005984755393193 -0.09031025565048317 1.2555203243881798
Ni 7.259674910430556 4.302753033412046 8.633544637619751 1.010878573040246 1.7722536957648831 0.2926123656899412
Ni 0.7420183169120029 5.631590280158148 6.040643898279103 0.3929185562108717 0.2770728752934454 -0.059706414721697174
Ni 4.975802023460403 7.332720199380727 10.018825218487748 0.5795425933934406 -0.3440825085447751 -0.402018718739927
Ni 2.302522943740778 1.1398708599897605 0.6510323542089749 -0.7930639691874858 -0.7572068502795604 0.7432635007255909
Ni 3.2867987815065396 0.2094501664250364 5.515080330041507 -0.16296217478925484 -0.28435629632873605 -0.16302953769208053
Ni 6.629050889187997 6.145437527580887 6.69337012296241 1.3222260532458452 0.5233763306145179 0.7789054182989167
Ni 1.7270946257873072 8.169930172606934 12.310067040074376 -0.43983116160201025 1.4623277784971591 0.9846350659626848
Ni 7.076109403459295 3.382836913017042 11.933117833936521 -0.41138807576996894 0.9310612465012867 -0.5915527304804392
Ni 2.77096415753597 4.253510258949102 7.071599162793799 0.8006690352282533 0.440252565410145 -1.3506287727582547
Ni 8.729864314141198 9.409399880422061 1.4711288071621853 -0.4067302652829834 -0.5384800190251758 -1.4036922282421374
Ni 2.197891248824374 5.359448504548104 1.4315238888744903 0.6771686659790467 1.8468406271428386 0.5023621902566962
Ni 6.788915090662894 1.5154206218085164 5.448367963674081 0.9192660536385717 -1.1156322578095692 1.3751498978280705
Ni 3.4963473966772325 8.727867736776014 8.285237575895788 -1.1492013520142659 -1.1876583704388837 0.02854284463469923
Ni 2.9231916806094764 5.2078466370544705 4.689620720654357 0.8974862387593189 -0.6389800707244673 0.5908068534533503
Ni 4.018677797697659 8.563228311095909 0.9966849801271536 0.60669807076231 -0.6041835318705724 -0.7337375635130267
Ni 1.2421839489336948 8.739874803419164 6.928451926364066 -0.4160278885348254 0.6707609626804899 0.4374752597753239
Ni 7.270531874904823 2.059878988558275 9.658264508215625 0.472403953331709 0.19088229823829062 0.4744500372274604
Ni -0.011666636401160857 4.574425567337185 1.8794279582603513 -0.5446583799217458 -0.0013310601065977077 0.21127217474855225
P 5.069797573518968 4.763833593326378 6.664013075040341 -0.9373095414038438 -1.1685118794174199 0.049958591306313964
P 4.320483008447564 6.428574279925463 3.3624745841373818 -1.9334790903686898 -0.9184512710467602 -0.5738478570015084
P 1.936091191916936 1.4820308556414719 11.960629197897966 -2.07934497179729 -0.9072073227018246 0.8068229706447911
P 0.007889700878545295 1.2019947787442071 5.401477838207806 0.6185385150406638 -0.6307134598403009 -0.07937998189122458
P 6.53793519496032 3.1838692378000832 3.7937067724830977 0.05318455444277937 -0.1831823584908716 0.9145213398647346
P 7.896141450691047 2.3947519368679364 7.643203621056164 1.3014181153615587 -0.6509117891650468 -0.4661438313546102
P 2.876543536639535 3.1330071194833504 8.753448769257202 0.06727857064200025 -0.3799447696590231 3.1413519880822354
P 3.725631765065977 3.91417491422417 0.7243821902134657 -0.09565120824742236 -0.08330399953597911 -0.3748511571861996
Ni 3.910439382379634 2.0504573515907762 12.48340583855992 1.746760179479469 0.29690482241770805 -0.2948026884730407
Ni 4.904909725770384 1.051975451834958 9.16951801060835 1.335167701008178 -0.36967861184632467 0.7451134094501362
Ni 5.739828695476174 2.857074607124664 7.775012690264168 -1.4153377829008658 -0.43813269085366485 -1.2053956398176466
Ni 2.973060110652293 5.926577685250908 12.81162015535261 -0.605850378050034 0.45761445372736026 -1.5825875293218807
Ni 3.781609537829907 8.468018253147005 3.3734898026700866 0.2201062281004145 1.1794935752399043 -0.4123342417333221
Ni 1.4049556086915314 3.4708427309800576 13.630884854417284 0.32943056295955525 -0.34005976053862724 -1.3107190810475104
Ni 7.501693210033187 2.369366881796325 1.9134304988629778 -2.161519485714516 -0.6477809568455489 0.20858742882753756
Ni 7.962764569130169 5.166424557339939 4.370119577893134 2.5327811257772446 2.0578991432186884 -0.18419125937136022
Ni 5.665955332964407 5.34775426569489 4.594118076713687 -1.5604441604556223 -1.5972672428212429 1.3407667923625102
Ni 7.870636784993872 8.224233396612968 6.5440417774362265 0.6727317132536156 0.9815672256706385 1.2599899301237591
Ni 7.447988039154972 3.685341385885627 5.896177264641226 -1.0593886048254917 0.11812393542864172 1.319865780543785
Ni 5.300471265327725 7.962396536436126 5.5067710718917535 0.940423147332161 0.7131977916884621 -0.38476687363801476
Ni 7.961338442440752 0.04166038088392448 3.728287120953497 -0.4664587914918676 0.6196816275061715 0.2790821924139903
Ni 0.5832030086151279 3.363975237447342 6.531478061343336 -0.6503250634236413 -1.585472821289476 0.7649206739840504
Ni 4.5207664005457255 3.5370886159077846 3.0462314508001733 0.2976653547328164 0.34666672433218365 -0.6565461046326887
Ni 8.76350250237672 0.8020416890651993 11.160446994019418 1.0396777566601256 -0.3898615145521028 0.6109419336403284
Ni 0.4172386652364689 2.9527171034890705 11.246119484702202 -1.457419285451948 0.9593994313243476 -0.6917380791527893
Ni 9.107585468854808 7.690613592702774 10.579981228566234 0.6496190384955521 -0.4084251364869031 0.9406830858617671
Ni 6.310555395763246 6.9999726398791635 3.0857011170728077 -0.14302018444968917 3.5293401968710247 -0.626644946197882
Ni 4.2576230243050315 8.910917997975616 11.70327405585283 0.011991368033921283 0.6983242170107392 -0.13804664249449775
Ni 2.8097456026707435 7.268608904078449 10.42285611041675 -2.3261063405913878 0.5595139568773396 -0.08868377579065372
Ni 8.258865273122407 5.265121725064901 10.731274868678607 1.6156501162038046 -1.5448859010060492 0.9716615365211523
Ni 2.5755571986338763 1.589993246438965 7.346110148871745 0.45526240855541594 0.6179983262664777 -0.6454255692394949
Ni 4.839997959358563 6.089882992415105 1.1239148025395294 -0.26938553395151665 -0.8345479473638854 0.9130606961588081
P 8.210588584481325 8.132814075412703 12.747237435938475 2.4168799090315343 1.6416195436843728 -0.5302100657068998
P 5.966270011303437 5.400787776906476 10.234569664062654 -0.9418274838788554 -1.9261511892487084 0.35622428611363166
P 1.9489539345737363 7.803719240399516 1.0632712952968706 -0.5886373566058571 -0.2627847408055474 0.6208980164117759
P 4.843521872404024 7.169598908563549 12.75362096301665 -0.576524375392407 0.03988629467197647 -0.2579199565140784
P 5.99733197068066 1.543961557231546 11.311592500972438 -1.3102642528982789 -0.16427806538720094 0.6082350762321267
P 3.1299064440360387 1.6202731363413472 3.2003267397959476 1.3882710085910608 -2.024600271956242 0.49657977924696406
P 1.2920523789765117 5.248965089796417 11.26394882856511 -0.3069303249745101 0.7562552849995685 0.6334066904017479
P 2.532764197134035 7.13539947046961 6.016579160497371 -0.9445330557354765 0.7162491769202761 -1.2148693836360367
