# total energy = -340865.7514762501 ev
CRYSTAL
PRIMVEC
9.25823846806770 0.00000000000000 0.00000000000000
0.00000000000000 9.25823846806770 0.00000000000000
0.00000000000000 0.00000000000000 13.55036783510166
PRIMCOORD
 96 1
Ni 4.646154343576548 0.14361657106620138 5.676561092846365 0.07440695415666541 0.5302350054075642 0.1921292832715143
Ni 1.7599448229359635 0.49410199774211394 2.500584450231521 0.4058059536965011 -0.12295889492343985 -1.4439762725731646
Ni 1.7594541363023561 6.702297986682376 10.056283704260117 -0.18307900014378792 0.8695370618445605 3.6948932723159076
Ni 3.339659519524078 7.9372358863734895 7.531525067820816 2.0491219112466905 -1.867877907429112 -1.8380289423884795
Ni 3.12856242645081 1.5650866799635907 10.120525694485375 0.9929011626262191 0.2892089964353471 1.4525850972880985
Ni 1.820984388509055 4.226904277231657 4.152022719471651 -0.6879549579612733 0.7806792223698877 0.5782189894860107
Ni 8.137750812989903 9.19783762282611 3.8657302143576353 -0.24196163341260912 0.5022917420300769 0.3705306754339747
Ni 9.043058393757258 2.92356651246334 11.736962267744065 -2.0927193362216667 1.2347154718276865 1.2399252981634
Ni 1.5230542777640101 4.78018586045834 11.598274782786026 -1.0540823621212296 1.253345428224048 1.303330244782607
Ni 9.313602635403987 4.941945801258134 13.828150194727835 -0.9086088310350415 0.3958858663693117 -0.03253216829975042
Ni 7.581876923019635 2.8172634194995547 0.5049406174018164 1.0059322847785643 -1.263932716821591 0.8538625885320972
Ni -0.16745746069266393 6.5554623261349425 3.5644921350430065 1.1055992990535992 0.5629222112279402 0.26493289749680177
Ni 2.815522870686004 5.034917030969189 0.36010751381380335 -0.21095644328034635 1.13242593232814 1.4269537698732393
Ni 4.940260801874804 2.5617360404888885 1.033380495434244 -0.9001231621615337 0.9791470462649202 1.7240529676899403
Ni 6.4752952400895305 9.070703493529933 9.260131679698329 -0.9655397398941308 -0.19940601943858563 0.14884013356557593
Ni 5.285620867789111 5.09608621187946 13.727470555749958 -0.5043928475334797 -0.7185048057236723 0.33733079164323837
Ni 8.827295148545534 8.151045643289155 5.994858402181467 -0.15386561180462532 -0.4689964703120568 0.2191081258532033
Ni 7.108716134646515 2.4676353056966995 9.92533240328401 -0.5198063538750725 -0.28505152262354777 0.5822263108731908
Ni 9.082563296881842 0.5362964191131687 12.680122156086968 -1.5467815753668652 0.30590008393778284 -1.2466536180261691
Ni 1.013841909178298 7.173375671422257 7.989107018488819 0.10284052690700998 -0.10723299954775081 -1.3288790397859889
Ni 5.70727807611019 8.249979178510458 0.7350772776828901 3.869759911852232 -0.565935029912335 -1.083000844927793
Ni 1.993780149445833 3.5023267676841288 9.881415949576144 0.16589323239312073 -0.07458461738511027 -1.2203170370141694
Ni 3.494114710249982 1.3388245924403417 7.757910289914386 2.889762344661559 0.5367193275803274 -1.0820677915905623
Ni 9.177386174266887 8.323943244848001 10.446127753894368 -1.8630555463398044 -0.9830250411630875 -0.3868898335182885
P 4.126507940347901 7.051833518101532 13.58925709259646 -1.7430217954829592 -0.5868424694889635 -0.5293690578628432
P 4.9156246295723625 3.349797290539175 9.945089483965488 1.0379990834061221 -0.7268873733604126 1.7195193414856453
P 5.853447143494987 0.9648750864396237 13.500420592141426 1.546299236413808 -0.28649931081366786 0.02736219406303675
P -0.14750873447692905 3.924956091034053 9.823691759163331 -0.4272011315428255 -1.0594402839990336 -1.0715085280174772
P 7.109336436617302 4.46191540001451 12.768118934321848 1.8858283212599456 0.5577321823865684 1.1728593577528381
P 0.603478825844723 3.5230837381095608 5.938530354114842 -0.2945800309392733 0.15342209650930352 0.948609025577063
P 7.789863248000599 5.724840954297988 5.023446073628819 -1.2964000933216768 0.4042712622195295 -0.06306350411938816
P 4.096353857976968 1.3163363314397292 2.888951810845765 -0.272325333306131 0.15224170304795717 -1.0569326870858313
Ni 7.026586302066674 7.294140132719908 2.7535426680945254 -0.26721038067706887 -0.011129791364574381 0.11991676566300638
Ni 6.698437301282106 3.723589406487604 5.794422170591197 0.7290620124142283 -0.39017416069651517 -2.19430310790344
Ni 1.4369989521153093 1.9480814848517516 7.8372348762681305 -0.9585321982280458 0.5400409357543925 0.4252296096387515
Ni 1.4130386312138745 4.726423270244029 7.878265537076084 -1.2353513056394725 -0.5427573062442911 0.3967872951376586
Ni 4.84910418688426 6.874788225752946 9.292137409743253 -0.1016184815744508 0.5881925557589547 0.21882967538083606
Ni 5.833930777011129 2.780008268298869 12.351241754471173 0.48092844586295236 0.3543507232400026 -1.7619142615120882
Ni 8.459724568781713 5.365186168340475 7.004523920031079 -0.5690434936343296 -0.529176739346379 0.7309412317148122
Ni 8.049232795934795 7.696679078807036 8.390943264283667 -0.813587028841502 -0.06668695980458837 -1.514435812046308
Ni 3.8545101552770906 1.1009619322395432 12.9234462511022 -1.6264407790614055 -0.5360942924018187 -0.42186737803473795
Ni 1.6126184757549227 7.286974256221565 1.5258252685081366 1.0597207913539297 0.2458591686948024 1.4891726666041452
Ni 2.3500556783983133 0.28661654345696397 6.002080753933865 -2.079938382406915 -0.07591104950601765 -0.6006783469307913
Ni 5.815830920997874 6.8349870590005235 4.978676010343244 0.5267586168231896 1.0149645701841616 -2.058733466194525
Ni 2.0992500009563226 8.999368766889456 8.935017529451434 -2.526783770543229 1.0639332867733806 2.240974286707734
Ni 8.798002082343007 6.005161895663385 9.705152978369819 -0.27566648186422205 -1.272878613160969 0.4596767355730277
Ni 0.5129591776540315 7.101142895659895 13.152732079277076 -0.32412046360055147 1.193939832572221 -1.3357477418813641
Ni 3.7455777226162392 5.623028106943629 11.836802184501787 -1.1616125811944251 0.2077657042571906 -1.4041977071236462
Ni 3.303422774544087 2.2385772301857254 4.592070492490802 0.5643044362874475 -0.7339890174022005 -0.3618017802014092
Ni 6.786409082273387 0.833763617939716 2.0889381750598703 -1.2198310985166863 0.736915447020376 0.09826344905928883
Ni 6.441919290765855 3.916725517123166 7.900162196644855 -0.7179419912416668 0.6410454378939282 2.6024883604653954
Ni 6.516624016172995 4.871194343634964 10.846012363040833 -1.3793050576470245 -1.1837253539330646 -2.435066093022258
Ni 3.6539581957071974 8.24563706471495 10.980946558163692 -0.8898539190250416 -0.8632543141596424 1.101371891235813
Ni 1.8015791208856362 9.314898788775778 -0.05390887038055462 0.9611652649755189 -0.2809328724694839 1.0679935728856833
Ni 8.921182943855214 3.613092331542231 2.843030022706967 -0.18597046275897006 0.376315657546868 -0.048553740538987346
Ni 5.2362096496086785 5.867528924055683 6.804967221085955 -1.1357732515338181 -0.6211710675675045 2.21860414654265
P 7.889565217006609 2.114794583179471 4.19480133568385 0.9300335765677208 0.6860166032879799 0.07645123828020382
P 1.0081758672958876 5.279630787563752 2.2708921853922046 1.3143967870094138 0.060986566985701415 -0.3924503583252016
P 0.34355563525600374 2.070808692683831 1.4525861222349599 -0.15372831489581268 -1.421274717210591 -0.05704275184660499
P 0.9633011859167319 8.860735905537801 4.253622627343501 0.520337029567562 -1.042350161285966 1.2365008458628832
P 1.7594448780639862 2.135208998785215 11.788874136108223 0.9643950847667262 -1.0312386247538368 -0.6037119915507926
P 5.680021822349052 8.700549865260896 3.722448791520426 -0.2810357165959354 0.18788850571728932 0.20233681993213543
P 3.2095905286646267 6.432448112913394 5.580665185634242 1.511930272015635 -0.14656342171625727 -0.14934201290265894
P 6.720425617410742 5.976285450187506 8.877889569589646 0.5195507862208407 -0.41025550482742246 -1.1275218101583036
Ni 2.2606025792678404 2.97522748256767 2.21950988826281 0.9936475538739402 -0.13865188017866445 -0.27349235703103864
Ni 9.175923372604435 1.3656549672364617 6.0854428580407465 -1.4962339443263004 -0.9769958042498723 0.3754026588142954
Ni 6.4131724606271545 3.399865843643874 2.951147730391263 0.9410098730735665 -0.24018757223132187 -0.34038063421315573
Ni 5.266437797886571 0.6233136757285076 11.17653332449578 1.793741176214698 0.5889536022946954 -0.02725240795804984
Ni 7.80498195125873 6.443576515434077 11.936396757942704 1.2080107088429906 0.3126381739925648 0.8884063879452377
Ni 5.878490678285707 1.7327256021283057 4.412555102145113 -1.6192422044304373 -1.0809745585263835 0.7030043960952279
Ni 1.092786907758876 6.279335366751134 5.8519565671174245 0.5206406768509098 -0.7896498012996143 -1.1922992116450046
Ni 4.717377971356587 4.484811023503401 4.640445713797637 -1.098834726636256 0.34581851739927544 0.23030502301028727
Ni 5.561109008725393 6.852133316461674 11.901464498749041 0.4626851833820483 1.816891389078916 0.13306718700203535
Ni 8.410054119926922 2.540812421772798 7.875487139741261 1.1600514073548924 2.1962309210537723 1.4845305398464435
Ni 4.755484880487308 6.591921268835812 2.1426387350771012 2.229583014151657 -0.08213620448012307 -1.2558316849810114
Ni 3.6047599170092743 3.3063854108224717 12.358043782201577 -1.1453364697422213 0.8757761007757369 -1.113278927086044
Ni 3.082178652217352 6.1804944139135305 3.2785931050597137 -2.843735484309483 -2.944666710008922 1.113890592528114
Ni 3.979487115033068 3.9916802149662947 8.171291558956565 -0.26979691045732246 -0.6491094458489852 0.2741418176895795
Ni 9.446643520780192 1.352378653413951 10.171895030081052 0.6686644851627774 0.008157596110127887 -1.4226356021138598
Ni 3.861888971257942 8.988629210380314 1.3886144725701048 -2.8645009989916086 0.3988837726553711 1.2252849225424058
Ni 6.6614784137092595 1.3252520149899925 7.4434477429121175 -1.770353136308061 0.5045196029193312 -1.082851206723806
Ni 7.298713702474664 5.031500741010677 1.5827375114159037 0.04751064398645366 1.4072673471879056 -0.18629005088191788
Ni 0.9310269669590804 1.8790613178037618 4.209177528224711 -0.15736694008966448 0.6517545967813162 -1.1379651169788143
Ni 8.569295819890092 8.79372477621609 1.327912832697517 1.7424782642746637 0.5224869860310293 0.13255373770072656
Ni 1.3947721269099598 3.2571500991710685 13.493469506773266 0.4494949099440194 -1.4327022423212423 0.7333776090704466
Ni 6.15369181383252 8.403471512445886 6.982979073520364 0.17607248691896774 -1.7882742395628555 0.30725968328947084
Ni 3.3039319776544347 8.166923522093622 4.1486480915858035 -0.07457973228910382 1.6459253701485783 -0.12256500191913086
Ni 2.7151913414708377 3.5869378081471175 6.304430747676725 -0.3989200252099452 0.9993949978806789 -0.06892741909933289
P 7.469148612627103 9.577277264180209 11.088875397785243 0.4752347379122848 1.085776865011033 0.2611484907537051
P 2.981374952845318 5.76666041701506 8.84208888763688 2.004736957373412 -0.1731324304540373 -1.3257330379578394
P 4.261465281066687 -0.038605928178861486 9.20285373637495 2.2304538467923845 -0.7890329936512218 -0.6100340771140783
P 4.64208997693214 2.679260118357055 6.4092701131542205 2.1912411811486647 -0.37086774705841935 -0.7064851555549768
P 1.600092079240378 8.546205773395432 11.492500335233165 0.967702037652772 -0.34942320403139826 1.296058136601226
P 7.54633454591739 7.105318361164743 0.6478618947664344 1.1420642267488523 -1.0829021145663995 -1.329919051014729
P 4.62287913231449 4.380396611167085 2.447454197697879 -1.0370536887737172 0.7501332312622307 -0.6046525010871909
P 0.12173287303114659 9.343784492490027 7.986288810729005 -0.07400071985718223 0.7159419300925025 -0.45005926708792166
