# total energy = -340869.3250795368 ev
CRYSTAL
PRIMVEC
9.19753615299710 0.00000000000000 0.00000000000000

0.00000000000000 9.19753615299710 0.00000000000000

0.00000000000000 0.00000000000000 13.46152386111293

PRIMCOORD
 96 1
Ni 8.332020200222944 3.3971834735228685 5.831532096461026 -0.19756330980289202 0.6237167168074935 -1.2170154834447622
Ni 4.858193659852014 4.731359639471028 6.5793064830750065 -0.8800004232697296 0.3729297717937707 1.5616317530058204
Ni 2.5331393562892934 4.917434988733373 11.688936861474025 1.217175148951078 -0.3428411799385063 -0.2558705301842174
Ni 5.697220479374474 7.9514813489362925 8.97972447623887 -0.9637119426567724 -0.953531659689661 -0.9990579262562342
Ni 6.84403364103104 5.371131040753191 2.407028262231871 0.14174517439200748 -0.050764632147377094 1.495629477973082
Ni 1.4529347497885725 6.876694091094338 10.52066492875503 -0.09876455706542345 1.0596405729352978 -0.5837352913185494
Ni 8.01387743263931 8.996597355889989 2.762129488415717 0.03182562915102906 -1.9096537058143177 0.0457365828051664
Ni 1.640306951616089 5.262986413368155 0.5991348480662622 -0.048598991954625984 -0.36253120216826595 0.7236035604028184
Ni 3.442021461148489 4.141521660715941 4.4468660570624365 -0.3261601197383996 -1.4731307826499338 -0.3086699333734361
Ni 2.4417710344281827 7.05515388061227 7.0019442957893485 -1.4642489067792719 0.30845447492852035 -1.5209517587879546
Ni 4.677498869104744 7.791481014016231 6.644486660901978 0.4122334544893997 -0.20239235576041917 1.302851762484292
Ni 5.925549308668019 2.4733277801806963 6.497945080298342 0.7436954460566869 1.209601193258562 0.6531607331002235
Ni 4.429248177001539 7.125349474778164 10.824935972659288 -1.1139412432603915 -0.1228622214445755 0.640373094417252
Ni 5.7732565088516035 0.22847231085394704 10.714457010656943 0.016092020465856158 -0.45889023511599036 1.545707625576396
Ni 8.539507413114508 6.127472012326045 4.333682099745078 0.05717362099751444 -0.08269850474149629 1.1770494845747856
Ni 8.564101624173157 4.0446624099086765 1.488481386624572 1.9242082065897248 0.4140993040535449 -1.0338130703492323
Ni 1.0303723568688004 4.374348085075932 4.079017046089029 -0.638691592949771 -0.5196042651665955 0.08091827291262192
Ni 5.547273051218476 0.3720338898184649 5.658107038107455 1.1914173232606835 0.15090961450009494 -0.9524011456296436
Ni 6.940120298820754 5.769467124051243 8.828322917653413 0.062266205029073415 -0.9030156532179804 -0.3667107874672523
Ni 8.91605453381049 8.340150821979055 11.153572208977705 0.043491752635047676 0.5178248046686694 0.1362070181825977
Ni 9.22402482666306 5.477721284567205 6.841899812696856 -0.43870836085147674 0.05052706221527427 -0.14223805486802601
Ni 3.180480329636254 8.197598212705314 8.898969191079546 0.5315071872517685 1.481554487937255 1.0074844597570327
Ni 2.02184833431837 0.960544664139834 7.357180725751265 0.8166276154400387 -0.7061521976955902 -0.4536721812501606
Ni 9.153617689170932 5.048242344633183 10.491035986532019 -0.2970981693754367 0.07475636707628416 0.1552231542737843
P 2.3770847642802875 3.397836498573416 2.1808746501841636 0.4525522087131045 3.1339796068775643 1.880094761210278
P 4.070967362649041 6.294361301652585 8.17965290036555 0.6897454742027928 -0.7404936512899376 0.9050481102669767
P 1.6008127323618502 6.871755014303577 4.790175122439142 -0.8324028759964245 0.3111983562222447 -0.38205024603780013
P 7.643649019122569 0.5305414646581896 12.156738254585669 -0.9107317909153154 0.8100299076178631 -0.492990519233809
P 7.996622855247378 3.4729343793863783 3.597551793609873 -0.4159903504286707 4.220384849501216 0.14745688006480412
P 9.036717007587006 1.4675128442268512 7.99396384761198 0.09993183790064725 0.7973525692605107 -0.30964566702314417
P 1.5654666018089762 1.5547238798506735 5.299896125027974 -0.9575749765210992 0.6351542692204739 -0.2954205245626977
P 1.500246874577535 3.5954363603475357 10.208761769541697 -0.2787762311377973 1.5664145191064442 0.6884938611838788
Ni 3.0212617852696653 2.1868705238525004 12.379432673372659 -0.18720022140101308 -0.6561041319992635 -0.4938585236610591
Ni 5.784339539639065 7.493453257496644 12.935555244694056 0.16863351414241926 0.5193736372130281 -1.0265957266651868
Ni 2.8078053715639415 9.015811008433563 5.314636096098502 0.18658572774546575 -2.4996807436788497 -0.4481831331111314
Ni 7.992916248270327 3.491016735011398 8.142916102381088 -0.3940205310257988 -0.2677436274727195 0.690725835838191
Ni 5.42822014622852 4.5118420495919125 11.255018270949872 0.44774913089750634 0.5579615247885552 -0.38614987002847045
Ni 7.256083250390589 7.645249390373206 6.950090427761507 -1.1969881324802418 -0.9764268191202795 -1.9233867391296942
Ni 0.6167527281271599 0.11604715025025243 3.9955144569494427 1.6340635857139856 -1.2636568374523849 0.9728542712776728
Ni 1.555588448227455 3.121009062356815 7.969504840331402 -1.9863108894577401 1.261641606794569 -0.4621218546794105
Ni 2.627736013259449 8.9746428376413 0.14683682150677094 -0.11611590385967743 -0.14966494345971645 -0.18873491287798463
Ni 0.9531682403294242 9.156091826334274 9.159597927028198 -0.4542990162008822 -1.7658040834847977 -0.09486805022449468
Ni 5.771729717888352 5.30042958211152 0.33293148559455443 0.2382906123189251 -0.7425641606657212 -1.4094173036513729
Ni 5.801428561384378 3.8932341784690423 4.634493030635026 1.950542987829512 0.687080782886436 -1.2895704719943535
Ni 1.5460598010110151 1.9623678695030085 1.0975897889027617 0.3905132892034887 -0.8254686107704364 -1.740447864108196
Ni 6.082284518335342 7.5486384730358695 1.8689438983630615 -0.8421638120379302 -0.16662882500756465 0.42168534393091894
Ni 4.96938267162763 2.1834950281686845 9.772863869286871 -0.9406026103328187 -1.556181014303894 0.08514773761293723
Ni 3.5288737928713068 4.18856705696313 9.196307132404892 2.5624814810551544 -0.5509992345381091 0.12352068096418081
Ni 8.414917591498783 1.0222693277204575 5.967210467385765 0.49946738520740436 0.23037958500196457 1.6235259194074556
Ni 0.15803758075404903 2.127969503800301 2.8979568594224125 1.2914147242919436 -0.4883913298989008 -0.465491799592908
Ni 4.655847869541522 8.732094617810482 3.6221598009724056 0.7636058118273688 -0.12677904000047843 0.44808337430847345
Ni 7.421372168466493 1.6133949615047933 4.0945783571174985 -2.9890182395411036 -1.0899207119760779 -0.21171980380893213
Ni 3.7305573605953293 6.362091956191062 5.130483031844107 -0.07392461520360817 0.5651500721171945 -1.421097311092462
Ni 0.6011546269549979 7.025353864221088 2.5798738758222783 -0.9413598002138174 0.6337123945676247 -0.6792705428133978
Ni 4.693879680583971 0.607556111957548 12.901873868143284 1.187373235098297 -0.4584832294855588 -0.5538616436875687
Ni 7.9781450055776615 7.935477636429916 9.003107371816432 1.1542291442461605 -0.42093843846256546 1.1612271728305483
P 8.492673560193552 6.174140309600383 1.0510944053037796 -0.4019431283069852 0.1985503563065097 0.0897412705208906
P 8.157423375792758 4.052333154868629 12.464428022592582 -0.11513579933459525 0.48625551450282073 1.3663502972585695
P 7.4648121306317865 8.564009648813924 4.9274428275714115 0.15872551100008792 -0.7017622961580108 -0.6675527401558374
P 0.7556548353929826 9.18831999220918 1.5335364360979804 -0.20451120187563487 -0.7680443072146966 0.5423266464647758
P 0.6149628876365043 7.062364748776062 8.237806160747194 -1.0163599078697914 1.497586344589137 0.46236405259720365
P 6.962948582982147 5.237840350154115 6.342908655516034 1.3673741105373936 0.41587233679356767 -0.05176427705648504
P 4.736409086692867 2.3056291076929134 3.713778295810628 0.7999578680938417 -0.7712784978812782 -0.541799313206396
P 2.5748501817010245 6.983403902875353 12.242326844872638 1.911185569077812 0.3896637967189999 1.216873044329627
Ni 6.331022679842478 2.261563713084842 12.332693555071712 -0.41446465781276365 0.5813608775491019 0.35368892128628765
Ni 6.5920487493430135 2.948122979608345 1.8133208801138914 -1.329595606237039 1.520196625789485 1.393657983934587
Ni 7.807227195516757 8.498992267372794 0.47738614529721546 0.7878127480908755 -0.4988678039501924 -0.5528997939949317
Ni 4.263692530383863 2.053046376169879 1.405746791734573 -0.5465766799903814 -0.9379903695209523 -1.1518981821201386
Ni 2.646692134797173 8.145862073137291 2.6314720523514543 -0.4328027940003191 0.9382284536736875 -0.19279031389428086
Ni 0.8589551206072663 7.394690116753277 13.344973439025978 -0.9208971614840915 0.7765754846141593 0.6208617638572017
Ni 1.8557592306171482 5.490551847180075 8.685105326532424 -0.7334254315892466 -0.9415346352287849 -0.035412318061022886
Ni 4.620731677386727 4.1347246816686924 2.033175099807796 -1.3104077204546785 1.6036258380494188 0.8023325389736053
Ni 0.34016350809096996 1.6560439355806915 10.526291981232847 1.6634901185052189 2.1818985635915005 2.6976621148557673
Ni 8.064022398492618 1.953391074441961 0.5862684150632919 1.4870306805604776 -1.0674724102748907 -1.384200438066113
Ni 7.650170072092122 3.223313254430616 10.640230136495909 -0.5186344450541583 -0.672046771371449 -1.4294873349283703
Ni 1.1035939403534294 3.4114304566679117 12.668410974297405 -2.3578568935301067 -0.4940582983766911 -0.25152099496627006
Ni 6.644704642503358 0.8157046276819906 7.870158575810505 -1.2964116632859026 -0.796293531868377 -1.1382553945257234
Ni 0.35408121944996257 8.226496870576021 6.343742872024269 0.675977730994739 -0.856635523291544 -0.49061944789847123
Ni 3.753348854613029 1.9451684773266167 5.774010706797306 -0.6585543933119691 1.3352574325085067 0.05578291129757491
Ni 7.778457303148974 0.9177430109676108 9.65362241481049 -1.2471074177341361 0.04093041966577467 1.3968824044091557
Ni 2.4637715403564875 1.919562537316416 9.616966555142152 2.7609660171207353 -2.7659449583925655 0.6960112526068464
Ni 2.5733509833455424 5.808740602443325 2.883996839398173 -0.5392526355251422 -1.0332849657599041 -0.28289385285059665
Ni 0.5613808026086935 0.7937721835195178 12.858931492671433 -0.040832717745645807 -0.6235930467454357 -1.2026437881041223
Ni 8.102072604606915 6.506493270185367 12.327376459554507 -0.6655475368003506 -1.2671203705209533 0.4361678538178101
Ni 2.7928685732246574 1.3686209379805592 3.3160308548116606 -0.5979977147748347 0.29590749150144524 0.43630592205757124
Ni 3.7131004374130874 6.701287883502911 0.7408964692506089 0.23659085601899899 0.37312157608960256 -0.06941927113408689
Ni 6.383706165610591 0.7885930510411615 1.729267358572505 -2.3444187657473297 -0.6022600895956145 -0.4033027276586731
Ni 6.224395645884771 6.699779487611504 4.604123686770198 -0.7538014241424372 0.4575843718203732 0.4875742333142442
P 4.324322687189625 0.7714663193985629 7.7365928788873255 0.29783299065893226 -0.1545562101137467 -0.3023751015036599
P 5.985360884776616 3.8135283321585547 9.23786251945952 0.7668384598320536 1.2029507778215798 -1.3163937628347846
P 3.4791335185986183 0.41035910225686467 10.996247437257704 0.7261468956499623 -0.34118770349548333 -0.13292500499721624
P 6.536201311217318 6.563214474223768 10.872994017611623 -0.4356011826810627 0.7048039111978119 -0.33887551042253894
P 4.607845929558318 5.998163854781716 3.090792397588312 2.53731140954743 1.2136985032563872 0.2121995716588281
P 4.172223035627597 3.8762187370111145 12.896826260428629 0.6977076664726628 0.4971994151088341 1.1284993435802244
P 2.651778372162705 4.102468923186016 6.483823183641855 0.6971379100121219 0.4622324121153459 -0.3748971799327866
P 4.3666313524363645 -0.14061744771550022 1.458286795942285 0.3883800449105699 -1.2393989933462848 0.352222106932774
