# total energy = -340867.70277696755 ev
CRYSTAL
PRIMVEC
9.28209641509359 0.00000000000000 0.00000000000000

0.00000000000000 9.28209641509359 0.00000000000000

0.00000000000000 0.00000000000000 13.58528635217247

PRIMCOORD
 96 1
Ni 7.470797329745096 5.394661562772394 2.9398970200025913 0.746672783517456 -1.874471244375914 -1.0885441433435254
Ni 0.9021074493652114 7.078331732957226 3.9849858811487113 -1.342215866104211 -0.10559135017926977 1.0242318544187006
Ni -0.02466252993390501 1.9866192300202812 4.602790145774907 0.32026817973399685 -0.1619206208986179 0.16624341664368789
Ni 5.493710812649963 2.487444019299084 8.033495644912652 0.29771831945793886 -0.7786876458611558 -1.0130113031125327
Ni 3.241567935174173 5.964294532103902 0.6976832009650018 -0.3366597337181428 -0.7552600109658347 -0.000760275204792239
Ni 2.5389596538994503 8.626362629553741 3.5698329845247656 1.7628889667205316 0.4087573230153412 0.7449064356456526
Ni 2.222124577962712 3.955361142519787 11.067062939972828 0.45749386898909594 1.5194882868685509 -1.66332865322669
Ni 5.184097207653601 4.532224864887994 3.561124521753223 0.4245145858495979 0.09999020194240844 -0.5259985987287135
Ni 8.01300170443803 1.9118612262236419 10.442044630083316 -1.7765392105141147 0.1352269136575155 0.5819311482302751
Ni 8.180497132611654 7.505048265182096 2.57701996166798 1.7046082287017674 0.37583820368981724 -0.40841613762583856
Ni 3.2711871045453025 2.28981890645649 8.898865485235559 -0.9950243796168089 1.199023931963348 -0.12474915405464322
Ni 3.0519811177485017 6.047434268881466 6.639278366507608 0.3405037900545813 0.5071652680722943 0.5344081629486473
Ni 1.4279298522552295 6.866662808375829 8.30537845656 -0.7623053478483903 -0.041749830243276484 0.6511429313392464
Ni 8.102007726092609 7.813696532160722 7.485519662725211 0.5974593257728613 -0.1597197565925572 0.30511769724580357
Ni 5.535220347412637 5.527757541967826 7.584094597480604 -0.5059545355936448 -1.3717943510922763 -0.011776680919953913
Ni 3.5183878938564654 8.694047675951195 6.151227598190431 0.5295526346285591 0.2681076956803576 0.8488381387343122
Ni 6.211142601754738 2.5204511538286156 2.073576693016067 0.0438859027496728 -0.2017027858925623 0.08011968827072653
Ni 8.187523679529217 6.669306876326642 5.093640394343519 0.1535935890901613 0.0847924111560475 0.9624197062079104
Ni 3.387955876306133 8.349403439426583 1.2376756521038341 -0.055790367496742634 -2.4111720600134796 0.8292643303674426
Ni 7.876090783653273 5.6574841201975055 8.481172078847628 0.13556449950259233 -0.35233369280997384 -0.11670185827013449
Ni 6.128884664127991 7.207009434302248 6.235103405206519 -1.2483914266528822 0.5031304358812884 -1.3206008589375964
Ni 0.15705585443758108 2.372197511335454 7.246907597143007 -0.16574385129945002 0.43454060262703226 -0.6691882188767314
Ni 6.125505981065913 8.651934804927436 1.7930132648861488 -1.6468653654643444 -0.3797025717412299 -0.5930156881792109
Ni 5.479091510939049 8.066995658757008 8.22810500465945 -0.7931287609871502 -2.3670673563847813 0.6556536747254063
P 1.801654896564156 0.8585530687822748 5.103162896962712 0.822196624887384 -0.5203930796164778 0.39130056099147453
P 5.478376789522071 0.44413624239685384 6.775742818459161 -0.034991685583836515 1.363991824328722 -0.8223154098534354
P 6.124670592396718 6.101864481727691 9.68429884022245 -0.6174756209937882 2.3121244244899986 1.206160285897813
P 2.701387057479956 7.046921118995488 12.264524837960874 0.677205432754253 1.2390567795155176 1.3907932607922822
P 5.047798905226254 1.9617896223525375 12.871243494946851 1.5707439997197337 1.5547106004059548 -1.526978681708325
P 0.7084123761063644 5.762780220901389 6.565306556269644 -0.43125961788291534 1.671010338141664 0.523328250985402
P 0.9806256303828613 5.3115589543801285 9.743312552233657 -0.49552536984052076 -0.3070195422542067 0.7637461940599749
P 6.396357551811622 0.3561855950943585 10.653160341723778 0.976817369690479 0.564245558025054 0.5525930613877902
Ni 4.411752536693734 1.020715004407903 0.918669493836821 0.5449280886433648 0.6504615890015056 1.8353771065879296
Ni 3.7007068298601395 9.04510584103596 12.326989633385491 -0.38048752953637055 0.49753777228485924 0.14087434175127997
Ni 7.244824694727814 9.068580262640344 5.608223106794334 -0.19349016817478287 -0.5389890974511105 -0.5147754763193844
Ni 1.6466346058505137 2.8209033297528054 1.3699399554686014 -0.6740735719934907 -0.05125237041707303 -0.7923119215128097
Ni 1.755420774772368 8.14697948278428 10.376020150718295 1.2612705966083957 -0.01388241440904706 0.6943737170034234
Ni 0.8046779252962487 6.190248602928535 11.840188235233576 0.31987814338442977 -0.7955844216164943 -0.689713849633909
Ni 4.794509060726291 2.896069745787718 10.861328059571614 -1.1391007732451544 -0.778278326237879 0.4182819746763248
Ni 5.447179663775795 7.871691069995513 11.267337163106404 1.0486079692702197 -1.3840983652706098 -1.4154455121233236
Ni 2.1483226300874847 0.7921350285331001 7.4126895503351475 -1.2406817167134503 -0.27638896185254336 1.0224217977931553
Ni 9.162273742938739 9.212833321617694 10.047786660495206 -0.24609056797931814 2.4983838792442974 -2.7980559799944973
Ni 6.328598248643574 0.0037239770453453857 12.847632626526499 0.6601407639624824 1.852427891422629 0.6366141415954519
Ni 8.680263762909476 8.451887064944177 12.01611737612754 -1.7026842722061772 -0.6833837936508231 1.6088199806558485
Ni 6.264950914147229 7.163847686393834 3.6430436628641294 -2.928281840892996 0.7109012823448014 2.2169642969463816
Ni 8.205243201412479 3.119805395590822 1.0229789077014217 -0.03756047475227725 -1.7958376537324103 1.935961490470911
Ni 8.553897303549226 7.0864814135300405 10.056901679085756 0.045092778573580405 -0.8898140669260418 0.7302308359113487
Ni 2.9109210999067425 2.3383642702330514 12.592636732722115 0.4151933084486721 -2.2292400289899414 0.6359937344026337
Ni 6.2176957617597575 4.0647599297990515 9.553485328513185 -0.09124973674561705 -0.5716544488946156 0.9357193140985884
Ni 1.2818482203019752 0.3404116006006896 12.377377493282443 0.3310572999297008 0.416630812226147 -0.09810918286961169
Ni 0.8605756375713595 2.5140929178464084 9.618369038239937 0.3066055946452397 -0.3700010281827499 -0.4917517617307015
Ni 4.253130792606227 5.523385674599039 12.089328982676536 0.9883328265292461 -2.555588096369431 1.4548466396287654
Ni 0.4169007153618279 2.7050813318170635 12.008523693124557 0.1655710731670116 -1.2811529373546195 0.1295584025178285
Ni 8.819829363243008 4.431885403621336 13.067347272201877 0.3019606396740606 3.117112913029212 -0.621824127770471
Ni 5.063151492546796 0.029724985269227476 4.176633323958398 0.0859964587664777 0.5048803286928595 -0.19316003852887378
Ni 7.263518836725136 1.9616225446186981 6.060790277282631 0.403152318123738 0.5136159087936445 1.3044286200531083
P 8.921059905756808 9.038264936044884 4.390451982048522 1.2241996598980271 -1.18226856688188 -0.7704937971964537
P 3.2531519913870124 8.056033502997904 8.564517878163594 -0.10673163443130004 0.6350977049509255 -0.504273548346796
P 8.070123725218329 3.373828525700411 8.771652498690525 0.5956821792677806 -1.0058009014070226 -1.8087687599717817
P 2.124449078341153 4.203443730981767 13.151698322549773 -0.4642694971500327 1.2796187600982802 1.9267787955303783
P 6.352434672004606 5.344955936955285 5.27413447020982 0.09606952673176358 -0.8374273257942094 0.03111214802377222
P 8.537700045463165 6.685160696848701 13.232069209993771 -0.6175684378179107 -0.32204429779781313 1.2762763259886085
P 3.8644244448297354 7.2187976966342235 4.748193256486848 0.9066838460981869 -1.4849388310284557 -1.097493125006697
P -0.12899050799115458 0.394297882602305 7.849564408777431 0.301457474785397 -0.9737934952624906 0.3028440707202784
Ni 1.08219032836434 8.149383545732297 6.265289710663069 -0.6255545413471807 0.03296694184432387 -0.573073183619013
Ni 0.9480733185732245 7.455760333699583 0.8305062865284971 0.4037459858436789 0.6255280589846195 -0.6652711432105124
Ni 3.707770505163 6.740287066919255 10.42138175545559 -0.6213160777858009 1.8199440598623107 -3.0830403968255355
Ni 0.29082664203579667 5.25724940878612 1.7719698243091235 0.37996610981526174 0.048162418637839634 0.20142767785430474
Ni 8.299660685224175 8.972946824210151 0.8292689830884559 -0.26704197342000463 -0.3885175989296986 -0.9705068540914189
Ni 0.7731095156969973 0.3273925322960998 2.34511885172831 -0.21075718278534672 0.4224808432490208 0.11348129445030779
Ni 6.757681715431162 3.2626939864084856 12.256346382889452 0.30984004242213736 -0.7431334029056299 0.003190739023155795
Ni 7.523770253468391 3.682745973472444 4.470075660738408 -0.4448977774916403 -1.0333453866841946 -0.8372542905514547
Ni 6.952550045665413 0.4640723288823793 8.639521857512829 1.7516247066606219 1.0358619824584612 -1.0407154538960206
Ni 2.375167782159259 2.754183621373088 3.718170165884847 -0.26684091315279207 -0.3308330997340367 -1.0900646937531098
Ni 3.1226085886807873 4.890569475587406 4.625939694007936 -0.4699210390088553 0.27206899432095083 -0.6552461548743425
Ni 6.77431523204447 5.948060145632544 12.239704512389455 0.606616052571465 -0.5087416114204787 -1.1856284844930483
Ni 6.068978014450376 4.453159968396839 0.5397622551499875 0.17397446673935843 0.664236788408727 0.5154293078532994
Ni 1.6108149961346916 4.224040702725588 7.88348768621418 0.6813212546948395 0.15487888356048812 0.11020365214030053
Ni 0.496404655009128 4.751338030721552 4.840260513509211 0.5055634708028133 -1.5333537319967334 -2.01205508830138
Ni 3.8405044826017813 4.787705284120514 9.334314613682416 0.20462844417978954 -0.5569744782849375 0.5972675214770294
Ni 8.339044619928565 4.388565860075406 10.628733577036513 1.0936408411401424 1.0500459872683272 0.6415894833228564
Ni 2.5840242315543653 2.6722784034066676 5.963044233729007 0.25335033486552494 1.4149251208434792 1.498932059983754
Ni 7.614539873424604 0.5818983314145572 2.874225260297898 0.19258693963422316 1.6967617360741551 1.338702967854946
Ni 8.088650789481811 4.308025110268671 6.641194191188962 -0.08579591271989741 -0.10297705248487425 -0.029978548639961272
Ni 4.065623164757219 3.528468250464753 1.3752660223395363 -0.6144543176689612 -0.2467073756277106 0.07212921386608223
Ni 5.386716088318717 7.279948147219307 0.0018786962960565953 -1.216247494930486 -0.3248498855674083 -0.041237409383232206
Ni 5.121443057463966 2.58775563427677 5.388590143566611 -0.7435432367495388 0.0836698675158301 0.05739499297970115
Ni 4.63238796632449 0.5339423807545949 9.475058112039513 -1.2426532386175246 0.06637585632207278 0.9480804067671025
P 3.8985732772071673 3.8861445502288086 7.458688835089929 -0.21157505070095178 0.01774575401919524 -2.131397212407839
P 2.450770456721418 1.1697112146070159 10.587366986557235 -0.008093575641411868 -0.04692211847283532 0.49302445779553805
P 2.0853900170081183 6.5275971117421765 2.47246735687968 1.7139984116674156 -0.4329588599622092 -1.2703419627820445
P 2.214021307871519 0.669021015724917 0.7219985804963747 -0.6874669625812612 1.3314755968685712 0.07644378208103608
P 4.518227463630814 2.258111265412373 3.3097969124162367 -0.6681201826235332 -0.11163292838765934 0.12351656719912277
P 5.844991748046514 6.244780918834328 1.7466055678930945 -0.3258983814365806 -0.32257317371808963 0.38479978375847923
P 0.0693279774468711 3.3986766975608034 2.961184579712948 0.1006149800106009 0.08053877808601613 -0.5024483222125992
P 8.47925068490848 1.3793937705749926 13.245572803726496 -0.19472146947872268 0.7579876943096429 -0.855469785118217
