# total energy = -381169.47216141986 ev
CRYSTAL
PRIMVEC
9.27077741495511 0.00000000000000 0.00000000000000
0.00000000000000 9.27077741495511 0.00000000000000
0.00000000000000 0.00000000000000 13.56871985132713
PRIMCOORD
 96 1
Ni 2.9816859123063275 3.679552938612895 6.776394883128218 0.74472928663784 -0.22633395417768118 -2.1483700928167515
Ni 2.5789355373682827 0.9114916917215343 0.2238809262577707 0.6704462596535485 1.1851255767147009 -1.9342103121077592
Ni 0.6879732528532183 7.8633527212111325 8.250093390961217 0.6174910476127559 1.251363879017645 1.3869651452954435
Ni 5.3264787001077 7.308793369231666 3.8627833608992934 -0.7823833495451881 0.37253742145135843 1.3786268006330773
Ni 6.865900528914119 8.863206044809138 7.147282523825429 -1.1056494355652444 -0.6413663115684567 -0.12036182362022496
Ni 2.768745430250485 8.356724943512834 6.342453905298073 -0.07806871927896877 -0.4775255908289905 0.4434322486897073
Ni 6.548274430445957 4.01787141184481 12.511702806799677 0.8625315770610049 -1.6814996677087621 -1.4381424395002071
Ni 3.148068551143725 3.084341228506612 1.3094611268452119 0.05958043066679416 -2.06924490724881 0.4720385995724903
Ni 2.32143969997436 1.490703894494805 5.8803028794533105 -0.19642636798497137 0.2546168602827744 0.7458212341504381
Ni 6.193509598418838 7.7235123175657705 11.769005083071479 1.238168206262977 -0.5742458637708756 -0.31041262709615575
Ni 3.951307231377182 0.6310247225222232 2.095729649370313 1.848221052430133 -0.09204806427719632 0.38847800394101484
Ni 2.6648200175705257 3.54751852939006 4.244634622741493 -0.019378918747244043 -0.5169202905765292 0.9325026069335037
Ni 3.0203265117755578 0.03372523338511656 9.516339716854924 -1.0424314081458625 -0.4698161379998748 0.563027883567869
Ni 0.6326498897695735 5.736330490399255 13.516765380119793 -2.0651792218198692 0.31955187039326255 -0.23433034211959647
Ni 3.9702010753594976 5.960497883673244 7.1600372591300765 -0.04064811253866548 -0.6410513514311992 1.6908391999421333
Ni 7.072796464219975 7.749832054104432 2.194129678824826 -1.1045258634837622 -0.8585851908187471 -0.08417843172113244
Ni 6.6215691951781395 4.061017609044858 9.604075571268782 2.037346258768001 -2.584308604232575 0.7229564137371226
Ni 8.733619120773412 5.455305420411065 7.068882342076043 1.6617808491235961 0.13539866334868939 0.4824682795462465
Ni 4.689659741820537 7.223122116905573 1.7128604561889298 0.23225391920654193 -1.1645562372037814 0.45658009892557494
Ni 5.081683827510525 4.264891270975721 0.6931537631659357 0.4458935657460063 2.4311500457973034 0.047664395955498554
Ni 8.829719997476396 2.5602734628165646 11.661907210425499 -0.7794569199270125 0.6506035138960086 -0.2712984347035134
Ni 2.6625301355962216 5.249076981065329 0.7278042201179977 1.4475249091563716 0.7250616330055836 -1.0084139135498376
Ni 3.8270788165768734 7.619920652865871 11.25308169517263 1.2938379890214555 0.39839243484124937 -0.5217112842072693
Ni 4.7264369150677625 5.065515592032037 9.533762288491808 -2.542041210922932 1.2111623670980949 -0.3328334179935171
P 3.23186710647059 8.58074400435124 3.8140042394580025 0.6014877302059641 -0.7467905400422429 0.7606467291990449
Ni 2.9282027985016272 3.9347867063641857 10.755652580757747 -1.9244097810775698 2.1831869433856204 -2.1237456093998524
P 7.62027294240038 7.030178701321691 7.969098914537866 -0.07330060846636409 0.29945047165769717 0.9709318574439793
Ni 0.3212342849637049 6.480301091840296 10.056429239743323 -0.30268029144890457 -0.07789568403621423 -0.23504176636432422
P 6.24291357024502 1.5943419130808234 6.093915492857886 0.4399581740981777 0.3325426262259757 0.2378147011237711
P 4.874834246090788 6.617721822630219 13.20966439503393 1.566044023140903 1.7531339442162972 2.0754453796325674
P 8.638380426352251 7.344198467449754 4.023002787038241 -0.24979167097998914 -0.7452188246797489 -0.2660901510296966
Ni 4.019679213403472 4.864395350936673 2.657284729842937 0.7730325044579074 -0.540303959607792 1.5169588355784778
Ni 5.265912712503938 0.00023455066376476134 10.040893271271505 0.4899563603931755 0.057377252367888286 0.7453072706284971
Ni 0.826573226506022 3.054322451855612 7.626787517555616 -1.3122905392996882 -0.9410476682900373 -2.0439293113021573
Ni 1.028472212888195 3.2661226283129134 13.616752566635038 0.056683054514341094 0.32888934574410456 0.5182202403348752
Ni 6.3581307895836945 5.389195508027408 3.0841428338740204 0.29101571062678266 -0.9880587469322532 -1.5854422251618567
Ni 9.330388321453311 1.0091519131535798 13.419938601560176 -0.13434631082477508 -1.0215342529818794 0.43940075893281094
Ni 7.4586647538332915 8.953114042326554 4.828211507431777 0.0741272181327175 -0.08835210348284783 0.35789756005099654
Ni 1.581019806210074 6.216723624587492 6.660897686317383 1.491626013240644 -0.4391981560037017 0.8480025302068944
Ni 1.152913855564653 5.977815695527496 4.361379666166666 -1.6353185411670097 -0.6524140847421861 0.4720645677144193
Ni 4.045757909734312 3.166369065383711 12.312351429998632 1.1091769891025285 -2.936809418748033 3.0711364462990978
Ni 0.9201552330372723 8.768384535363051 4.750232218968356 1.4979033616089235 0.5712968084448805 -1.5817609196555276
Ni 6.397364718795254 0.9171774593929544 3.356698121790452 -0.8144938569264877 1.1119902901816074 -1.3002107253170188
Ni 8.684039004179976 8.717766091720536 11.334358599094594 -0.0645197769499405 0.21241168766963417 2.399388180004674
Ni 5.970742092505658 7.010515382829791 6.235396824071879 -0.8576742489687036 -0.5974662677513968 -0.7389910986024821
Ni 1.890348559062842 8.882007181019214 1.8568115224553707 -1.1543309599313474 -1.8276018335178847 1.0153700331526965
Ni 5.446479640493909 8.715096107880052 0.17038112505406774 0.6966619988169679 1.9585478604118591 0.4473884051239778
Ni 4.386801991470054 0.692354622169235 7.692893721628384 -0.07816616408878152 0.7333315863238596 -0.3975912790961927
Ni 0.23098883115533758 2.1139226225945014 2.097791470224909 0.17373818235883626 0.3878843362210739 0.2156260808418738
Ni 6.775973989842254 1.1998239883176054 12.420236391630922 -0.030734452969379326 -0.5006585773020281 0.0613398365600621
Ni 7.423509966600249 8.576127157293737 9.667414448340212 0.06869319160133977 -0.06763903930521255 -2.560562666765887
Ni 4.61877537916657 2.269792200059993 9.916210588387225 1.3118038294712568 1.193619473118325 -0.18396371674158637
Ni 8.824945547206086 9.119190745515564 2.6087355236767986 1.0917868186505393 1.5224005754193395 0.6756491440107267
Ni 5.385997089885161 2.0851461300915046 0.7137293261366673 0.6383177545501201 -2.0149972016488396 -0.12817746300990182
Ni 0.36715522578686666 0.9463794805705285 9.771635598813615 0.15142872022835854 0.4484309874558793 -0.6183688222320189
Ni 4.934881070170012 3.497233833727607 7.875081181477093 0.567228551912778 -1.165969058390908 -0.5889482029780566
P 0.8848947589438774 4.422828231762144 11.683074248983115 -1.086390587335632 -1.0640093914269546 -0.6096982910412144
Ni 2.539256610849975 6.804110798716801 9.299579674582835 0.9034306292682118 -1.134573317688446 -0.3942177346382695
P 7.328447416946341 1.614199917894425 10.38414101675337 0.5267668443533057 0.0740544559132531 -0.32631027216301867
Ni 4.567776833657876 1.9433774047835706 4.727694959537047 -0.2871878522402602 0.9249615613614521 -0.33296531558569104
P 9.250307347793232 3.940914690109186 5.3070249011810615 0.5107406441283785 0.36327142276840013 0.27947865652146064
P 5.140859198530702 2.8950041452628286 2.712400427516766 -0.38827848633569906 0.22298843474421595 0.6264755104995533
P 1.0382714244138609 8.226155317091376 -0.01776929870505605 -1.0753906366807027 -0.36092786223688805 -0.9772158906804783
Ni 6.592996659774068 6.355562784292673 9.854567336470046 0.4936106693163112 0.30279264865705274 -0.24097844356373338
Ni 8.13280786122389 7.793664288819049 -0.09570037912691219 0.09510587726691362 0.7732970709732038 0.3177307580241238
Ni 0.14005270444378945 6.829661060745879 1.9579529207349917 0.24935098389814478 -0.6640552685255402 0.6102868165548329
Ni 4.99819120783205 7.514947642359611 8.422932199057342 -0.09890545351866192 0.687336607650984 0.5515754187565532
Ni 2.6596283823251397 6.628132905452662 2.776919474528801 -0.49109895863805103 1.4198865786138126 0.08441111655722881
Ni 1.5648979246177057 8.233247461667663 11.242389707800301 0.39229403525299533 1.0308318762337214 0.2363604851757478
Ni 9.10780623108461 3.917487436064382 9.516109801579772 0.3310069063077396 0.6252758337644974 0.8513097402032566
Ni 8.775856781805517 0.7654398673361568 7.251041989593081 1.6840358038670549 1.6772699458981308 0.033463421864768174
Ni 4.745645965475692 5.2123368909269985 11.928925990183817 -0.532730003915276 -0.3146914569771677 -3.307773839285316
Ni 7.806708272373081 2.8474914119903225 0.5511273102511771 0.1298741339860344 0.45318264320825175 0.40711541653654404
Ni 5.3328848071694175 4.493656969752767 5.5974496121965664 -0.18809856484556636 -0.9881119687676918 -0.6558693902806382
Ni 6.639498878329169 1.3570100161488912 8.375006916198373 -0.3346699569816236 2.6123333715802755 1.0055057387641069
Ni 2.4694940122401006 2.4292866514200306 9.119047975546314 -0.13590079979608852 -0.7683857497145155 -0.802135849581767
Ni 2.182378041615806 1.1857045946056002 3.514814008577295 0.14523853225724664 1.2342873831513324 0.028112956186132226
Ni 6.534460972382341 5.184394768374154 7.459552894291342 -1.550316327993001 0.4997404363631329 1.703381812493834
Ni 3.477134788706184 5.678805317724933 5.0845382998177655 -0.568234367469473 0.7902540105425164 -2.117916404312585
Ni 3.1610476392571907 7.721852848442691 13.594229213369566 -1.8068288626365914 0.6467645997658926 0.05519412867364042
Ni 7.3795201286728265 5.610081046164136 5.052720065307606 1.7758018181274577 0.576810024953626 0.04140761641250933
Ni 1.4635868711148872 4.258077249716153 2.462031036574858 -1.7866426174967036 0.7551782498853059 -0.30018529294119267
Ni 7.386074568170127 3.275958922947476 4.3156395054993695 -0.9038877714102885 -0.2592425319802439 -0.3847861569117244
Ni 4.980521106443289 8.988815805415806 5.572510294386544 -0.5669881537671977 0.3766632706942739 -1.0216388968805439
Ni 8.145119453377236 5.54425852787442 11.481850175182842 -0.4357353942660818 -0.512433201339453 1.4241402116838442
Ni 7.816655816334329 3.3915655149295536 6.919978826616593 -0.9498632096991382 -2.657343103521746 -0.38562099410819395
Ni 1.8713249241993917 2.0119718854632334 11.807011561378594 0.55875882387887 -0.750391884240256 -1.2682328868588417
Ni 0.2330552873985457 1.9309545633035397 4.476836071557717 -0.3466050178563127 0.11968999436418097 0.8624575292899598
P 1.7288330782679933 0.5799362504744575 7.833778014789158 -0.13884111337133506 0.5971759902044876 -0.19154332886105724
Ni 8.981964701047342 7.942803282019986 6.329142923359993 -1.3184352187448456 -2.2812753003196264 -0.6167783378164475
P 4.02801364212776 1.0919770368719346 11.541267513488565 -0.9351145906350541 -0.9706642056048896 0.9730815567971307
Ni 7.210523130658288 5.684163826960349 0.3739877886008836 0.11401376991501008 -0.02102391054983476 1.1298095777512156
P 8.458249224891803 4.613926762678468 2.1635324056750544 -0.3237751644459908 -0.4638133834492206 -0.8944662209860724
P 7.296110945989366 0.7107997605339138 1.3468418276897136 -0.3982001163247852 -0.008047810005140979 -1.4168817303492178
P 2.113403459069963 4.563549359243776 8.394980805727274 -0.04921142872764428 2.0602200780423807 1.4828585514606591
Ni 2.1445069166561592 6.089268979313265 11.775043140277408 0.9250705761354907 -0.2852770083707925 -0.24184439110845443
