# total energy = -340876.63541032915 ev
CRYSTAL
PRIMVEC
9.16287022768423 0.00000000000000 0.00000000000000
0.00000000000000 9.16287022768423 0.00000000000000
0.00000000000000 0.00000000000000 13.41078677533259
PRIMCOORD
 96 1
Ni 7.237521983478453 5.820685712851701 10.009985636487826 0.3632048311965229 1.4493604197032137 0.3674749193267865
Ni 2.6861411705227107 9.30086287646734 2.8856929034080268 0.14006907224116522 -1.1973300892006928 -0.4738429997710807
Ni -0.21802224633908487 3.0947135462065902 2.333262551597785 2.786433051043588 -0.14832848403648002 -1.6705035737085745
Ni 6.173721933141547 3.595097879826161 7.57383596592073 0.09116823277540428 0.33540966336112554 0.5329403201538692
Ni 1.3169334984338543 7.305446339184769 12.349738248944478 -0.21788839451348926 -2.019175501396245 -0.5504302494085166
Ni 6.630994963159577 1.290040474826943 7.3889145876497775 -0.04899108518672208 -1.146206273941684 -0.8367940630855847
Ni 4.064896553207275 8.436126178041897 4.885964845531926 0.1892797296378611 -1.376072923862972 -0.8284338640463474
Ni 8.895671599833188 8.49221210563914 13.55602551004775 -0.435677801555269 0.26642619421287667 -1.9860859179311279
Ni 1.2642011812761795 0.9999806604145435 8.898499261531684 -0.7201323140247662 0.1315075558243993 0.9636358380031985
Ni -0.13216890279916013 0.711357584026527 6.445062920321727 0.39019627218370223 0.5021822130354061 1.538475626604331
Ni 8.572002378064688 6.344453690847708 5.748547353207798 -0.27900917308420986 0.5380015367268606 -0.2706790559519596
Ni 0.8407849561056913 4.489201576772948 4.774186077462735 1.4166228202608762 -0.08006235267022986 -0.3403976034940202
Ni 6.839230347994559 3.525670813431078 2.8088090933634358 -1.917656778624452 0.49802268234107777 1.1843886985486765
Ni 4.560525357269098 1.8995545907832483 6.300843927115259 0.7329184100458409 0.8181849326248297 0.8050527661182457
Ni 0.6848292426477434 6.66199295255044 3.8903484601238465 -0.0039677263984963925 0.6156187702907076 -1.0090597746639525
Ni 2.286090263988551 4.794948224716876 2.971307096039556 0.9749921435562823 1.217683456046064 -0.35651456366054085
Ni 1.383813286954075 7.228899722758146 1.601422287853749 0.39670836227060713 2.398845420127327 1.4450489368120532
Ni 8.582374746965208 1.5365308421351296 11.061471705759887 -0.9638525819996948 -1.17962932948682 -1.1955765968446959
Ni 6.512491564758151 7.389607300625819 3.8411575922418346 0.4212186887071455 0.5471664910555802 0.06067134973812776
Ni 4.580866928787784 7.3924203017322325 2.0267856229105976 -1.7707102625371631 1.251690409119128 2.533270149598521
Ni 4.505483996857951 4.593575829551937 6.092318995586588 -1.2155404415611324 0.1809221017017852 1.4614931984110056
Ni 7.173134495612775 3.6125897987582203 10.245733454945334 1.442513057764077 -0.48839364389174594 -0.3386448824689716
Ni 8.866918513605423 8.198285560064178 10.591959830211447 -0.3705818403868844 0.03182357226850003 -0.5843158464123678
Ni 7.017860499686805 5.8223533552014315 7.557032178529686 -0.9114650695369141 -0.29283605166497306 -0.7960976138074871
P 6.74850877159523 2.624172680351146 5.629419047068725 0.3687450442884617 -0.22650467542759056 0.04878951069887726
P 1.9583160764361014 8.870162169604349 0.3680752389085925 0.36030565527185693 1.2768118867771043 -0.022264210714839076
P 1.9241568968767941 3.861645769681376 1.1135874210594 -0.3366206529500912 -0.6469875144099761 -1.1745511436329643
P 1.2297304641350546 2.5528947142052636 11.034596091606078 1.0001856121027743 0.898718311394207 0.30904557154530005
P 7.991507071567698 7.682681699285808 1.7596027461606774 0.6886812946043365 -0.06218007307317033 2.7821668195680664
P 1.9067016294249488 7.753767245160567 9.882288214274757 -0.7122115165157927 -0.3157435523907659 0.7143946402100406
P 4.710961357806841 3.8615083266305743 3.6583684138323225 -0.03179117636866783 -1.8054093565812455 0.6149127453626185
P 5.193633863613069 6.742552906060479 10.211978357955385 -0.42556256749813803 -0.27963652225556357 0.7148602669925496
Ni 4.8768276315146135 4.195293356938095 1.5135815177992282 0.45176853646954457 1.462823744296971 -0.2143533847770373
Ni 1.7329094731209314 4.526118780218348 12.303551886152997 -1.8320323584854126 -1.4542316317525859 0.93860949116219
Ni 6.738979386739628 7.102717839251918 11.966605665677031 -0.23285812844944412 -0.14670894615518604 0.277311987887445
Ni 3.96362851337641 1.5714413770388203 4.2066956324326235 2.625182716739118 -1.3979720379289085 -0.8209637809215473
Ni 6.239996972238238 8.48604549409316 0.746146252758507 0.9294363093033541 0.10906413921921862 -0.7013000118096114
Ni 5.375287762422957 9.03195096613833 10.975629357664026 0.3847259930977503 -0.8185232898008549 0.9354310934342084
Ni 2.9717569929591807 3.766498527046225 10.541213106994357 1.6803015336356029 -0.7731363770256233 -0.2903899041173257
Ni 1.5217786213490554 2.512330688478586 6.806255927533164 -0.7865212829729615 1.0970398395193621 0.5727656796809233
Ni 3.4411250114477823 2.517049566556119 2.2988504768250024 -1.6298834861943672 0.40179117611015314 -1.379869414790927
Ni 1.633858847843005 0.47561434700404626 11.529883120614906 0.4514720882750483 -0.5103806896857985 -0.6735374969843627
Ni 8.828810137053074 7.03343737877769 8.245179296423787 1.5899413985837907 0.629385999278129 0.6859703234310767
Ni 2.0968678345145033 0.7453637436559414 5.5248551228796305 0.47858951331713057 -1.3620100180120027 -0.8795203983095174
Ni 5.2283428153755835 4.65805494611815 11.39045172701137 -1.006795661220124 0.0004658838928250041 -1.2243148453196526
Ni 3.659613647872588 3.407130763549437 8.153328854433873 0.162878613936513 -0.05772743661845542 -0.0048164475520368665
Ni 8.74779204004036 2.2356028499939744 4.5093498117335065 -0.6233608761299716 -0.09954514398518985 1.1186265645512026
Ni 6.7163745863177375 4.880428639445624 13.052852915070911 0.4015271238154891 -0.5641316581550091 0.9379142648673783
Ni 4.084990727234517 0.4090680869537717 0.7996180135294964 -0.6595838630177479 0.8084113981778335 0.5103840321199081
Ni 7.416372044051982 8.224088202134729 6.653131540921737 -0.35410158334367403 -0.37282255679194504 0.26085229966952495
Ni 6.431528444965759 1.3830710944797444 9.726199639201033 1.0364980733805633 -0.6895678109743479 -0.2904210144655772
Ni 8.505113426674415 2.503543496097316 8.218398059831529 -0.5226193978438355 -0.35613044084824474 0.6002173481339727
Ni 1.2321494618291688 3.604773870602617 9.033572794137793 0.5009609390337953 0.10541163006829589 -0.15452947064086936
Ni 3.2146463523363566 5.940526890280933 11.15565593075242 0.4235257395737673 2.1276470013367876 -0.11612644538263872
Ni 3.6740176795966306 3.212978709986627 13.229418672140111 -0.019034648033947863 -1.0772940243510025 -1.3291693173328978
Ni 8.815432346775019 4.1184260400596004 6.483847516684023 -2.40767407416255 -0.6499597096644225 2.3057761136744674
P 5.221882991987893 3.081390733148856 9.700987085961925 -1.5210672013198965 1.359613492755368 -0.02528525692935
P 5.769648526653917 7.020792618103912 6.029516684240158 -1.1641268629758468 -0.7545496151623715 -0.7539564616630628
P 8.652919683506813 5.498904042314216 12.31819598507244 0.4339950145362074 1.0620198718007516 -0.2112058402869911
P 1.1029346683352448 7.960060101544215 5.7295307326988425 -1.9336037888720121 -0.31320253113646707 -0.4644283913254001
P 8.173105993157264 0.23740354907616812 8.636694073216141 0.9636656627998694 0.1836577554653934 -0.10919886502486999
P 8.640696414855494 4.752817348211057 8.687614890964248 -0.6097774810185821 0.2717283231520804 -0.13687859032832556
P 2.3332240675435605 4.53432871178625 6.825004075949554 -0.10529464487445736 0.7143519598975632 -0.06853558297755294
P 5.327375114913402 0.20283204036445526 2.9592111912819803 -0.3691481932641513 0.0462510605477397 -0.7150068198727427
Ni 2.4722339691246358 5.859389675957526 8.774771194625774 -0.4976817540618913 -0.2244979294102069 -0.6793877851175525
Ni 6.710198811901704 5.967786428689983 1.792445221293302 0.5975734827532225 -0.3897568706534384 1.2158811127300029
Ni 6.417051110281288 4.83290999534837 5.006903734793562 2.840412076363205 -0.18411798293126355 -0.19726840427029255
Ni 6.248481789907744 2.427335905862671 12.104280537091316 -0.7080748686395999 -0.5056084651081357 0.25889466172252185
Ni 4.6453093938737835 6.315581487309248 8.078751338781737 0.6309633710675779 0.0099671385150409 -0.7956096184274749
Ni 0.7519949127136318 5.653875663528422 10.523162252989037 -0.8674043317722738 0.656282823668973 -1.1538475925370257
Ni 6.23635014995696 0.4385065558615351 4.946072356795632 0.13529196256749604 1.158288659027515 0.5330380220739981
Ni 6.484444019524502 8.066981632198067 8.921794026068602 -0.07141804673167054 -0.23174741188376866 -0.00023577015988991655
Ni 8.080790077368633 1.5049830805410591 0.23304477179173616 -0.9973196034088888 -1.6706095031588197 1.345416889540012
Ni 3.6720568254051895 1.4615510764876485 9.851643911667956 -0.157288007222613 0.4939685668763622 0.6533486807413136
Ni 2.7204744446130333 5.845049784323857 0.44141301824249324 2.6794682175555593 -0.09284484914687881 0.3906333597211208
Ni 4.741592832395565 8.787018286739231 7.122508722280391 0.5703881805876821 -0.2602583748392679 -0.7186361890952139
Ni 2.031893922965403 8.29412001795334 7.618520534310449 0.45577225831229895 -1.1170530494164954 0.034251979204334565
Ni 8.636728892122346 3.304350850159752 12.555098325156683 0.45086736481151385 2.445957028903149 -0.3127903832997129
Ni 1.4003431045305208 1.9301127624115446 0.05817597825643684 0.3601693868043087 0.403176486493454 0.5480972303999657
Ni 2.701094974449961 6.38892109921716 5.5931698168502235 -0.4074185495992596 -0.28880199080491553 0.5780091874680497
Ni 0.20691226639926197 5.44802262490734 1.262011255333402 -1.5376315334364807 -1.734559523648219 -0.5695852250704126
Ni 2.8618025523176343 3.329732000207842 4.8798770346684055 -0.44373075376673254 1.1387696151579807 0.19925560990365038
Ni 7.3831932915883955 1.13838581257209 2.743471415873213 -0.7661715156720159 -0.6304782039010433 -0.6074213220815796
Ni 3.5037349025230893 8.232279807962524 12.216971927017834 0.5685572980265305 -0.3636874272598962 0.20549182062134932
Ni 8.465025870190518 8.864123838239117 4.452367755445036 1.0158693413866182 -0.9746818114047149 -0.9235291997902998
Ni 0.48590425007408433 0.498702030677755 2.1183410204847917 -0.4666912192176479 0.5118495609218411 0.14283635057365723
Ni 4.644686318710148 5.879034869352148 4.007344566401478 -1.3400098595918277 1.7069515321229636 -0.42178201740978327
Ni 3.9843549254373416 8.472942589916709 9.19747912994113 -1.3835041833300368 -1.4129294305696891 0.8206423930263868
P 7.261336282747402 0.04756629102153296 12.051710402733589 0.4960249351847586 0.41363059194724244 0.7176208604568222
P 8.322964732881639 4.89272521105737 3.6153065897290713 -0.5117680569516283 0.5607977086857697 -0.3629868016484458
P 2.7537356629071015 7.058296245232733 3.4465585933894847 0.8384825065316011 0.36263790294945936 -0.5539729724544523
P 5.026603905408506 6.2800478772419215 0.4411527927329749 0.3830331787763597 -1.127301209507065 -3.1185822984858875
P 4.2319540000219975 1.229556369604039 12.184182596531517 -0.5191543221133704 0.7410819196932398 0.012521529505778435
P 6.582221005864998 2.9361958942816937 0.7888653855217584 0.16440867742779428 0.2050274793904211 -0.25296749760480947
P 1.5788816275222317 1.9176329333987292 3.7184896694011096 -0.08232569478310983 -0.24616461575036314 -0.7256146772955762
P 3.0357046630622935 1.0987289109807057 7.521345548532467 0.43174144261534025 -0.028937508969956616 1.515797211170209
