# total energy = -381167.30674520734 ev
CRYSTAL
PRIMVEC
9.27036167071640 0.00000000000000 0.00000000000000

0.00000000000000 9.27036167071640 0.00000000000000

0.00000000000000 0.00000000000000 13.56811136760658

PRIMCOORD
 96 1
Ni 1.2999086750953022 0.73938366395085 1.6861091673994182 -0.8357913328526831 0.21726464488656128 1.2796185029879639
Ni 8.155786218201095 4.04025544011218 0.7294004113071126 2.2033184240281734 0.5868314137453701 -1.2976843593507392
Ni 5.055573277701594 0.5529094089094905 5.94737837662115 -1.1113408295230667 -0.23052330966868043 1.2156800524627902
Ni 4.812040872695578 0.514621887557555 2.259402247878274 0.3063096606713757 0.690345826790953 1.690006676738509
Ni 1.7531181237414428 7.497015766562819 1.7253209438247874 -0.9921632560189299 1.1091533349534446 -1.0665154456782602
Ni 7.031903173340061 6.596205438171514 4.922918108205054 1.3783936015763487 -0.04580163171514693 0.043391993832389786
Ni 2.7090500235132495 1.1109972419315186 5.929020279109409 0.4974616676312852 -0.9603062594093335 -0.22636609296719723
Ni 7.640687834046003 5.825634422986509 7.003126116179053 0.5380107926982411 0.6082021661116622 1.3778135607031625
Ni 8.70422082346017 7.522453639396336 8.963121634291042 -0.8340434969236409 0.29010759699021654 -0.9862355776805852
Ni 7.02697134085193 3.7945352297166917 2.6097857702554297 -0.3881033942104155 -0.8275082669082845 1.838435176687963
Ni 2.993631590657318 5.103269289264439 0.1681736337729021 -0.82829091071058 0.3020290310181508 0.7282066063924685
Ni 6.044767235682825 8.895922635531713 0.5595553312981015 0.6539963416276414 -0.7249821859178999 -0.7591989410089247
Ni 1.5851855193758555 4.693380241402201 11.564603941464483 0.18005384016421894 -0.05707411930517267 0.3379954218104308
Ni 4.466451054415437 6.965341975473933 1.043709247698718 -0.1500423814037932 0.13456434037285211 -0.8187292351640738
Ni 0.6819435750792178 8.760519730791787 10.543887972187402 0.3733673735518215 1.128633040944611 0.44301058777125635
Ni 1.1887941183232384 5.050001790247896 4.852323375911133 -1.3365463265232596 -0.9438699682301809 -1.5458392660582538
Ni 4.950873811308829 5.9382229672879205 6.56244741560473 -0.16104773137536135 -0.0642104732396378 -0.14601937628732917
Ni 1.958373204793525 7.85656674974357 12.820495084567034 0.01913363550565737 -0.48476941687559744 -0.6841232429200089
Ni 4.535385464907433 8.175050030062629 10.478476299186928 -0.4188105934862852 -0.9694601579944594 -0.20089314550707335
Ni 0.5306670297952563 5.679413006002882 13.630524467801814 0.11155656662376917 0.4677456286240912 -1.3929583867644009
Ni 2.5770956933702864 7.006344785802886 10.481122060450296 -0.5898401186647068 0.08654024708508967 1.1543191328568054
Ni 8.702672673036265 8.657294251928368 2.553640750930023 -0.262174103804742 -0.3216971988710395 -0.8349454399126202
Ni 3.943936380804509 3.018281482736153 6.04793121017192 0.9846198964540335 -0.6674948903347084 0.7814302416032993
Ni 0.1427246365052007 0.5613259704056824 4.663102312662567 0.4460192926905932 -1.0655034594739776 -0.24900697029516472
P 4.841020023744257 9.039539080843976 8.342475545636674 0.8162558339229168 0.29509116624773696 -0.2039609857991197
Ni 0.3601090589623029 2.646428729420534 11.827580930387517 -1.6055533940894349 0.08612012882853555 -2.0773024874459645
P 6.653894899776097 2.548098001597968 0.6605772451569542 -1.537620220582571 -0.1933839816142218 1.1594749660261323
Ni 2.701893304188368 0.4449180370345159 8.359584925411287 2.0692089118045525 -1.167190589502835 0.9420614542665323
P 1.6970417050935025 2.103704667042452 7.384716457550185 -1.6112622715487543 2.16373809063239 0.7543251578563912
P 8.30340745981951 4.345889998949002 5.4876361040005985 0.23874852579195013 -0.371952752592482 -0.560236436865661
P 9.02445620216317 4.277382025100717 10.347475889275223 -0.8930104623761523 0.09988427249216346 -0.06453186113479853
Ni 4.745692893151304 4.226228168579088 12.571167776387464 0.8108189791780618 -2.5283161480273555 -0.0262375935402903
Ni 4.802065963377477 3.797418312242648 2.0029654992191035 0.5274237612110142 1.0795241992331022 0.9816299605877739
Ni 9.42934852500454 6.624544934254627 11.442802511586558 -1.0368690835667371 -0.011877982384508576 -0.23810575000162862
Ni 6.971599469702294 7.793722966967179 10.87098805381796 0.19543392216471506 0.13699531841184795 -0.186756191885059
Ni 8.649321740763344 1.6383788554978393 0.946912764757328 0.24255452980160166 0.13800936149865908 -1.1647896933708264
Ni 2.643109939889047 1.3952543464118943 3.4973431893891562 0.3214848257499173 1.1709693398189769 0.5071644967413459
Ni 3.1864087646999564 9.381976976105387 0.7155847910870721 1.1727937946222253 -1.0513755047130278 -1.5734418582668708
Ni 2.273222503279224 4.397349777410685 6.653734522516616 0.3359799340422988 0.5199667907123368 -1.1626081123384753
Ni 2.95690241712729 0.7289155713839375 11.149988863146513 0.8019229622400125 -0.2772353690132387 0.6629576645859874
Ni 6.246990908419834 3.9575730830414275 6.397215267637249 -0.18534208514635178 -0.6777263382547296 -1.409641503847037
Ni 3.3984404802423085 8.06554851624721 6.688984146300205 0.7104716510065505 0.40293634545818985 1.3962954215574341
Ni 6.406774864745822 7.974671159327759 7.151996075534596 -0.4147739615230663 -0.3534680635247332 -0.18744987551797393
Ni 5.380592163103608 2.3602619304052803 8.117530216079347 0.14381311266462973 -1.011454243038058 -0.7181844462697761
Ni 1.5033467652307047 1.780604746537135 9.701810021105407 -1.1910139171746779 1.011154452409452 0.27994711151744694
Ni 2.7932990717315467 6.554692757942472 5.170210571965179 0.7222488461471367 -1.753046012488181 1.3055779031662031
Ni 4.022270938181777 2.7654601751867025 10.068963628014574 -2.7974785102244724 -2.982948893418573 0.9174323428639426
Ni 4.3978040251398545 4.525493988845712 4.444573927556903 0.9878692566292665 1.176346287860174 -0.052893762675237946
Ni 0.29766390174416335 3.155955626121929 3.0851986624961616 0.3031073516839941 -0.032860241063130506 -1.8856977092193528
Ni 8.254098405300022 1.9080629511974974 6.702429879083636 1.0879299067982942 2.1307282113652724 0.5038500876561323
Ni 7.8023536738214085 2.274436920677618 4.499361765911892 1.1218813240430743 2.9611752491869066 -0.8605785670996922
Ni 7.208586999263535 5.787162421434359 9.725201925085296 2.602525641461234 -1.326135929823213 1.159772442661893
Ni 6.183943177683408 6.283210212049773 2.6739357470122296 0.030952482517456366 -0.26287190120271503 -0.2696706692921033
Ni -0.008368355614728996 4.039903166363027 7.545701852768018 1.1888166524130428 -0.40563626088785626 -0.4894344264514345
Ni 3.7014237155986702 4.890041697047333 10.721236483053355 0.32696873168262397 1.9039869944468435 -0.873727188666508
Ni 2.1431222455002206 8.620259156458285 4.688094281092554 -0.20049231052422892 -0.5083921985008599 -0.8071574711660744
P 2.8892473165664256 3.7500004115343963 3.2408517455952484 -1.5526866279973905 -0.2882044664302327 -0.8755688698609372
Ni 7.2852250804277805 6.946921766538 13.090541651413846 1.151222496209353 0.17762543322838442 1.3804088322341646
P 1.6753583287970018 7.668675056379964 8.65680755793283 -0.06884437246722336 1.4431337220672114 -0.6582096083780407
Ni 1.4212484409545996 1.0142332052564977 12.943489610011165 0.08771832655359087 -1.2638944073844878 -0.3316877344248481
P 4.255503971206001 8.160282343683695 12.713130389151075 -0.12491139066412038 0.3918680034591703 -0.07502633290821917
P 8.451751789659872 8.092191536117301 6.218198091643733 0.5058604332179416 -0.9164717787228862 0.0750427879684514
P 4.615286713432247 4.327061894092999 8.762286661754638 0.6069538955268579 0.7202577838590369 -1.0035167333585362
Ni 6.999994587956327 1.2029499608220655 2.4633038561046665 0.01346975235166067 0.08097123763774441 1.0143310503652208
Ni 5.458166550811653 6.57285339674745 8.920477042883803 -1.6048607388977845 0.7418542790828901 -0.5174543087031283
Ni 7.233589165091522 2.37881192440669 12.20147687144822 0.8165990761949485 -0.7739141357319124 -0.06403409556277359
Ni 1.3172627924219584 5.4379108102354 2.1492295598671016 1.313751697226247 -3.0319764882701845 1.1172301984243083
Ni 5.5820834772568535 2.2473489234401764 4.449458481199753 -0.9182296419542573 0.15895819583618429 -0.8465724826285872
Ni 3.315461471593323 2.4373913407459753 1.3098696788706718 -1.6519371235602969 -0.747340499008442 -0.9040029568319141
Ni 1.190768705390855 3.1132563395799533 0.20752817377029603 0.5974402996094679 1.8800502811255881 2.161059772469278
Ni 1.0280738554534516 5.680812830637671 9.129547804860914 -1.943215600930163 -0.5034520808867652 0.7697756880835066
Ni 8.529205662664259 9.024261524564956 12.747715327992186 0.4147505644842986 -0.19689173765716414 0.5015016420286138
Ni 0.513398199797342 0.15670897731036154 7.4859886711781725 -0.14106537471616348 -0.6628954438894842 -0.25470453490057426
Ni 7.216021829443011 3.8713401773936935 8.485320696845532 -0.35959860190250326 -0.2761889300265953 0.0532154076807148
Ni 6.085649531308121 5.074327219663039 0.612140531684707 0.020599678528222587 0.9796011030832034 -0.26405615131880333
Ni 0.19630547375125215 7.1647289174940845 4.294999420703056 0.9532894617718679 2.3043663778111347 1.3685161945616366
Ni 7.221250313509375 0.3733183975193288 5.430487104490109 -1.2265216231629845 -2.0166025984627463 -0.7371499316286853
Ni 8.66535019634977 5.467594508782384 3.310578772022837 -2.6530933271064563 -1.6754485764186757 -0.6781963359126126
Ni 3.1694440025697315 5.899899291524887 8.254065959033651 0.6782654985876513 1.2556244540662118 -0.5122519385665822
Ni 5.052736546984736 1.5113748985666473 13.063730837994816 -0.9227750952330945 0.521182922507625 -0.2261938290553911
Ni 8.29849416805502 2.1211144065400274 9.71924571761608 0.7301835276131812 1.0873694063091337 0.5421821504671114
Ni 5.6659246295550805 0.7749327204212181 10.468964907959819 0.2180074365898568 1.5571050687800603 -0.7388136924843534
Ni 2.2273898344421577 3.8353619031710693 8.748297685768568 0.5427405940737428 -1.9681527304914748 1.8454398901405702
Ni 5.326777712739697 6.35348882500564 11.973777317394232 -0.9153692896873268 0.8446942917692678 -0.2819016641406564
Ni 1.1249862179175893 2.605564974518877 5.08333337617097 0.10467989410859391 0.9583007989435302 1.5875970667213304
Ni 7.175185885626814 4.891599117833058 11.980058914563324 1.2163796496329762 -0.8825417016343446 -0.39021529834709573
Ni 5.00822026952608 7.362818008859466 4.5780031722653955 -1.2235486565775895 1.5412717012922295 0.2311030934315504
Ni 6.0801151253017025 3.1850923733215453 10.414909428188592 1.3409909925581742 1.375692914815734 0.2621129115495034
P 8.523244820014131 6.715895079626887 1.4102834569941458 -0.2422537107317312 0.14847426558572493 0.4734426790088685
Ni 7.516057089740678 0.6008668446756542 8.283590207357335 -1.7054744333568046 -1.611564376170205 0.7721171917324896
P 3.0178086942833438 2.8419035787527323 12.561086257908435 0.04226662197869495 -0.28996592920602965 -0.38968899352998043
Ni 0.9807115769161188 6.785710174491765 6.670327543137867 -0.46460348345068375 0.162982486504229 0.7824463415726395
P 6.609638192448397 8.357453669228917 3.356398462353356 -0.1587941594544943 0.7301501032720845 -0.04603328810997879
P 3.1553808636891016 8.597871232663481 2.7924118981053927 0.332993083499833 -0.25426693314252335 0.7698101408658679
P 7.70551547425183 0.5057501512960111 10.97710403149679 1.053063176828096 0.3356256360266736 -0.334484837554011
Ni 3.4544983581666093 6.385286166047536 3.129131834196352 0.06671575615999477 -0.6563566143297018 -2.0170443139858554
