# total energy = -340861.5285766907 ev
CRYSTAL
PRIMVEC
9.33854137423473 0.00000000000000 0.00000000000000

0.00000000000000 9.33854137423473 0.00000000000000

0.00000000000000 0.00000000000000 13.66789925542251

PRIMCOORD
 96 1
Ni 4.377114498153833 0.31138152756385423 8.126057991773855 0.7662288512725127 1.441659194404214 -0.3330961847366005
Ni 3.538298681361813 0.30646198388032075 5.632691680669287 -0.7147515093288271 0.08627002414283852 0.5481093145848237
Ni 4.202810620300466 4.797292836226934 4.141742161750542 -2.474865227297067 -1.2716557964974617 0.7634379187909367
Ni 3.414563005950234 2.9579456787861154 0.06283250904692284 0.8230743995066471 1.3525419306205675 1.5722264978025309
Ni 8.32925064788275 7.50436793506915 7.910378771771164 0.45467208326958475 0.6236861206798743 1.231315702117518
Ni 2.58959624626277 1.3199187998753206 12.303665756164829 0.43656380370464815 0.1501951049315736 -0.05333187865392105
Ni 7.305176844010359 0.6647061806026947 8.705057839680336 1.5097921426267094 0.5125650989316269 0.3233481042109012
Ni 1.056076985731672 7.673143396330544 6.2017824021471455 1.1580757716857604 -1.642339452569533 2.20252035360691
Ni 6.9387418125028155 0.35737104308833756 11.333395025523854 0.469928495208023 1.0832834091652184 0.903792897703637
Ni 6.067157053445193 8.063989375424946 8.750954903643567 0.8626750446174046 -1.2673042043969853 -0.3530500021507081
Ni 6.709872836428326 0.5317029365663268 3.632148222281341 0.8781443438975973 0.24847783726457207 0.28125297481306405
Ni 1.8559604228413622 5.751729135831842 2.4322436890137116 0.8832942635296529 -1.0164488680391721 -1.1405076808950099
Ni 8.279775054801199 8.189387311230734 5.393244004737723 -2.497543385620873 -1.2613225328922535 -1.943789214045446
Ni 5.280515668239927 2.4848364872614797 5.292880831093698 0.38093644414833105 -0.6550656634324202 0.7316845376387399
Ni 1.0726062042583508 3.750096803500274 6.6116827414007755 -0.339151389791745 -0.5807479265554515 1.591225150392221
Ni 0.45731958548796386 1.9056788180029656 8.38711505283013 -0.2676423260081649 -0.47757341334779047 0.0994898652672222
Ni 5.108266269525468 6.582784624603709 12.139117852658817 -0.9039319943846625 -2.2358279666201044 1.0623556578736155
Ni 4.08836679372168 8.203591232913828 9.946636548426584 -1.9362409693845428 -3.1768059580144703 -0.07514280388142543
Ni 3.534899452241072 7.840928972188645 2.898360180632823 0.7999542685494159 -1.4908068597734583 -0.39116712073740373
Ni 1.0768645792008174 8.970733743382537 4.464386904266389 -1.1856590806206675 1.6503643797565384 -0.4406582854889959
Ni 8.602617774397704 6.405828600952841 1.7781797103505665 0.8108020098971972 -1.0402817087927116 -0.4672854011582211
Ni 3.78763774049307 5.61271560646001 0.45034649651967507 -0.08356830894095929 0.20135388719357583 -0.07230584865326257
Ni 1.2175683845914786 7.954644392527272 1.7741071723847561 -0.589760671577023 2.0932898640131565 1.6733158463463893
Ni 5.823878707773718 2.2943395783768907 9.662138814249511 1.3345231254456438 -0.8713568886621187 0.12026180770725095
P 2.1983954025898296 8.630203826108332 13.52664209016241 -0.7254894645716216 1.5821303871798043 -0.8725007724585748
P 8.832766130663241 4.828604966012219 3.6749841123275986 -0.8437962054350306 -0.15209232195428646 -1.5653457115222977
P 3.5173056399787765 4.984708026403158 11.81159372218806 0.5954140132080583 -0.2440473122970442 0.9256138502334704
P 1.501665495336464 2.6554983339140534 10.341897789961333 -0.8196178084166142 0.5054099759440843 1.1519416337635644
P 6.028234012304404 2.7196821299218863 0.5093530050974565 -0.8799788260031748 -1.5197273994625504 -0.5155072122790865
P 5.607476684655793 2.032598936079854 7.529085186818537 0.5478185228172824 -0.5509390707241351 -0.15574585954647371
P 4.824832195229858 7.757040853530365 0.6596801775455995 -0.10990540417359136 -1.44808952341059 1.955218281817994
P 8.377960480557979 8.301020236805828 3.2166307502911016 1.539223046293317 1.2016523707251305 -0.7782125059969501
Ni 2.262140287145259 5.645176376854776 7.1029199097638225 2.1272860184529425 1.5276913915046333 -0.7628748471986152
Ni 9.065258460855445 0.1544585432256586 6.817479916745314 1.2668653170873536 3.05537661236168 1.852994048338744
Ni 5.830210238938174 5.536681201237288 9.604624604609903 -0.23909176806398177 1.1428746384652897 2.0310352289483085
Ni 5.186934143462611 7.669398641172805 4.762415251281488 0.2034724761984754 0.10570833537310828 -0.13219841124383683
Ni 2.560870892484203 4.381821123090243 9.102151303065328 0.4969322774903764 -0.8106099484910492 -0.11712737584332732
Ni 2.393384149955397 0.41751125060913524 2.993940153299805 1.065323739363004 2.3818591699819756 -0.890140597027525
Ni 4.076628247005276 3.2847012472880888 10.449656154651276 -1.4958022561055206 1.8021826221138315 1.207621700934688
Ni 2.8373664304152237 1.7482216690886538 8.986903428059907 0.22932697536773405 -0.2087221546331889 -0.24817650397406932
Ni 6.59407492132617 7.765893790910756 2.00065271932397 -1.0306644974179218 -0.7516931195501828 -0.18206444283634451
Ni 5.142846888849927 4.194284531873992 7.941432223955776 -1.671712249304695 -1.4424289826907029 -1.0167255187393265
Ni 8.329353371839694 6.113952485104621 10.375261597323064 -0.30273017085023346 0.2816252705508182 -0.20859462791638914
Ni 8.391772183496373 2.709250979021152 3.3299240685520974 1.48930250731379 -0.843224906312593 -2.2044535660738807
Ni 5.187989398656687 2.3955787072174135 2.6007417955913525 -0.27682142140427163 0.6042544943178239 -1.1480366422822035
Ni 1.3392309037810675 4.970886984923225 11.56346680574876 -0.8096203308842701 0.0918367195973386 -1.5141563331326762
Ni 8.143880598303893 5.664077584932742 5.645170773729852 1.7168243111519852 -1.1586085042607788 1.1458113524961107
Ni 1.1516289427740325 3.292340174268215 12.942134370455346 0.02204849515960719 -2.960797297022198 0.22616169026587502
Ni 4.340890295518247 7.6365830061994995 7.06460947694809 -0.635416521742925 -1.4378107671924014 -0.8213504748370047
Ni 0.30523583337605353 2.016835477959496 5.24314282499486 0.9204011956842794 -0.8326602434228692 0.004630042572843639
Ni 8.696516809587397 1.9236274948438001 10.596913748495057 0.08549997874603339 0.5264230878606417 0.12285990745173032
Ni 3.6657697733895906 0.5493060873701628 0.8141163082715608 -0.12858215464748823 0.008023384525108762 0.9358255006591496
Ni 7.2877791411204145 6.4677151157417105 3.8389987851116474 -1.2869577169618547 0.0171464298722995 -1.146704039513709
Ni 7.796795024868259 3.9237469834458074 1.1432653449703638 4.345520440361 -0.337319993009961 1.69561579539517
Ni 6.305075076272423 0.3723622038232966 0.9090818049051782 -0.18375494316489 1.6083358419305784 -1.377354618788873
Ni 6.630084337506324 3.9743432015122173 3.873414112250839 -0.24216500767266683 1.0162274960569853 -1.2952775496814597
P 3.8969827233907437 6.1541549064364585 8.654637186194886 -0.420391821930476 0.1642238151104978 0.351242259518008
P 5.283765480696021 6.01444098644909 3.013894748863538 1.9994278864556727 1.9383672716989262 -1.7396749904979134
P 1.9124212449952043 1.6585623317583464 6.776859128752463 0.47786034846058995 -1.0869616293477538 -0.2331669179391146
P 0.36983239291997616 8.451837682684847 9.415091433212291 -1.1378288485112662 -0.1597945756945506 -0.5270944028960535
P 4.4008437322082345 0.6352216033968849 10.745292901177853 -0.41413607082875126 3.6697918492625896 -0.11075541087871248
P 3.4129194226391064 3.8974216348431474 6.162186052161285 0.02326385562394703 -0.0777928399097628 -0.4252923445558869
P 0.17652271532338976 5.861008748938732 7.276338493879151 0.300965622750643 -1.7567885102497487 1.031410888665643
P 8.141489931669527 8.506178655908997 13.2694390451999 -1.7210977417163584 0.4510105752575975 0.8474556565644888
Ni 5.110516858036728 2.127571903546704 12.162134555993681 0.11751278420720405 -2.3232184775206313 1.237523630700443
Ni 9.538853256540184 4.198860417228835 9.166773076671412 -1.4630188910269126 0.5639617082360481 -0.035995958478634786
Ni 2.410669790346856 6.878657636231261 11.491327506202579 2.4525552509459567 2.0155597590205288 0.5588372425252892
Ni 2.2157277356889913 8.458150536766222 8.116626998672109 -0.04491023024912911 1.621465437334001 -0.12666385457885282
Ni 0.26635574952635027 0.6578769051741296 13.030537673948455 1.2288512997374257 0.2114107572089456 -0.31516402573821206
Ni 7.832804441048413 2.947393126845354 7.142201550899768 -0.18088147827183687 -0.2364846694584379 1.1297319304357445
Ni 1.7122776226992824 9.230401229457584 10.775252810148073 0.44226856739890924 -0.037623466779728755 -0.508984323558904
Ni 3.1059615622029852 2.6259885426460845 4.136370632656448 -0.8229072778011634 -0.6637557350072504 0.49039679036470385
Ni 0.2141589054398989 7.644277964428869 11.923902758170689 -0.22715465030676363 -0.07147769632501239 -0.5926223093955342
Ni 1.6297342540228337 6.639637665502252 13.724484695822753 -0.7025662801165449 -2.4010542548531872 -0.6720303163112168
Ni 0.6723236289372777 6.74172660162296 4.159005389642304 -1.847708888680405 3.279454937735965 -1.7250112178381518
Ni 7.242309782359737 5.2647428715780284 7.695478386132949 0.8513223386087467 0.2783602266463012 1.5846914630387612
Ni 1.1411324220825145 3.077600411544497 1.7727951072983161 -0.2170011068125295 -0.039783707655841154 -0.01561250972627634
Ni 6.126232667230375 4.074592444949448 12.16041252893361 -0.3722972804160943 1.8957311821959546 0.09049254686461834
Ni 1.309581034389991 4.881442434048348 4.6685442317164165 2.677355799198247 -3.785679953382177 0.5379871385491574
Ni 5.938275841644801 4.715954139409209 1.1704871935609111 -3.5467884742544595 2.697730249089541 0.5517852207745142
Ni 7.473233237573135 6.401943767671995 12.96449457431991 0.6942801288483528 -0.24970759590661512 0.21100966511578495
Ni 4.753709862857437 8.851209750205722 12.648903232229598 -0.033488361565432646 1.6004160728628696 -2.4123743078516973
Ni 8.544065118938791 0.7625171308437013 1.5982008008030388 0.4723167929345414 -0.668827493103203 0.707237460339969
Ni 7.960238178910029 2.417160076717501 13.194976316518442 -0.33260536114311107 -2.442040724567878 -0.596192800355612
Ni 6.478463777054822 0.14242863401319097 6.548550465170403 -0.5306317266253506 0.33312163865789723 -1.0224482801557166
Ni 8.437904578706426 4.122387100553709 11.882666560290318 0.9147928483585664 1.2597654728177787 -0.11352166076993996
Ni 5.849830514714758 4.982709578513493 5.705747091140591 -0.44549504475600693 1.3415646056734574 1.877217182552167
Ni 1.6372424414213929 6.581972171489686 9.371627993174513 -0.8376289002820543 -0.47691598226944953 -0.27982884077202774
P 3.093121067584802 3.8807243225687396 2.362592176933918 -0.09374344970174824 -0.05083790858747374 -1.3226328017659608
P 7.555253647923315 2.354236983817636 5.1987492662196475 -1.5166647013768269 -1.0479459102061888 -0.6119973714880363
P 0.2372764650233981 4.8699466894119965 0.26785645315190804 -0.28755294888916283 0.640998900926709 0.47097827662877595
P 7.296604062876184 3.932954785404737 10.105211520763294 0.5236504102115112 0.1489208662048403 -0.6458690845348167
P 2.9303969812416506 7.049524930797726 5.099657068079285 -0.06639771069894371 0.6121830051362811 0.20828172466166064
P 4.59993209931008 0.7446851857721232 3.810938335490763 -1.5845024869564068 -0.8144295793474554 -0.1267096202151237
P 6.066279230540386 7.877806872732066 10.92173156962738 1.350227680665094 -0.8928605670618494 -0.9442430352988835
P 6.582252327735901 7.2403580271777725 6.64775192424679 -1.223953348215176 -0.6561936063892764 -0.9191773505795073
