# total energy = -340859.8189146946 ev
CRYSTAL
PRIMVEC
9.29793101853611 0.00000000000000 0.00000000000000

0.00000000000000 9.29793101853611 0.00000000000000

0.00000000000000 0.00000000000000 13.60846189489778

PRIMCOORD
 96 1
Ni 1.7184807795518904 6.533683933003571 0.2927769671624992 -1.02226341783842 0.8998994761865018 1.55010652597504
Ni 3.2039554109002446 3.021827540548654 4.14911147151598 -0.10742480384358273 0.4895624673888666 1.5157182783031573
Ni 6.914648055523264 4.410836138871801 8.8333207255676 1.7543135663466949 0.5142933944766432 -0.5027895076021018
Ni 5.492148310119943 3.319342733294733 7.326537096196386 -0.6101708598022588 -1.0847761916606609 -0.005097469127565414
Ni 0.7919382467928456 4.429292531696383 10.101247948616777 -0.02179472727758827 -0.5439343572715277 0.25015136831225304
Ni 2.833070245469644 2.3160680960398983 6.759241508767928 1.4264629462797498 -0.888495091004302 -0.2359755910325033
Ni 8.660232303631151 8.285562880326696 1.5181466307167664 0.8395299739595089 -0.6868390991892752 1.0807521581029322
Ni 2.475936719831263 6.603567181602845 11.813710177500981 0.3384695332333719 1.4619657671720498 -2.3676093449311804
Ni 3.7701994023445926 1.0492064158711745 2.816148941035661 -0.4417543467666521 -1.563614330653488 1.1099346932041594
Ni 2.0622066888411292 8.812430134434969 6.846322210348736 -0.7307322010277996 0.5555642282009722 -2.43779017682164
Ni 3.937246028786122 6.1211068454442925 0.9550946189483273 1.334477874030005 1.4023429133030945 0.42787450346076633
Ni 0.41539529041324835 7.027357573820281 10.439024111926948 1.8312147476801235 0.3104715053585491 -0.7305938756777224
Ni 8.346203985617336 3.285832990352772 1.0532101049141291 -1.534154630631474 -0.7845811285274552 1.0906341931033345
Ni 8.484166684222446 2.6357681518990517 8.854930976551424 -0.17353403676783016 0.7434388499611906 -1.0154502515713284
Ni 3.413344814633031 7.299759055221678 9.230483703290812 -1.432989691654674 -2.5639498380705645 0.4412082444551949
Ni 3.1466708586623358 4.465414993219556 10.880441521533221 -0.9216304401056902 -0.349534789908598 -0.5433759136648965
Ni 7.94661610751697 2.8069151658648335 6.398426932288613 -1.3222741328749614 0.5596857065685135 0.6389679865396092
Ni 7.492467970930636 6.4674175795220625 5.268706013633971 0.8631409285102296 1.1625916572782429 0.20538229162667854
Ni 0.42044127750941995 1.4460607022887058 0.9367851334318706 0.4325621387444228 0.2828861395411128 1.020197536448327
Ni 8.165461506968951 8.594058929458583 11.074021653366946 -1.2342110213874422 0.31836659183590976 2.229316133643515
Ni 7.833516076122405 4.366289751958667 4.5289096335015655 1.9985022893176099 -2.730879482148 1.2443391109603796
Ni 5.294279042764818 7.430041662908348 4.856193081797862 0.8367071597987332 -1.4295780948699637 -0.2575965117363886
Ni 4.922538467691969 0.4339158389609987 7.025885711359762 1.1948903694109487 0.09530539487222942 -0.43130821173266365
Ni 6.028796987528702 8.68423956119945 0.459765946432486 -0.14579260498850374 0.06186562715654506 -0.08939005782905896
P 6.357079033603014 3.8271492290703173 10.914735080049546 0.659028247624594 -0.11466143080133802 1.498190553832039
P 0.2177324371239692 1.5470083380048187 7.337900097541938 1.6806391194806798 -0.5613175857449816 -0.329208162536104
P 6.978292392492665 4.866174410612566 6.6862322958020926 0.19880643818137375 -0.40967263574075896 -0.5057208223162838
P 8.986905807660802 4.9706366642066095 0.1555729797183387 -0.9675009773855596 2.1619609441273093 0.5325204590076313
P 1.6122612170188817 2.6164284556395403 11.857324911738539 -0.1200887724644964 0.4704740832988478 -0.02890202774633087
P 6.371435038903344 7.951748565370456 6.566164394995567 -0.1753273812228271 -0.3511304165304921 1.6994259131698795
P 0.5388625147546193 6.922709361608358 5.330665565525381 0.18399765530331536 -0.5579085600634327 0.9303559929041462
P 4.617808080572149 4.627180394913297 4.993366386070072 -0.29956334308647764 0.25623279861964254 -0.48506895039388714
Ni 2.511389730330069 1.4578411807313985 13.722772506173284 1.0686517752949725 0.5212016915607024 -0.6017867495036217
Ni 7.416355108632386 7.012304223702903 8.96657495196799 -0.03749722561450961 -0.8305061731943438 0.7322072429114292
Ni 4.640299775404725 2.481943183188784 1.3841978488785938 0.13136897336400602 0.777078649502823 -1.5470407425655226
Ni 1.3026122244561378 4.901571633526008 4.051960180983885 -0.6724512058987193 1.60200861416097 1.7901107785509622
Ni 2.157166457061509 4.901813379729253 2.0081466590372585 -0.8768593065375867 0.20778961551659056 0.4384844177661287
Ni 7.943268852395131 9.242338565180656 8.999643043192487 -3.391488443996152 1.9439365382565876 -0.814075024221514
Ni 6.021488813846021 4.406122087908545 0.8447979137183015 -0.18399791241363153 -0.47687792994266265 -0.6873651468960743
Ni 0.7080281396468905 9.03539451727299 8.641658756877305 2.4275630997769935 0.4835759107881285 1.0535699412611854
Ni 1.1609954390096868 4.919553831874996 12.35900035188262 -1.1837500365234128 -1.376082694054985 -1.2735712683526195
Ni 4.351933746658338 4.397753950103949 2.4806730858286645 -0.9074973431384177 -0.1305665320673687 0.7798333294298248
Ni 8.758641604213205 7.197630582282027 13.054773818611226 -0.1971604179375185 -1.014373730677698 -0.9824138899416499
Ni 6.610382564948144 2.2235257898519576 13.320289252392529 -0.6785282653307346 -0.4328822410880029 -0.2748424433010299
Ni 6.97681402148052 6.3770881808868936 1.105283166885953 0.97909459576043 1.644878931161935 1.4294238286802865
Ni 0.07870326584531732 4.9193957670497985 6.279801140563746 -0.14734940795266238 1.4149829706646082 0.9294735902991927
Ni 3.4557619753714404 6.29247700975153 3.931647744594847 -0.4738602261622613 -1.362956441085672 -1.3236450450805592
Ni 8.00434696043779 5.658841615187501 10.82878407707236 -1.4998959665589202 -1.5756051844667769 1.280958047734994
Ni 9.156462875443712 8.992521757920777 5.0492832126734735 -0.15733351574856774 0.0578531635630423 -0.32127579506290477
Ni 1.4538709642396623 8.841514062271388 12.637035449612691 1.114900521849867 -1.1933587632577707 -1.1824907101950153
Ni 6.054115253353053 0.09621870806342674 3.692519838690704 -0.005649227865977368 0.2422609098205828 -0.5775772421369537
Ni -0.049727194007268646 1.436558216915042 10.476732800460637 3.312878507501733 -1.9976522826124887 2.506161209196871
Ni 2.5625841378324106 3.743049444134124 0.1443215535435143 1.1119825768721237 0.15848845528861735 -0.45517884770267414
Ni 1.0875231890853314 0.2650319413748155 3.0344011324966043 0.1739263871102424 -0.05486271347615067 -0.0322604026956025
Ni 1.9263081308944858 1.9735230239741968 9.750762443567602 1.2456735135010868 1.4868905554381877 -1.1896522609404607
Ni 4.757872111559302 2.338745749490354 9.71616949167649 0.2251602455845542 -0.07613216437788824 0.04701853484138354
P 5.857584888046662 7.776231523884496 10.815406214102078 0.5603135699604995 -0.1901143097240145 0.0464624052275974
P 3.7340583449596303 3.90564236167743 8.850167646554432 -1.3123273060748948 1.281214386720174 -2.0115151566375102
P 6.462619847180761 1.5806854437028717 8.555299574733873 -0.16558032913839224 0.040095068248672885 -0.8281052770623352
P 4.644920847059041 1.279990358591046 13.264766658059033 0.5821134394444103 -2.693907790019657 -1.0661022694002413
P 2.0849494278078433 2.3646125932374504 2.4247283654325806 -0.5938916630262611 0.07007721643305996 -1.464709134245142
P 3.445534251388045 7.3119579405546 7.039289608536546 0.3282542832632669 -0.6825466424615083 -0.666801978032742
P 8.97058793894184 5.505165413371537 8.662983561382685 -0.155910410148796 -0.41569724466828406 -0.018922547936115797
P 6.231408199639766 2.2692437160577352 2.8299749642750323 0.2189939688728422 0.12363766615801933 -0.8883554801026442
Ni 4.506112036742577 3.156480175755502 12.236932466140797 1.2047538924685897 0.5298619383388616 -0.08342998359088212
Ni 2.7611414520736917 5.187501604378169 6.035447797497177 -0.22696875954820264 -0.014405633902368738 0.2896023752190238
Ni 1.3597108180761663 6.56146615051483 7.866139726250167 -0.2048719276491633 0.37258987195584864 -0.8332891352561198
Ni 8.428230331964167 7.990781279263451 7.0931525222054645 1.3004176991215022 -0.656744850907056 -0.865767053279167
Ni 4.720513025227227 5.681891185873717 7.597032501764513 0.28787845054938166 -0.679512740731191 -0.5397501439868511
Ni 8.493641275803428 5.141374569213055 2.4384186388809 0.8029945980376364 1.6132219663782863 -0.2765314009676786
Ni 3.3585800016673955 0.513582370446934 8.417745055295008 -1.4868481322360263 -0.47433202359235727 3.186027990833371
Ni 7.019584503592901 0.6120837205448367 6.1666202171704025 1.0962517964004281 0.9766888145324145 -0.5005462200938798
Ni 5.327026355373471 7.91175816459538 8.64832723291448 1.988162340844182 1.2249403947187938 -1.120014960258297
Ni 5.719817445990326 2.6613374618575403 4.906476292072591 0.11551812237467847 -0.37264875021824206 0.04292996659430671
Ni 5.236492402258634 5.406681729342334 9.932584411992782 -1.1546086390727666 1.7203094414871083 1.3940135675017928
Ni 0.15688305818130271 3.173262941019164 3.1547544797815763 0.24275250474502064 -2.5152875969781716 1.4141067387072421e-05
Ni 2.5762056065921146 8.759961910400152 1.2409864682838225 -0.013775199407221436 -1.2361496331710518 -0.20050490892971917
Ni 3.8973579052508796 8.33862617193873 12.45743103770573 1.5753326475316805 -0.08257432045880618 0.8246553708405217
Ni 3.4371103259980846 8.5133528892987 4.343344318098464 -1.501808867310917 1.1002398345138986 -0.19017935863399504
Ni 7.288396983669215 1.8701951179492207 10.773982072383147 -2.8103893047488695 1.2685465614445184 -0.36066355283190793
Ni 8.486230824880913 3.1038910786190614 12.327061959261746 1.7759072333570707 1.0116686730417093 -0.8015977176901098
Ni 0.813199825368146 2.8105599547752798 5.572065885740017 0.9192197737816685 -0.6767598605764023 -1.0305099741179284
Ni 3.3586729809763356 1.012023990226085 11.343415254124135 -1.804572976722879 0.2208305078609487 -0.11585442266817467
Ni 5.573793441300121 0.6445083949514685 11.111853074588437 -0.1809429276373916 -2.5592277500045473 1.2407503651678569
Ni 6.259571632317679 5.105354384929716 3.375266068449761 -1.4205640642968116 1.8130954123715934 -0.7295950020995629
Ni 7.553490291387931 1.019025332189264 1.5621834910169095 -1.1738111801431461 0.21055226586339226 0.9878610290991503
Ni 6.213147063363958 6.5047301761996685 12.607124005926705 -1.045835034510773 -0.00826455400163738 -1.3800023408243653
Ni 1.3417565135198601 3.620205181162651 7.931691998639017 0.19509582209900594 0.5436654198808571 0.007657773655573909
P 1.44130016167098 7.200949943611184 2.3774939466979927 -0.1269872993565426 0.05296498223280556 0.7241249801239271
P 8.203555129841652 1.6705871375169177 4.470420069419794 0.7151220052943683 0.12722178396485187 -0.17674765860912142
P 4.538096919017923 8.303461397297637 2.0544419867515535 0.11853016972812488 -0.32618325966685113 0.8186521020692353
P 4.155561446177145 5.543519378309271 12.568394404580856 0.8319783868644962 -0.8720999374757303 -0.32007431855563584
P 4.175254463810628 1.0309266837335787 5.167772324814199 -0.9747579160582891 1.5278513141212655 -0.7872908141491344
P 7.370702267942867 7.497302894995514 3.279435084104614 -0.2642281581202934 -0.2761153964761825 -0.9488301404489335
P 8.904423862700165 0.2570571060470353 13.057672913463973 -2.7973147309530986 -0.4424554865987348 -0.30309681016103285
P 2.208351566632956 8.414190456314234 10.348092207369847 -1.133011886738597 2.2006316212246295 1.7227710156537233
