# total energy = -381172.7038366612 ev
CRYSTAL
PRIMVEC
9.20034877201065 0.00000000000000 0.00000000000000

0.00000000000000 9.20034877201065 0.00000000000000

0.00000000000000 0.00000000000000 13.46564041334375

PRIMCOORD
 96 1
Ni 3.7550762385596945 6.9459319050043025 11.526386128062574 -0.43783572843853624 1.317872918483472 -0.7650803394903662
Ni 0.5746353666171615 9.223073360861795 12.360339757398064 -0.26327427884745624 -0.8850523838713402 -0.4599942668134465
Ni 0.5119156708573573 3.7629609372242516 5.017970355734991 -1.5602472139534678 -0.7368781660245374 -0.7271933346366057
Ni 7.303586252595894 5.367722523999873 1.8819579666992794 -0.5487670027734807 0.7596262583543304 -1.4058298434104304
Ni 8.428043645925538 5.756152037324187 3.9877015301747796 0.7258247364238531 0.8884719510758504 -0.7105246157316731
Ni 1.1908839095001245 9.137822931660176 2.6513978323174516 -0.5988914302336975 0.838534442815459 -1.1718021201329174
Ni 6.180297303525758 2.2322713562226664 1.886858992345265 -1.0043335728328766 0.7430632117893268 0.06209111290378984
Ni 2.9574980270889184 3.5291340800950586 0.11963029147666637 0.5772504549251543 -0.6476927680071168 0.698313418377462
Ni 7.1047943225549535 1.1208968584601176 13.31398992071942 -0.5729605693005487 -0.9288333856120325 0.3826372288895217
Ni 6.0261730654526415 2.995099851408691 7.488498536889632 -0.06938327568982888 0.2039483873936294 -0.04016474514434373
Ni 8.505216169144095 5.831309684221231 -0.10572304468396566 -1.0255238337572468 -1.0079714266957802 -0.8236948066994654
Ni 7.208353445271704 1.9170214148678832 4.114345247313047 -2.107451243115203 -0.02166771478142075 -1.613307841223873
Ni 5.277181894410718 3.205171408710712 5.04273401375777 1.11060343713641 0.7996868738206422 0.012200912941566085
Ni 2.0867126426031124 8.361368720345554 6.424753323277079 0.2702252562439927 -0.1480639175211837 -0.4453400072353814
Ni 2.405688725100422 4.3507252011510085 11.136272950962748 -1.148441848140422 0.43056104915399396 -1.27252457225566
Ni 2.29352727653611 0.33783955702699664 8.646071664610416 0.4623887351875521 1.4428434445203022 -1.2559957213627013
Ni 4.763977254728502 1.7889617640954558 -0.07232025941962375 0.46410674631992327 -0.2206253338286781 1.5458405516098344
Ni 0.3091234292885887 6.391638508920789 1.9151914655512199 0.8108621737111712 0.4840052850160632 1.111763775993098
Ni 7.541875278747619 7.980299485821295 12.364110060213394 0.7732852438986617 -0.020990486208738043 0.7799832247441276
Ni 8.173350398398192 3.6647012152435403 3.131003719312275 0.40165670741481796 -0.6939890799704951 -1.1463507699393485
Ni 5.6075388080026105 1.5347561350386147 10.056961667722934 -1.4558159455205701 0.6364724738112651 -0.31638761373266805
Ni 5.44185893221341 4.323179357741809 0.6840790322345542 -0.3221785093828322 -1.1986763188159422 0.5710569245199327
Ni 8.959152163788882 0.6653728836642188 4.596132536937236 1.7469491555618235 0.1708451770817574 0.040807006714032944
Ni 6.681136674823886 5.305896182079426 8.54170015112111 -1.475830183858968 2.5428593359488527 -1.4226885668389821
P 4.26402111688638 3.224344934984851 2.872220916876651 1.5980861391781123 -0.3770646198977506 -2.2034531498338246
Ni 0.2953449873748889 1.9770076870883175 7.84852933449879 1.0352266628673072 0.3655327079987511 1.5007387741751896
P 8.076783540541493 7.115015909738528 7.875016217795632 -1.6577066790542225 -0.7445883901846015 0.011377388599006213
Ni 2.7024275652730716 0.67383260411003 4.4185612107117 -1.6919090359675442 -0.4334653672849825 0.37456499340434846
P 0.7728623952601972 4.062183871491919 1.1749958276753594 0.26069417682510587 -0.56850021953635 1.0289845386123375
P 4.417933746943995 6.002040551336968 9.528879144481259 0.8447315727651065 -0.6366604214523551 0.5417406920543186
P 7.318012399043997 4.344459763822464 5.573562841026715 -0.4304340366578264 -0.5969121950201398 -0.2929872325308567
Ni 7.210092311138217 1.126177858499156 8.394466974074543 -0.001997232935686883 -0.5529702422215509 -0.87925326069106
Ni 1.6531554198859724 5.695622944542248 4.476948462362823 0.4957853083701269 1.0500303035390433 -0.11051886938787418
Ni 1.598707757462578 2.0989859075022013 10.384741563699958 -0.7268351799662385 -0.535353300470736 0.3271163130040818
Ni 4.775486890702085 1.2624074187396426 3.6994021696812416 1.2392809797111817 -1.209689382096994 0.5738900230933536
Ni 0.7893558600162667 7.893659803996167 8.54444645514838 0.7461251385441021 -1.760638737233774 1.0896836562646073
Ni 5.594492713829516 8.049762116996797 10.094732778455107 -0.5917093106629615 0.4542105702521339 -0.9881703328094531
Ni 2.6868513752624588 7.418553807452726 2.6750436479974726 0.5310107072313243 -0.29019784271117766 1.4957541764764046
Ni 5.189686580175084 8.799415713130726 12.340208474845069 0.852468793508364 0.15069287050359853 0.1537159736006385
Ni 2.0766566616925393 3.7224426024299584 6.584267125501533 0.11147069177818221 -0.15045041547548926 1.5122899693478986
Ni 4.760315516025475 6.310151022255699 1.9464717304165966 1.3728721575374874 0.4645970556927806 -0.5047756847941952
Ni 1.6719701325686085 5.639326012070341 13.452699894915526 0.609521399143718 -1.4799316076218512 -1.451238610562533
Ni 6.267811018458392 5.1463713394367705 3.878871527802341 -1.3288564140781696 0.08117281212558923 0.39201918432505384
Ni 7.6358384379788 3.640053481611862 9.356869428924014 0.7060382978255453 -3.536241294866232 2.1957115582151925
Ni 4.838555279670041 3.825992524798208 9.974362778959035 1.0550588671018861 1.0867988785176443 -0.7741036260348991
Ni 3.5437902352556647 0.20853509910251022 10.7909737513719 0.938831377365009 0.38061017115716383 -0.24107743103544285
Ni 8.118010302170292 3.237289825324445 0.4415504854939978 -0.818911526378209 0.6888584436121491 0.2183815320998239
Ni 3.6500910618254343 2.050822083104352 6.201761716576414 0.8490309714714087 -1.3258477091588325 0.8933729879218937
Ni 8.054104681488829 8.172687973306187 3.1464354638514367 0.756608040353297 -0.6941014371786433 1.103155465498797
Ni 6.1232735435223455 6.405236624003887 13.280056275346626 -0.8117152657400859 0.3600254050272767 -0.11120483971130524
Ni 0.6681541490157888 7.790100681279417 4.462216864344516 0.8965472718848173 -0.6284220927029628 0.884342245178193
Ni 5.910193472260802 8.07087691680445 7.63452002803874 0.604072974434637 -0.251158983641161 -0.463414348238589
Ni 3.4718987120761438 7.516519118281435 8.304893301112745 1.6275047015495454 0.41098261280143417 -1.595760062148097
Ni 4.121093702937845 4.387038976680771 7.675065043843684 -0.5529321898947638 0.825151850860966 0.395422553579648
Ni 8.029079733568647 2.1099711236112806 6.1014567571241365 0.6232487760321396 1.4207916069265853 1.6587006675363756
Ni 9.092787225752351 5.502084413494846 9.383396793754256 0.1459098472926584 -0.1970462609571574 0.42354810817127053
P 5.59501713369402 7.9937687960253925 3.082769972265826 -1.0299206772733618 0.2115004887092745 2.380606785632113
Ni 2.1335608171654514 6.439507922166635 9.73742160386257 0.13288283890537114 -0.6730178770354668 2.706548104491487
P 1.4439854967369576 1.652134181202465 6.0280692572785055 -0.48692837220012913 -0.6315148726956736 -0.9032406247445927
Ni 8.925570891763641 0.476516409968501 9.803349461144347 1.3897429651508968 0.6673455092410377 0.15444205313338563
P 1.710703599753889 8.616586387737403 10.472039990477688 -1.8935218332494614 -1.3484006547586842 0.9515313414301807
P 8.994150289483137 8.434189478723582 1.0120548956346294 0.21508717761926827 0.34344924583615044 -0.8167456290751418
P 3.8401518611398107 6.247239039212244 0.04384886095131756 -0.22117760678772228 -0.13078507583607799 0.8938584121987444
Ni 0.9374787107627893 3.1223222704676123 12.547687373939771 -0.1712768653025373 1.3372379532736454 -0.688134420961931
Ni 6.9231702428151385 7.66497594167851 5.195865534227729 -0.2024957141075029 0.012148205326759722 -0.06220886942857673
Ni 3.710785760880374 2.413113406339976 11.560575543123674 -0.13391616526589198 0.43509776068208295 -0.8778592085570107
Ni 3.042472445835534 1.485589472654259 2.0672042236435706 0.5562728242322226 -0.0034614761860392 -1.1263771550308987
Ni 8.964653972191922 8.836465516540494 6.916774160537892 -1.7275108443315539 1.632294666739021 -2.185832608538584
Ni 2.724443999233731 0.6450493138275716 13.068268853049343 0.7814873200934799 0.529930843903584 -0.4327130624999902
Ni 4.391942762431307 8.759256191927935 0.9721171028306902 -0.38173400034896193 -0.44269099964830855 1.672107942081217
Ni 6.577890363956137 6.0651825430929245 10.777656246918053 -0.4434582168316363 -2.0135442712523965 1.5586821834591928
Ni 4.408420586594926 4.7679242042350305 12.013855552920406 1.178189768826816 -0.05162595170640786 0.7971162848799885
Ni 8.62876764915149 4.231313877968644 7.21618294184526 0.32947144349981966 -0.18710534769436163 0.9616314059786599
Ni 8.432965832373071 1.917269824277385 11.634366938268458 -0.2983618665792087 1.0846671768866225 -1.1415425499174274
Ni 6.201080890787408 0.8705912571324549 5.977141648191237 -1.7540109475046113 -1.0927211575393503 0.4803926279641404
Ni 6.232472479869637 3.1219266554821092 12.060662325914496 0.3819206624384713 0.4894794207567571 -0.43307687359731223
Ni 0.4457826458040284 6.709096533915588 11.594360142850768 1.102937950171352 0.29987573212057383 -0.547953762843566
Ni 2.109327099216276 7.7230577417594315 0.500123584184822 -0.3843889214733057 1.6236305633061199 -0.4456863348312066
Ni 5.548444969586682 5.773687901565314 6.492915945209523 0.3674993448068187 0.6531648468652816 -1.594540330808383
Ni 8.921918353409113 6.242519260431709 6.04931746213941 0.20502490828725983 0.9776689190574968 1.5156257185893511
Ni 6.784134576282131 8.470696461571846 1.4551915212100386 -1.1201108624062128 0.2596935034747334 -3.4833094798642077
Ni 4.411309496023947 8.24633676304922 5.306808856650632 0.44201737062005164 -0.40463430198590317 -0.2943224064025125
Ni 3.3838605772790062 2.406194744267926 8.808656543164194 0.31856508099996106 -0.3014862711408034 -0.210795749332766
Ni 4.089508906537116 5.919200613442368 4.037376051796339 -0.421555503221274 0.7055438746876301 1.9240403135532926
Ni 1.5728547781773907 5.752711106985162 7.66899189379879 0.5088148878605753 -0.03629986287229877 -1.385424540281201
Ni 3.014632191274332 3.860254622612456 4.299686267846889 -1.1155517822806207 -1.0755086503158058 1.4121442156642325
Ni 2.644934587496155 4.961021118554428 2.146786318134297 0.004063371436096227 -0.44147023986732997 0.20621687171283193
Ni 8.129197925946372 7.564268926996781 10.077576888607034 -1.0732023707801324 0.4140892767512159 -0.756852038043303
P 7.0167469874093165 0.3234971337502428 10.94833283197764 0.8323851353846116 -0.1253955293893905 0.597308402017294
Ni 0.8640019675367072 1.5112492446209445 0.690693162771252 0.21230704377096984 -0.023440233300811242 0.7874026571366504
P 1.2931273823813652 3.760909259508737 9.02640855139407 0.0971974696886197 0.39322477459738087 -0.6631924063046127
Ni 8.235774762971145 1.2713777585272075 2.0746105041861242 0.45119903711931975 -0.5807196444206773 0.6702958501186134
P 8.031085409541662 4.351875244713517 11.544523695095606 0.07228450849702389 -0.1659690799363787 0.15519332947711337
P 4.781660324545629 0.7328362791106573 8.033910836566033 -0.05810384612126768 0.41432196158731227 -0.27188336067270596
P 3.2934579529173513 5.949018942931083 6.163452385456986 -0.2845738116561809 0.3082243611955853 -0.07975896249719812
Ni 1.1547265398948627 2.5029548094431266 3.0020700354323413 -0.41688612277006265 0.4186380724641629 -0.21006195649053497
