# total energy = -381173.39902207564 ev
CRYSTAL
PRIMVEC
9.26216731710059 0.00000000000000 0.00000000000000
0.00000000000000 9.26216731710059 0.00000000000000
0.00000000000000 0.00000000000000 13.55611810279328
PRIMCOORD
 96 1
Ni 3.011297376751468 2.111255511064403 12.153643005039187 0.4939294861083106 -1.6280245786087575 -1.2511417357045096
Ni 8.675575917934546 0.5570776960162322 13.352478689755195 -0.2914047185350852 -0.22626530572327486 0.07303835594391292
Ni 2.8027318887449915 7.947365783906427 2.197080607652271 2.77561102072742 1.7288467895341582 0.409108792817489
Ni 3.323951103243457 8.44808782170366 6.79465198852682 -0.0958988054818542 -1.8854470266611272 -0.16998514307430723
Ni 2.2493173799792507 3.9304563561806662 7.210973451099336 -0.4127828992349666 -2.358169539674519 -0.020051262223920306
Ni 9.33228211877988 4.67959898878302 12.871615665317705 -1.923864707207377 -0.37874766402712834 2.0165984846976883
Ni 9.053666857889798 1.5527560723352745 9.704323937133877 -0.7070927072319887 -0.08937643098230415 -0.41680667568237895
Ni 7.867331394446264 6.148236055785902 3.2298669318862765 1.3425634792516168 0.874002553815082 -0.9224989587535726
Ni 8.734566662810346 0.5123747707424754 6.066702121405753 -0.0723349021189851 -1.726223235868382 -0.6304272960584497
Ni 6.923118251900558 7.548509064392133 0.4282881829963703 -0.06129278537221057 -1.044963173428781 -0.19255094418996516
Ni 1.9860773171569723 0.3363852520879655 5.216923260149133 -1.159892513179525 0.7676547850857618 0.24210947184438303
Ni 1.9143788784564602 1.3820635872801474 2.0975789945180683 -1.6067049911953748 0.3743927294925423 -0.9981634394664228
Ni 8.041284162465166 6.963871788947743 5.745002035906039 0.7014702188388887 -0.46631918059020977 -0.945181487952753
Ni 8.683374662978576 5.7293267436108914 10.7403223810606 1.6976428531275278 -1.2480921502449085 -0.8970208690871261
Ni 8.758574200998142 2.1958839356098854 1.4483084617503457 0.684697370255924 0.5614379133729298 0.08095709657035735
Ni 0.6648383839197471 8.509977625010317 2.647483141797245 -0.011637070018296086 -0.03609546017097655 1.0975923695887224
Ni 2.2950076523096503 1.777678548165689 9.726379010410412 0.3373426187177803 0.3422835076628234 0.521054881570193
Ni 3.8644819370017816 0.5047177368613601 0.7728111754592576 -0.8783140367062422 1.5376636722259969 -0.6583186231520791
Ni 7.307164765565205 7.613149731449473 7.750900391535961 -0.9359465996180462 0.9683571547382677 1.500663183742248
Ni 8.130997516974036 2.4061907111083776 7.231592888411709 -0.7761435392830633 1.364849801453643 0.02422981908164214
Ni 2.603197014061471 4.038638472705919 2.509996453484814 1.0101000430030087 -0.1721888355938454 0.8069854643645844
Ni 0.5015334036711733 4.537924874538991 1.6718221619023788 -1.9184041983134381 -0.2832376093432606 0.7251670482351963
Ni 9.750746846914376 7.742783027929562 12.202878835092694 -3.3071734866971556 -1.7614486347295792 0.7344770127822124
Ni 0.9027667953687197 0.4396778703843072 11.351202155713127 0.7750279376213813 1.9939846039529143 -0.16189748097016632
P 3.6336501982995255 8.304413079277316 4.613295762657505 1.4256887871178865 -0.5540899576482909 -1.4313164177173092
Ni 4.209608822786367 3.975461228115273 5.373401096725551 1.4462419286788897 0.4434340484619202 0.360987768940546
P 3.9922720621472365 4.972088976604164 1.0581637369966377 0.2679156342742096 -0.20083118192088636 -0.03735838604380017
Ni 5.778925650630817 0.2928021228662551 13.236275536165657 1.274555743753076 0.2339217938272681 -1.3157445592865598
P 7.63409149219122 9.027028864128956 11.783371186896488 -0.8880975984555673 -1.1926583947566365 -1.7513380286581384
P 0.7646725088675846 3.2483162433508874 3.602877572961897 -0.3239798242576291 -0.01701067562538361 -1.1885433441469981
P 8.483302582579432 0.15664455559161244 8.267334770298387 1.3262948239985803 -0.38207312885593553 -1.8504656254899359
Ni 1.7744182652019143 5.987509662972315 9.689832349846599 -1.059185230565434 0.5932473445740428 0.5770059430145159
Ni 4.056801583194448 6.195473110090593 3.786671393960942 -0.5743263392998237 -0.22657898030895174 0.33124216224699726
Ni 0.7759843940484314 7.9042967049815624 7.232826609124137 -0.08361201769470117 -0.2857472631389918 -0.4071349569205698
Ni 8.537699292369913 2.8666871554065385 11.452059750170898 -0.8981516402574596 0.5816377853595726 -0.1336405430070021
Ni 1.4581245068782107 3.7744073579599933 11.263128204853654 0.8619332813553736 -0.30985572615142115 -1.0618473507786292
Ni 5.424916346203446 8.658255664689493 1.8990092376891652 0.05194991070472989 -0.47132871798965925 0.6957541422907179
Ni 9.20393626358378 7.116002890311379 1.065730927852899 -0.595925148516522 -0.85208055693101 -0.8493803843910275
Ni 1.5271091304980806 6.2859737488378755 2.7226243281614937 -0.7160296047103024 -1.7338108184076528 1.061392779739714
Ni 8.502234452971352 4.53984214321371 5.203258784420561 1.3826454348741672 -0.6147739057919089 -0.18921442361756446
Ni 0.5039221166721889 3.6168578886025835 8.918054832281538 0.18407813083226363 0.9446418133991988 0.2335541260752042
Ni 6.429555869589113 5.284872373441303 4.754469719855956 -2.668951377184636 -0.6472842197147884 -0.1813638172248941
Ni 4.49978326872983 0.943009060769312 5.318892314708192 -0.4159183595401547 0.2512116912559674 -0.6808196324680726
Ni 3.479768547276362 5.110595429559527 12.43201837579074 -1.4164009340580574 0.2358894590766002 0.02791163880860354
Ni 6.433418193441085 0.9697118897027285 3.715108182906087 0.4008918042243354 1.0090057814975655 -0.026268703888541856
Ni 6.8517254647279 3.5099446890262995 9.255222737524159 0.04835268027177479 -0.7146903170735885 -0.0990679472384552
Ni 5.5371182434283535 2.5119831884158637 6.863639390796943 0.7546809985339132 0.03278902150556289 -0.21994322015998896
Ni 5.061153979387283 3.3230989838324705 2.3632105489916153 -0.8413523718802284 -0.09502077375227506 0.06407420477208965
Ni 3.3641303859049763 1.2857833560061747 7.444668125779156 0.4724106381999284 1.4929033372911709 0.2528062894365969
Ni 6.385653195588283 5.913514206729142 9.387801403272658 0.056783070427315105 0.2468323312413491 -0.06889425186855232
Ni 6.5977197829138134 0.9787054543556412 8.481656695412777 -1.0972720101348263 0.9077886491265915 -0.11165966786053674
Ni 6.214015969447063 9.093466391683378 6.293563168896162 0.41429779321759613 0.12308719297118802 -0.6039531610273212
Ni 2.774417442664709 6.0258457742992 7.450333793645465 -1.3892544555502526 0.8141544713091978 -2.179192991734879
Ni 2.14397874887979 8.686857237962608 -0.00389659387176146 -1.2755163078941323 0.6860610833726701 0.5538354184353237
Ni 1.1321888321758435 1.556090452639135 7.766842434255418 -0.6822674206581927 -0.8275270359613619 -0.8701132460630047
Ni 6.068803707213935 8.512265380385466 9.939847889897065 -0.022291721518664834 -0.6914747981890736 1.2494116403872806
P 6.3655728164250345 1.7204383529494165 1.3818839012304396 0.20111503170989234 0.2379118888232677 0.4096222421187978
Ni 9.26024097988147 1.1067456580238857 3.6838613345919096 -0.640383121719581 1.1891475533899005 0.5706103239008173
P 4.284900982481041 9.418790763330037 11.221497540543204 0.02470958693153809 -0.14021202557693271 0.3494142051703337
Ni 3.1829346028926886 4.201661883062167 9.428429901058449 -0.5038683424885775 -0.47471666062528567 0.7788691657443425
P 1.297768600765051 1.455929373178169 -0.19409335127097047 0.7302290361391359 0.7725869322800565 0.6708008147794898
P 6.858366438833088 4.616051257491946 11.160671034066779 -0.1734065100510304 -1.0646426541355793 0.5128085824010007
P 1.4027830560016366 5.8834955218268865 11.945407250196094 2.1165256946126454 0.5990130434132264 -1.2866139604691906
Ni 2.0547562892489886 4.6351868955691 4.918797243397713 -0.44457021894889237 0.5884036433284964 -1.3247958708555507
Ni 4.759670426913226 4.53432189137732 7.852991706706161 -0.4500106732381734 -0.10543682687927648 0.031079237903307765
Ni 6.857847757452489 4.9765626035118435 7.146270727519673 1.6124426650101005 -0.6191913181333143 -0.19034236657442055
Ni 4.6025377550938 2.2774187962067862 9.218987285788705 0.12408658076997985 0.47353601005362317 0.2522679004346236
Ni 2.088896638693516 3.468246410893021 0.24596612041477856 0.05315035877073426 -0.020975059589770327 -0.009422835975796675
Ni 7.841119460390916 9.206224018958928 1.8413411303338971 -0.8497246551043236 -0.005242993566494197 1.2280627423978592
Ni 2.2230313485838167 8.481385313904713 9.006414057900338 -0.11033683528405513 0.5671755871876554 0.6784575599937992
Ni 5.785399905720813 5.855959097817505 2.0473132114373707 -0.19587306658466266 0.06708573790490382 -0.1648827888507354
Ni 2.5812456770610557 7.918616015953141 11.417844377169533 1.9649689334468545 -0.38497770409724025 -1.3552624148755241
Ni 1.74620570296425 7.292808405923584 4.7131641576251315 -0.558862953556902 -0.741444188128665 1.3349504427910492
Ni 3.993929990131656 6.766133774761301 8.991271340237057 1.6411454322614316 0.9534355004314291 0.8968627462427071
Ni 5.759447312355764 5.237246308101162 13.14143649815635 0.4948206304640123 0.271671501772216 0.30258618907320145
Ni 4.818726006961602 2.8331025360126545 13.455410083518618 -0.09184417579650635 -0.08914631724936906 1.1278565677899026
Ni 5.94188422581449 7.791455718198415 3.999001026843777 -0.04829868710538779 -0.4930028605289832 0.8984437175765817
Ni 4.7721095178801285 6.744062029583248 11.105605595782025 -0.12457149082619837 -0.20762403647300373 0.6537901391541062
Ni 3.893602191655497 1.11166386897208 2.9500012783822496 2.0257523832828146 -0.9403920369839095 1.0772035215197253
Ni 7.026233962797445 6.756325139367446 11.785242144733655 -0.370766959814497 1.659649918823522 -0.043558858427557245
Ni 4.804397433822511 3.7321070389385183 11.33531475978198 1.1815442871213457 -0.485684472490699 -2.201440747389486
Ni 2.7756585731111465 2.3844987147982626 4.478968399682982 -0.274796677664759 0.7087394988067923 -0.4281221006951982
Ni 8.776709524984138 6.0401836096058 8.327075750742555 1.1877740700811414 -2.185095473262243 -0.7789694387676326
Ni 0.7157256584404142 2.5208007718860728 5.639643028038056 0.1104543346985259 0.2642173594870159 0.18020424969915416
Ni 8.876509379912187 7.923571275571379 9.711291865752194 0.3352273721469904 0.7438383993924543 1.2727433731346853
Ni 5.315752439922057 6.588364993727981 6.718168714090269 -0.8043079175324213 0.7467337186623786 -0.5721460438190533
Ni 6.028587375882374 1.5643523060587006 11.040143374466483 0.5735151562524381 -0.31488531815552867 0.11714768755830146
Ni 2.2535038796940974 6.3799013895641234 0.5183646144716605 -0.843542951773644 -1.4228870560030333 -0.4837206638961088
P 0.8447022672439928 5.69336174716675 6.2313547470271375 -0.703608091117498 1.4280714284174503 1.6992647050016672
Ni 4.2593929731565074 7.359764614858605 -0.20995573934983588 0.8708987180787775 0.6604986615225334 0.726723851199355
P 5.0428426742185835 8.475772440393214 8.031457928953039 0.612580497685016 0.027657356705952367 0.20789245964304195
Ni 7.199519854755574 3.2671277055651675 13.363973965852754 0.2251131943967026 -0.004766311040391791 0.7068883045306664
P 6.873093285175139 2.888064238021289 5.096869823525385 -0.42988304925036297 0.27574952849633155 0.7546416606555455
P 8.022852449118826 8.525825193621165 4.222283172808042 0.1338256624346147 0.2670365741033659 -0.6324304425314076
P 7.760121805509637 5.252288068138578 0.9639322971760368 -0.6062879798080849 0.6961110114095044 0.40765457686946566
Ni 7.279294903525438 3.410644991143831 2.9637602282194293 0.9253780800735805 0.5134091920994771 0.5062083034756637
