# total energy = -381175.2203099302 ev
CRYSTAL
PRIMVEC
9.18508006762050 0.00000000000000 0.00000000000000
0.00000000000000 9.18508006762050 0.00000000000000
0.00000000000000 0.00000000000000 13.44329312109203
PRIMCOORD
 96 1
Ni 3.341045349348969 2.0186234347420644 7.732232852860095 -1.1833237476192717 -0.8332130306025457 -0.881130937329747
Ni 3.558033682814318 6.11752974727364 0.7049512274861199 1.1277236417564642 -0.33883437277195844 -2.312913238939881
Ni 8.509535875196363 2.084710086421847 2.140051112834058 -1.6299634475026832 0.3793655001167854 0.5268966850629507
Ni 6.279104492193592 7.360445608101504 6.269360040662378 -1.3178739469247367 0.37335786047012476 -0.16066669388685878
Ni 7.320407843727331 6.980486397533393 4.1031084867002345 -0.9101844030522777 0.3645009243001271 -1.186137562918983
Ni 2.6264277435129117 0.870290018251572 5.716236351040952 -1.7517627749003832 -0.645177972005063 -0.9333531278592571
Ni 3.0349433682676032 2.5921306542325353 1.8308014047852612 -0.09269752493573713 0.012734416847532907 -1.601486423108913
Ni 5.220340303294561 4.227552545113512 4.398135098136642 1.6593228745014068 0.4268735730000778 -1.1200360433042196
Ni 9.178852665732256 8.024885121077707 1.87841777879126 -1.5936345311646618 -1.6301436818342891 0.1276313606984447
Ni 4.626166653466424 1.1896791362780355 12.07008810698783 -1.0902796379773934 0.8973455994163965 -0.10800355916518818
Ni 0.11935184997807663 6.067351654413786 10.838359673782756 -1.009858616416164 0.16139483030213492 1.7863227722634396
Ni 3.0188511078446734 3.255357736628929 3.927081936672156 0.30044060348510837 0.4486230488620274 1.3227940099341735
Ni 1.4687769817181842 5.611845159611316 6.112302518160233 -1.1268990889726398 -1.08093959152339 -0.21023344907139277
Ni 1.8040415922760356 3.131203008240379 5.876063175208344 -0.260810390687996 -0.5345470025193568 1.342983597508171
Ni 1.9604451370714955 4.323426411719985 0.5818463537587231 -0.47972979756916095 -0.613905901364659 -0.5218436960200754
Ni 7.37354353239551 7.129946021735397 12.3195952982165 0.31554017813070817 -0.6402106006974587 0.9642279630612426
Ni 1.0402195120760314 1.8766404657822204 3.6775205534706004 0.9961096422611877 -0.891060023518001 0.500272397607203
Ni 4.438726722843864 8.76360437722756 4.462474747571879 -0.5636701451375583 -0.8741341942969396 1.2595338164229468
Ni 0.20190275782686676 4.990832705584662 8.966878467520834 -0.2394807759722843 -2.337005246892078 -0.7139482967012413
Ni 6.575736655640232 5.074334269228985 11.04093661649264 -0.5656794622581032 0.006354995683750346 -2.0606908470312124
Ni 7.661174317295077 1.9875227533539137 8.16595417456262 -0.5488549345015967 0.25271013017836474 -0.17472445753150553
Ni 4.872951386938612 7.895825559889017 8.5817278496519 0.19163074636854094 -1.4397666053671914 -0.35563498926906495
Ni 3.6046663347362435 4.62575332485967 5.853935398618802 -1.102851818215449 0.034870072404307687 1.2430928972581043
Ni 2.2502527859666306 1.737697758352051 12.606851331845947 -0.25334802087267977 0.5116533857506349 0.6081412309667397
P 8.995316394173477 3.407866807440758 7.2586923716909695 0.7877104181850563 0.6422304593409649 -0.6101556902936073
Ni 2.1848182749775034 4.164992964211359 8.053917322416062 0.036895073254136455 -0.31071190350412936 -0.4117403169030651
P 0.3688388340304168 5.9475139136957695 4.254533718054355 -0.3887685385982402 0.415657135458968 -0.12872819330704927
Ni 6.593574081291675 0.204661037395934 12.30148691270063 1.406912534951648 0.6568278975391656 -0.8250407792043986
P 6.993547581506799 8.36666195346196 0.7926944611437469 0.28595166584031395 -0.3320988538203377 0.6343137755970495
P 6.950184818118299 2.0544544324075034 3.9040806589603405 0.37405205832367194 0.28603316981052673 -0.9688325517127895
P 2.7915662995310924 0.6141291549621881 3.4377054588162883 0.43652806537070626 0.07517468556062537 -0.8588155616619982
Ni 7.649711337267785 4.760204528096454 3.698706859344761 -0.9805578105695176 0.23391819428284233 -1.204032698031849
Ni 5.644112346178526 5.037244915582986 6.770136121492503 -1.2174793104550579 0.5606920363458407 -1.1868207050289368
Ni 4.054974074173772 4.803438700362852 2.4346744992518765 0.23035361686003553 -0.5033330388103977 -0.5334565976686555
Ni 8.929835957783599 3.471152009674768 4.88377324837143 1.0756001815883476 -0.1363689976817587 1.2400749363673869
Ni 4.86034027189256 1.6561801720201441 3.3259110927856925 -0.008393109159701673 1.3094085897662031 -0.6987911293448288
Ni 2.5571538690210533 8.690684025916122 8.274185648003002 -0.4340292102082525 0.30900006301934524 -1.325392366788969
Ni 1.5858224580705773 6.185196232739235 1.9526920109168182 -0.7027619410671188 0.18615146842152455 1.425243986270984
Ni 4.482870218045119 6.380921105657162 11.637509409255976 0.6956217304779116 0.6011594003322679 -0.40609828812593934
Ni 3.3450041188936512 6.378505429577693 7.644179163493395 -0.3185560821388965 -1.2462507261607956 0.9165193441313699
Ni 3.6992542901217056 0.4550123374903961 1.1345548777573664 0.5312644751133431 -0.41415175455803516 -0.05803854010097101
Ni 1.3438415215168775 0.561993721522353 1.5771939937775976 1.7410703281835433 0.9693470294553628 0.5985001083325499
Ni 5.838983006642496 5.148136388234829 13.335532213899782 -1.1565338811199373 0.19780525061036902 0.8614208604953294
Ni 4.5867259193020065 2.153267524661999 5.693033001565835 0.4614693086970762 0.742729996819624 -0.2993990495944715
Ni 7.248773403636904 6.250759334850463 1.5136341576471004 -1.0439897537719183 1.6281119961162414 0.5105663233340432
Ni 4.491935892153243 0.10001817477018586 6.801916498811759 1.3285221706672024 -0.721865494665789 0.10169047246296681
Ni 1.8957638026546744 7.413232263723979 10.155131160851562 0.36401395736137954 0.9798576991786997 -0.17466043706278953
Ni 1.1938032372654188 1.7156719361521735 8.718862933308534 -2.4256190886767452 0.43624961489833897 -1.981085379392743
Ni 2.7998145015058586 5.929345825158924 4.026401126842922 -0.2590620405383216 -0.5170390755425806 0.9099419480241685
Ni 0.5753203543120954 0.967078718840992 11.013001113724204 -1.2928422007670897 1.0806063765536873 0.8088096620575168
Ni 6.030785850336341 2.672307218862531 10.455520940587597 0.5229271588922414 -0.33923726463733184 0.5463846185842332
Ni 8.555902159793936 7.943330794425201 5.707417755588866 0.9806526842761693 0.27653654317400117 0.41347246910282337
Ni 6.702766314115755 2.9607646609756055 12.791454909718162 0.3624391566750919 -0.6256838678361933 -0.2412270692394297
Ni 2.8157046901654867 5.336109053506093 9.951774404836938 0.0001871763101416131 -0.128547701865127 0.3318983077737574
Ni 0.5740133174067399 8.119803739348573 12.259033472246989 0.10765440335588557 0.16475911878867755 -1.2760205012240604
Ni 7.149050988447551 8.946589543977334 7.8687626397348405 -0.13465432898349713 -0.8978032557791052 -0.008354799722598514
P 4.213627963606 8.302761350857896 10.585450328866498 1.0929152758280274 0.5747657408300876 -1.603686258973709
Ni 8.388595924860338 0.17426852568735413 3.606473040001763 -0.8871403767486205 0.23354512721413972 0.49587709675298475
P 6.986245442787489 6.681227301163832 8.38685351515587 -0.12040913191839263 -0.28032274968931076 -0.5596304278505458
Ni 1.3274828937695957 8.029817509118297 3.977238903847665 -0.2619031095315425 0.3024468352818598 -0.26620765044416733
P 7.304232917583052 0.8483477802810603 10.154592915154767 0.6675686809954374 0.12872073710788154 -0.10829820758747154
P 2.0407319226632925 7.791317717941475 0.5148650752723234 -0.402104593585514 0.08338678905777253 0.9635584477980438
P 0.5858189009236301 2.4596083178272674 0.5375007867941657 1.2998746821338387 0.7757187930408189 -1.1006391268348465
Ni 8.512585321806188 4.465097087954726 1.3394547272372022 0.4451029515239109 -1.496306963656081 -1.4504220281985087
Ni 4.134976122280916 3.222824182737367 9.441130792401589 0.075273930142651 1.3424205259158493 0.20048845386948697
Ni 7.946674163599829 5.584767543328897 6.34277454928589 1.044419385110169 -0.46236559525910054 -0.08418177415524211
Ni 6.327197571859379 1.3113998184268163 1.174221564893476 -0.5291579702933016 0.2035902327232623 -0.9224243967618954
Ni 4.336212043288888 4.0585195151117 11.658709492750361 -0.5769509214068644 -1.0587759109421573 0.7712077925443428
Ni 6.752907666655009 0.6870063363969203 5.583793006324974 -0.48569192868986677 -0.7666070605475378 -0.13082827036918757
Ni 2.096365953132291 3.1321307013355364 10.419359280036756 -0.8693164611933222 0.410412599230577 0.27723665456481933
Ni 0.16476013071599752 6.317057243373698 0.11443415806572702 -0.4713958237821688 -1.0313908340609852 -0.36695889892231637
Ni 5.931596169795692 8.896788039403633 2.772814039896701 1.271710818105113 -2.053191967551006 -0.5745196862575525
Ni 6.311941153730106 3.652235864833477 1.9612828163811824 -0.809683837132354 -0.3804782735649899 0.3060690054154794
Ni 2.636935475204596 0.9318814917059084 10.145236992513901 2.7104860060933125 -1.2503986868908983 1.3204807884199645
Ni 0.8316070531995354 4.12426631882593 2.969542842075031 1.451300831259036 0.40685110713156386 -0.021523475894072608
Ni 0.4827439314794995 3.5567018461925572 11.99372978017622 0.05513036531524054 0.5861570133861647 1.8111537152641906
Ni 6.920434343512209 3.1627445734757327 5.786155018159345 -0.8870784131624335 -0.16321414289906086 1.5189270150484422
Ni 5.042085452822074 0.9419391544702393 9.092788464726063 0.5543879485046839 0.4503189485072116 0.38135347708109163
Ni 6.568296740718671 7.888027426841605 10.26419663956957 -0.1653252757047927 -0.12564389795477074 0.017899505988240142
Ni 8.27106363925999 3.1496742044221775 10.295331305754276 0.42690648312054225 -0.3568266955843209 -0.5220997778949396
Ni 9.23651659891442 1.236642451085364 5.72407397993301 -0.19761730296927899 -0.396798093770936 1.3549657095707117
Ni 2.201002386201934 6.155510053694196 12.199977080914072 -0.7557539198831178 -1.1307320895654849 -0.17339134054237879
Ni 5.043380549123236 5.528380336287593 9.052458614803118 0.004775567011772421 0.18415423548583768 1.0967881285198724
Ni 6.995660149941315 4.406799384242206 8.399625369104548 1.6258003172639293 -0.9464307869788215 1.4465926271500893
Ni 8.753904932589082 0.42533626203352204 0.1995256590840276 -1.473661201232107 1.2424709474033893 -0.9021216806488012
Ni 4.957950118647397 7.938554552747162 0.002218196856242872 1.1121810660361748 -0.3772667086062277 0.38126117447760144
Ni 8.969827796757022 8.50908580626901 9.556164736201115 -0.20211159129520678 0.052660049397877044 -0.18748304274875455
Ni 0.6402506044009837 6.859123933510465 7.942082542032806 0.47716177973166857 1.1419521266510204 -0.20200360496243275
P 0.5698533946067714 8.879474163320744 7.1855341268036454 0.7284742582315583 0.970383184029361 1.00852267121356
Ni 2.9652561651689915 8.46944300034129 12.163935744913196 -0.723457007522625 1.502875360902218 0.9326563589025485
P 7.8813957989732515 4.857042828118684 12.576389013528225 1.9395173261429695 0.3203939066785837 0.7935295959699946
Ni 2.650217101101603 7.541419242298412 5.942351898651428 0.292587940209909 1.7124040705971024 -0.4493727825438584
P 4.707123949909176 2.9058654369186128 0.27669227294884435 -0.2829023374910289 0.04273610541594575 0.27109351778155893
P 5.035095606827868 6.5656606227156 4.1805818822420635 0.3338153222908122 0.05242685034114842 0.008543775804953028
P 5.274082207252643 2.9766548496352336 7.603768484865131 1.267811483050707 0.1802721268226121 -0.04051210118143345
Ni 3.564297907476668 7.460792608741063 2.4726924645010477 0.9880158095094598 1.78567588270806 0.8648602251941815
