# total energy = -340871.5198739757 ev
CRYSTAL
PRIMVEC
9.26125665693685 0.00000000000000 0.00000000000000
0.00000000000000 9.26125665693685 0.00000000000000
0.00000000000000 0.00000000000000 13.55478525959435
PRIMCOORD
 96 1
Ni 7.781872897292376 2.682643427516452 0.27405355437529244 2.0721458829456894 -0.022348028677896998 -0.052700929938141496
Ni 1.4667145001577975 4.622274744743396 3.614003569532787 1.0051828082070495 1.5276931912768463 -0.2248342297037031
Ni 3.084637540036101 6.643988580959918 5.888809031490842 -2.551635025258954 -0.7130388975130945 -0.22125525410319316
Ni 0.9036513878061438 0.5463483960848825 8.768618133330303 -0.7101996282920866 -1.6861466795624702 -1.022543410972684
Ni 3.657437011658176 2.8014560909619335 9.104586893894576 0.8536826113108071 0.8394566975194123 1.4678926741794462
Ni 5.092329833462347 8.746312396335336 1.423130099546621 1.3788209189217542 -1.1289395164414364 -1.1926244561949073
Ni 8.613302226220439 1.256335790762867 3.602211211253487 0.1794051508366265 -0.4637910148517173 1.2980821090097903
Ni 9.13940644107331 3.9950005606428483 7.095767505516166 -1.3594687396473877 -0.6149307430847474 -0.5220763808561719
Ni 4.701643715491527 6.378347952258792 0.4941899239312767 -0.24496211080182972 0.7693977359187975 -2.474104952092275
Ni 8.619183124286375 7.804127697374962 9.832546683512328 1.88548533609823 0.27835097067492065 -0.3667285280790652
Ni 7.608242854866942 5.641781676699819 10.790937655741333 0.47625340898478624 -0.6475089341310848 0.6864668034515209
Ni 8.67410237709109 4.020876512132963 4.481279519018343 -0.11127374527602772 -1.141529694401621 1.789098535236364
Ni 5.372918130633425 4.43406748411988 10.241304291870645 0.12961368123579614 0.318916807912425 1.498192096493936
Ni 3.173258506324184 1.4271874561492761 5.065179533037 0.2199020825094084 -0.5437726348826829 -0.4074082651866145
Ni 8.635788557722943 5.877045383107612 13.752820941439257 -0.3780426675403038 -1.8516930701391336 -1.1723428231277357
Ni 8.05828436764812 2.0529798391623437 8.104528601211323 0.15495036022837186 0.20593430747540664 -1.1000326035990993
Ni 6.2313440231240085 4.3430571135782365 12.63369715299997 -0.7332770789368404 0.7050183412014632 0.3017104713364675
Ni 6.622937744260909 7.734723838940131 13.016443595518938 -0.5102732175736567 0.6376191858211987 -1.3117444369882312
Ni 2.530203140641978 1.8258752999924863 7.495931593692778 -1.3551760258093049 -1.4293963178764608 -0.7257712574780986
Ni 4.913606099798701 4.189690701024087 1.4874347099891618 -0.20373498583124267 -0.10356326400564744 -0.45187960812611205
Ni 2.95112726205418 1.658515128418451 11.281390662555122 0.6989088858696156 1.547093450180329 0.33236187767373726
Ni 8.292038489198044 2.7490744225195263 10.438431995040787 0.5618814286682516 0.3827588420690505 -0.21203116440176387
Ni 0.7584747046373592 0.5437608009358711 11.108594133241395 -2.799578844396927 0.8078529545712022 0.6429598813078217
Ni 7.70653257325083 6.4235799304541095 4.214115413574151 -0.3391537037845901 -0.30732267531692237 1.4634495508064278
P 7.3494370336818164 4.214770184429681 8.760634003845826 0.08637543937245123 -0.46969992413698464 -0.10584074718591449
P 8.610588677978992 8.089494803053162 3.3855107679690963 0.8454208855226472 2.104374146851776 -1.1522452810469124
P 1.634769265991589 2.545419385559035 3.766169723206077 -1.0569748531776764 -1.975590931937075 0.95282974852663
P 4.124463669404591 0.5537407312600467 9.303543695282077 0.08265119644332862 0.03511818385937178 -0.3612055413783069
P 4.984019435224377 2.6215469164283047 11.508527616123768 0.45996572756835624 -0.38666511910199214 0.5020410594718515
P 8.293631425367083 4.087715002435094 12.201014939958618 1.8004656394227248 -0.5930308576878626 0.6408281796767996
P 3.570214495146402 8.153647528884235 13.06525412334052 0.7849410829700353 -0.40359789030158877 -0.7262852210000394
P 7.36158780259915 2.659555114322159 2.5064424602042408 1.0502475617561722 0.13114425894770962 -0.21325655216843276
Ni 9.183656726048172 5.571711007775623 8.99361388432754 0.12727731979313564 -0.4022912556750233 -0.5122190284461179
Ni 1.9232111089263093 0.27951769588537384 3.0743612494944297 0.02268201497854803 0.0028040451076983964 1.1931543605564483
Ni 6.017612738768655 2.0131749574499205 9.540752265617186 0.11914492049398837 -0.24781526397990866 0.9831991048471067
Ni 1.874969222272048 0.21802665525768503 13.255292334432752 0.7885745659575645 0.8556839580115522 -0.19892779425058643
Ni 3.6599190284797043 4.387177740957944 12.407888263655979 -0.15298629452346557 -0.4483106598279311 0.11112307863077636
Ni 0.7354428851095263 1.6649887469193778 1.6645414282160949 -0.32571968976687127 0.42971258511076965 -1.1247113372927018
Ni 5.1289117978095025 4.560585513220256 8.013453401872102 0.6405183617458645 -1.5606909863591059 -1.8986077324128015
Ni 5.068370962129159 8.967211893451372 5.620234436636506 0.01069038983431062 -1.2714331389636944 -1.067307602562252
Ni 6.868685193362621 8.586027824954016 7.95949176302017 -0.34233158729193947 1.5366216041147276 0.15949632772784145
Ni 4.961162653450003 -0.06301544349643359 11.533645070682228 -0.9965408162613354 0.9890424510017611 0.6276577037331126
Ni 7.839607572163303 8.98783671233773 5.799712962729085 -0.1384904149001357 -0.28320135678868646 -2.105096369729781
Ni 5.590465052789037 2.2649329622127214 0.23746788552541867 -1.7996454575142748 -0.8566409226081827 -0.9433428920821173
Ni 6.405038894347019 8.740014741713546 3.576688113647329 1.4971477143898215 -0.3436302514987049 0.19267178603854557
Ni 3.558647185407264 1.1547305424457432 1.3701316314015501 -0.9176460015366454 -0.10921249187162481 -0.7658526988800165
Ni 1.7715672901363555 7.359661461185426 9.208565802328707 -0.2046904077659765 -1.5319537663254132 -0.9795643363079968
Ni 0.8409008162540972 3.937460372164652 0.32884592796189344 -0.4052351687946957 0.9377849383783655 2.5772673811150777
Ni 3.594710519373801 7.879560633984475 3.962049935085698 1.1149316321981184 0.2792971366382738 -0.4041794738366717
Ni 7.354966003989475 0.827954505377923 11.975463513553573 0.20132483372785326 -0.24393804041268957 -0.15002541212292872
Ni 1.797091313868193 5.040892813213207 7.502289446483745 1.8242028351386648 1.8164401604741103 1.6053564475872804
Ni 1.9748981831089603 6.299303125498546 13.355394480771762 0.4308407851779419 0.22185483536040504 -0.6998501667369624
Ni 9.171468912103652 7.893026501366947 7.323596274967529 1.4100163706879523 -0.8427703352736775 0.5480082702305853
Ni 2.176302734667842 3.5966368607875245 5.766340949987683 -0.1712310996662664 -0.2268242635505384 -0.8008564686487111
Ni 4.514195877925345 7.555527781179852 9.135803812179375 -0.646749430257241 0.7725167411637535 0.5033332959207139
Ni 3.490280587733669 6.65147167645169 11.18074580656782 0.6318956530738601 -1.2631881253460824 0.5881488470052129
P 6.586550266306486 5.4879892463330195 1.0794828309721647 0.6666824217357421 -0.14119881497023426 0.6353028789831963
P 5.739617593500666 6.381580130880856 11.521852712402929 -1.6204681064177382 -0.02179344172600763 0.5751377794575256
P 7.870956926420296 0.528942790061074 9.597289459984294 -0.195537794732431 0.3954888880412092 1.5285146587368772
P 3.667948538122485 5.549789612937721 9.114034301952938 -2.0157533630885736 0.09488501950535916 0.615341862480237
P 1.2085384444348497 2.4764693287072452 9.420793058580267 0.7896649708082658 1.1719751553756719 0.8057281949187156
P 4.913846892475417 6.208589115174398 4.948594201851136 0.6187058938564636 -0.9091757592821051 -1.9092317877855507
P 1.0909204831161485 5.579536769768875 1.6711558178203323 2.037926813861819 1.7271984552974575 -0.14941940310781365
P 2.783415162721868 2.6153048293472962 13.398281508746146 -0.08167571990393675 -0.27574875716538316 0.7608112798013671
Ni 7.530003757448014 7.374646174682565 1.4892647343321992 -0.11230475764370335 1.6639598590527858 2.1556643124853196
Ni 6.83217731906984 6.4373143742836865 8.560429711167805 -0.029007700086259722 -2.4842605524690375 0.34313917079489936
Ni 1.8701811525081293 4.448829927453897 10.185879374444823 0.31065353946236823 0.6211075613194207 -0.10649535005077787
Ni 2.7393778866533314 3.1609873410684926 2.0667115046148825 0.44816976337469266 1.5462750680440918 -0.49187851711655284
Ni 5.007533766231321 6.703714426042146 7.0300542579148395 1.2300846579238944 0.6934519765201025 -0.16672369871421608
Ni 5.679030451536341 2.6294838135031178 5.311510441316907 -0.7452013411782521 -0.7861109349084203 -1.6565437690943727
Ni 6.486889881916679 4.599945854606435 6.005746290434982 0.7198947440926633 2.1345478422216786 -0.15189177590770617
Ni 8.520235856669917 5.001504688056638 2.3773738809820406 -0.5350342265684206 -0.54076367285303 -0.5513239648673796
Ni 6.601905430075495 4.425130371311018 3.4023190229295146 -1.8653793093769748 -0.576824166021013 0.5682852753120664
Ni 1.4472936446550164 7.178789115944935 3.879203362410388 -1.480356610974412 -0.29973689254986446 0.08236528977179364
Ni 0.6564295466223901 8.053598171708966 1.2949561577309863 -1.4565291695375109 -0.147628629755978 1.1653638207067414
Ni 7.104791674138917 0.7249100577545847 1.4957439095872043 1.0122032053889405 -0.46008811207883343 -0.361397602784455
Ni 2.6078124725987273 8.762769649663158 10.69576990702363 1.6156598863958176 -0.2607702814786799 0.10112225866432262
Ni 1.0567371842793511 2.879769278435236 12.109723027210352 -0.6886740955154849 -1.462521896785836 -3.4218495727865132
Ni 3.267843721989373 8.525598124355234 7.343507977080537 -0.6986980554103902 1.2773615886329872 -0.1116648100668593
Ni 2.8963654506150087 7.959003694786981 1.5764622454506219 0.2714881821168163 0.29626590328212854 -0.14876222913978895
Ni 5.433931290410401 1.0596452189135301 7.282010453573092 -0.51394295311576 1.5821208740981074 1.1898898308725636
Ni 0.5298263139594838 1.6119773130147914 6.149819957919274 -0.8502103364914906 -0.3851337700591303 -0.5959485455552899
Ni 6.465848306474467 7.985231574035371 10.294724147199968 0.04645494902842967 0.5298208006882811 1.1959519779062435
Ni 4.2576034971146415 4.179966381387501 3.991450720912655 -1.0889971717205438 0.7884251848638938 0.3093952415752349
Ni 3.2860976591357636 5.806113417301318 2.1431066858055776 -1.7061015254178422 -1.2540977330090401 1.5210767144015933
Ni 5.2490117759497315 2.2555235253072254 2.8095272762602996 0.5660252756332962 1.5572315670555956 -0.23265475418938644
Ni 9.211875775507863 7.6237091537175115 12.577797133100479 -0.09482588413264958 2.5200955598897763 -0.8073220217683966
Ni 5.509521668385459 6.621780087161316 2.768809234627717 -0.07835385461955538 -0.5945076993437052 1.1648046057691617
P 7.207813894745943 6.9438032472410445 6.499139746281738 0.5840625927509813 -0.20301096318102455 -0.868578297475717
P 0.9318954426591866 5.672454959210649 5.556106716198783 -0.13618259270256544 -0.9591384643534772 0.19160889199167
P 1.522606184926172 8.899910340309404 5.960039209765991 0.2985721828178019 -0.1717949425895364 0.3680390193603726
P 7.455913703074029 1.7858111030897539 5.947040109726075 1.4235018067688967 0.5440842525858308 0.5320836285805288
P 0.5605829477814843 6.403177381730872 10.99457139181119 1.7006644135626707 -0.7690624640665658 -0.7545460156179457
P 4.561419026331963 0.43698128844640416 3.2930945386457062 -2.1050722013600645 -1.12335996547113 1.54867133619041
P 9.016194680649374 0.5456686198360011 13.495537670871515 -1.2576957347729436 -0.12356567526950332 -0.33245263761533067
P 4.126769722346981 2.9587677989114973 6.6842305939931475 -0.0749438004967419 0.7879760131416171 0.462510605477397
