# total energy = -340874.3207995412 ev
CRYSTAL
PRIMVEC
9.24666945021816 0.00000000000000 0.00000000000000

0.00000000000000 9.24666945021816 0.00000000000000

0.00000000000000 0.00000000000000 13.53343540806593

PRIMCOORD
 96 1
Ni 2.244490320553981 6.622076334221672 12.490630475062382 0.44215312486696756 -0.35235117631147056 -0.06464524678421125
Ni 9.186473679391824 5.405038941587754 1.1456984127912677 -0.22274752237800347 -0.3739469002043754 0.08442731450714491
Ni 4.229898208448469 8.244108604190727 5.924017513822548 -0.4717827748079423 -0.10649149339603595 0.3365897997121558
Ni 5.617203773215294 7.020977656357743 4.143667467379574 -0.25678095781362875 -0.19421984725195585 -0.23365954130481695
Ni 5.642428687605355 0.8798409453907203 11.33488832986258 0.6913357015080481 0.2532338638923187 0.9126007258032541
Ni 2.223352434081958 6.852882451556824 7.269092614325867 0.8794185826243306 -0.18754989143094794 -0.17980367182662585
Ni 6.966450046329082 4.4519014964216925 1.5328370466591568 -0.08630113449109009 -0.23678754541083735 0.9717525535730619
Ni 1.6523798392609075 0.2030975475179758 6.485723096472881 -0.11471336708519599 0.13197755348228238 -0.6450075078654698
Ni 6.558708908153094 8.421173078404532 13.11410196062427 -1.0453994896352512 -0.1688021785097996 0.1033838010049897
Ni 5.8350183199060055 3.4773210246901813 13.05681514441746 1.5430416487084588 -1.0822480259221685 -0.4246814504447654
Ni 8.717149722360338 4.294717361628206 9.369847156203996 0.44348675607672655 -0.676235612641816 -0.16192139222956628
Ni 8.667430380470545 4.266949613126244 3.4943876025823126 -0.28224516352300427 0.8256532159774167 0.5084775591258146
Ni 4.388136463564708 7.258986929231697 8.723137865527129 0.26998460098809635 1.2577450999536401 -1.0036360325452198
Ni 1.3062862466269036 5.2372026435327745 5.742060626777444 -0.42909654879332554 -0.5866650633708348 -0.28694745409468
Ni 4.1541587385918035 3.912839158037628 3.4774708207360456 0.48506895039388714 -1.3523845791070968 0.6472487384911628
Ni 4.49344678247541 8.330777637393819 1.5125100931020932 0.4621717340807396 -0.45859841490718445 0.5867257414054412
Ni 7.311757672055771 2.128370645000324 5.141216666143677 2.640067347160434 -0.8899053410882674 -0.11730375352019153
Ni 5.234807756132839 2.118680135366606 1.8171074070307183 0.2746092442443012 -0.2468413301024136 -0.5436222253477476
Ni 6.598016500188338 6.550673552359486 6.639340790841057 -2.161291171753794 -0.2104741043272891 -0.48837975993467503
Ni 7.917738157595579 7.171855562553715 9.366937229313029 -0.9711537436467985 0.11249707616016756 0.8013097541360458
Ni 3.4114569978571905 3.2654798264950644 6.631911091899557 -0.9164165000049186 0.3278303083519709 1.9323658026998531
Ni 0.7138604539039545 6.306404284235506 9.888326408285906 2.1471105093780376 -1.0966773139736208 -0.32180055721812323
Ni 8.759675155380824 6.3645103553598235 7.454595599123386 1.001783038496881 -1.8436018084905668 0.24476310741714621
Ni 7.074691559470594 8.650102121831626 5.024382223037839 -0.5015404656863491 0.23528036473769157 0.019703134855882196
P 7.237543902666247 4.713304843125139 11.05781835102897 0.7470479074686877 -0.28242256964113294 0.337180124997987
P 6.556156827371695 3.170618244116902 3.2848358797548562 0.18781985726288297 0.00608991494782177 0.3476715114476141
P 5.102654355669958 0.4051354267115011 4.448467283370201 0.5737856363050053 -0.2965520670639796 -0.06895595834442318
P 9.054486718979904 8.541675675300159 2.4793658971351236 -0.2198342053859504 1.252488222430075 -0.500330504538648
P 3.4463076951944838 1.1026468442763553 7.425795922305468 -0.2327593980880507 0.8104690520378106 -1.4613574441640897
P 2.467677182222926 7.1338425042481655 4.8010677573298235 -0.42999694912040787 -0.03562186296866768 1.6161615086225842
P 8.19376973544458 2.339472109635615 7.984415891344377 0.6085374379638938 -0.9178190367793999 0.38526695320288484
P 6.411992003231142 8.056650873461368 8.011495687635701 -1.872190675871853 0.16620742119942988 0.39149313661825474
Ni 4.548122339216036 5.126714189703292 1.6109390405725157 1.0054070084027136 -0.4498641203579801 -3.2902435437110364
Ni 7.376049765074132 2.4838403605051202 10.639675634334884 0.2140952460196442 0.626996930220662 0.040189684845008206
Ni 8.218976156495645 9.107007801727537 6.990966665835608 0.5546008358464384 0.36088286793156554 1.157517070968813
Ni 7.863885554440259 6.743679284787539 3.090494928251319 0.5826232892012934 -0.3004822553563212 0.09789526708659269
Ni 5.072537953115549 3.016864623707107 10.199203135470503 -0.009686888270460737 0.7855198382916407 0.2823608631652621
Ni 6.778650188828305 9.053247665267195 2.6807167487849606 -0.47736309710919733 0.026234508216496755 -0.7481177434940987
Ni 3.922483434323857 0.4148703203588088 13.233859275958372 -0.01754957884798913 0.4132387558254625 0.2958347292819808
Ni 8.90208311231679 1.115647661590294 1.0220991062808222 -0.10133643155765773 -1.0783319786972139 -1.3657070072476158
Ni 0.5636187185694325 2.3731762199551785 5.232242730014143 0.45251235661410455 1.3978442541017926 0.5002831962404803
Ni 6.146584848635139 2.778050890586841 8.118045060259112 0.11834890695525424 1.494019196063169 0.4834208732675029
Ni 2.677326919747059 2.6434378760375394 9.503286768394023 0.532270033559722 -0.145029244459918 -0.6240633015136349
Ni 2.5560753426221106 4.571645866418496 11.093654743334733 0.34546139117017277 0.18732080613927737 -0.9982212892875518
Ni 3.7923273144725056 5.311065039481382 5.460862934680009 0.594467333024073 1.079529855660057 0.43274083041413214
Ni 1.6544141065504285 1.7028481613800235 3.1982352719060487 -0.17378240533321038 0.6804295961185056 -0.6496601761461328
Ni 3.2980188564579023 1.7418043799743503 4.880590039678048 -0.03819373746090197 -1.267601681032746 0.28036260178831074
Ni 1.28697920071545 6.94017101161627 2.602235641422191 -1.9427018945185381 1.4001258510471177 1.7748294269118596
Ni 2.045899599749244 8.336723245880918 0.7780693268968348 0.45372874551970893 0.7570315010439608 0.8689271961747035
Ni 1.1302573993968537 2.535501502989455 7.605439292642216 -0.21687537986794259 0.8547341925037731 -0.1074631132806859
Ni 0.2686786262643332 8.577229119519286 10.196225707892204 0.6947874075020744 1.8454671438340797 -1.490272070315911
Ni 0.062266147731387944 6.047303358237017 12.243915462856226 -1.4727636291185022 -0.8784197090461711 -0.23801087629497722
Ni 4.445918901256602 7.288511544938245 12.743056230350392 0.9140832238860517 -0.8678997833514537 0.655767060374819
Ni 4.673007857453628 1.0031156938017922 9.115878131776798 0.05214480032435536 -1.0066524507740404 0.5283226188761998
Ni 5.903425180850896 0.899564091429576 7.0000071346036306 -0.7111756190521107 -1.6956985849169635 -1.5096887842796258
Ni 7.202600738633975 0.2806539879309633 9.136327141371233 0.6691128855541058 2.722695660785627 1.8192629746348863
P 8.00971477909042 5.926005547764579 5.229617600543711 2.055523186787344 0.13429643142344613 -1.4910889097902513
P 3.521529351559271 6.608354276686905 10.627170438506027 -0.17087474476811215 -0.855776003504726 -0.32044224341801586
P 5.3441773629530855 4.646876769452781 7.212252412255802 -0.22591383592112707 -0.5984240036789759 -2.3222671693509556
P 6.010473873627189 6.816820440515316 1.938367306158215 0.013857474708382587 -0.24048273487423744 -0.5927310670592565
P 8.122505653624861 7.798021527607268 11.618345907985281 -1.0867685395003412 -0.5993200331306839 0.07222974399968851
P 0.615715379187115 8.065019109356898 7.984591578064836 0.05712322737555323 1.1489972064232599 1.3257772609322134
P 1.39030148568412 4.902584167745569 8.068214758335346 0.3573332029070943 -0.7393194284761784 0.06133572279500404
P 0.8197523883260697 3.010613875126579 1.3494136378316983 -0.7167577411255784 0.40119725127989614 0.29487879312661475
Ni 3.028829814037289 8.855378184683287 3.5688214427058855 0.5714729290114288 0.08020736288852638 -0.17856748542667955
Ni 5.347866784082716 2.8470587850490916 5.435920968376582 -2.9332204158451933 -1.599495360820813 0.6159874664840359
Ni 3.5505638937824346 2.252026356194706 11.850241282987275 0.13455894105621344 0.3345717408408625 -0.3250234350307951
Ni 8.625006660814535 7.74943027939621 0.46705389966977096 0.7989101435556176 -0.05237954204298076 0.4058288365146366
Ni 8.598977286178163 1.9246017892768061 3.0495839637251523 -1.2896836005334498 -0.3457164446037723 1.2030142840696636
Ni 5.227872754009471 5.277758535950225 11.000774722229954 -1.4080433061219815 0.0689803838244554 1.1742654940717454
Ni 3.733056162991462 8.648761354754441 10.994021879495694 -1.0865813631901995 1.7425780230773216 -0.24997319086317596
Ni 2.4300247440277922 8.961382003806326 8.841028278289617 0.031001847698153062 0.2425756128475242 0.27249939699015
Ni 3.0736021877457467 2.9566965452847747 0.6146816015372584 1.4440233237610165 -1.966197663647633 2.2948041880439964
Ni 8.511494546059264 3.3994733141880125 13.175097615966658 -0.8724647770143168 -0.29204363767066477 0.40694006730094434
Ni 3.956483438067351 5.011685621150378 8.700063726462261 -2.026638899652826 -1.2374215579049397 0.9181810481045091
Ni 1.0904504872087273 8.578292486511534 12.277208096383136 0.2177842648354572 0.6733685755066662 0.16700549162069303
Ni 5.889777096672111 7.728310886263184 10.53530570171211 0.6390471765169768 0.1228586219001497 0.7595498965904403
Ni 8.315899746171821 0.6603915875327949 12.18282549148496 -0.3144042647540521 0.7272267589777024 -0.5436492219309412
Ni 1.2463955682895063 1.761952872810106 12.656712679913621 -0.015011642917483824 0.3657826192260281 0.5121616928456212
Ni 6.47892864372588 5.32763507122148 8.872208972503225 0.05565924123551705 0.043045923346880705 0.4029468869811512
Ni 3.536250049399805 6.2444331052610975 3.1938505012301808 0.2563161023620682 1.8182039372427523 0.749857866113657
Ni 0.258758799227069 7.502202077032926 5.559522124220927 0.5318206047271292 0.9085232132997709 -1.6461094611349263
Ni 8.460341970397309 4.176489445429045 6.552213122830874 -0.27881968278122304 -1.251596306743425 0.2591314603236763
Ni 0.35392367236476013 1.731817976916702 9.825166107614079 -1.0018647995774101 1.0601344818525806 0.2736185981962578
Ni 6.950647488157303 5.845587263142017 13.151400251377638 0.06524791336521667 0.26328404903946917 -0.4411419099936338
Ni 1.672694772147624 4.3579275943153215 13.242953375409478 -1.4117238402973622 1.2208536262439298 -0.1619789849403791
Ni 6.3297891113955 4.675717131616491 5.1048116036638 0.47528667419614273 1.4189370702163497 -0.8797114312744012
Ni 1.8961312938930104 4.709014388478149 2.536801584720849 -0.6339000850983986 -2.9754556703653208 -0.15865917653852674
P 4.03199174118657 4.337067107928234 12.822808754769111 -1.6177859315998848 1.0411931648633874 -1.0862877432091809
P 0.45159069426856213 3.504432259657797 11.403800983629 0.8149368580011772 0.3539241772255453 -1.1114945814921116
P 8.992571020022483 0.48972026060978363 5.065957098433948 -0.016249371979326854 -0.490455154406465 -0.844184956233017
P 6.614290638504506 1.3240213587237275 13.434154157951555 -0.18182558735266105 0.9017182745627954 0.4010681819011996
P 2.5952904679623767 6.2068269004134535 1.140448153850404 0.6431308596680473 0.38924624956560705 -1.5619243445455746
P 2.0686556533833853 0.9304276248794086 10.788340812520026 0.7753035598802711 -1.2070714848581727 0.2753882885021709
P 2.9494471563984814 1.0541573094297734 1.7009498201321205 1.5648008947624212 -1.5942837347128864 -0.8383650071171302
P 2.2467095212334582 3.6738682315358995 4.553946816332714 0.5800079630656333 -0.14163333140449158 -0.01420637340736908
