# total energy = -340887.85881839495 ev
CRYSTAL
PRIMVEC
9.07588975498188 0.00000000000000 0.00000000000000

0.00000000000000 9.07588975498188 0.00000000000000

0.00000000000000 0.00000000000000 13.28348206141415

PRIMCOORD
 96 1
Ni 6.442719990795871 2.107612187806546 10.889227079446593 -0.7219066323163696 -0.9031084700421028 2.5085510495852863
Ni 4.930722142075767 0.6515935193206659 5.829203459227062 -1.548175113280282 -1.925688390679677 -0.5946609370921178
Ni 2.903522337231856 1.8236639018732512 4.715290470442677 -0.002768049663440394 -1.0813980192170471 -0.8069235007783975
Ni 3.2786560872312442 4.520891265658077 4.7723569422659455 1.2146865782012695 -0.9060750088695945 -1.1211061364399464
Ni 3.612195034621405 3.0842414534341116 2.527846756615891 -0.10852009379029051 -1.2990264752009306 0.6113980473411406
Ni 5.038080841631637 4.8486942507421 2.3139961049728797 0.47586260130427077 0.30038635320840523 0.40371821792953694
Ni 5.266648048463577 4.6336682713797135 11.490185302403058 -0.07174791926726352 -0.46872444759759274 0.0488761568754126
Ni 5.826412623136655 8.05295526989832 12.31681643095819 -0.5739859252412696 -0.20512595264149835 -0.7809748992334357
Ni 2.086683186100921 6.579448269501526 0.5123893378980588 -1.74165165460831 0.11438220899802237 -1.2625345509224837
Ni 3.073078109072482 1.5675513697262322 0.1469522684807562 -0.8671960724162097 -0.523576362440466 -0.2513600439083735
Ni 8.100522007946532 -0.005559890045475172 6.62922770946467 0.17940592216757492 1.632448675818382 0.6278942452239509
Ni 8.755320223929061 2.5803208282383587 1.1672011677151752 -0.6666199439289229 -1.007524826076665 0.5026478398179149
Ni 7.0539630119885945 0.8225106746200267 4.520846793798425 0.36839100338315267 -0.2187250314821717 0.19837115041616804
Ni 1.043990519165791 7.778818020757645 2.6488192907591146 -1.1998608260423465 -0.6974520988184311 -1.1918335848624957
Ni 7.968694709692326 4.020973107831007 3.3258516213897096 -0.7311356071138053 -1.2365697514276057 0.7397084363844809
Ni 7.661611980850256 4.167149387740284 12.615840677313521 0.07777972728364023 -1.3217822808402075 0.6503363762775509
Ni 8.361136181397104 7.228746496310764 9.223797684571124 -0.8424941987941555 -1.4102583114954292 -0.10902120179642515
Ni 6.742278807055999 0.7327247127495129 0.33592499879883775 -0.006756859107859331 0.36336038293778067 -0.0008674902066178608
Ni 1.9732799439882662 6.876847024007125 9.206754978845703 0.2043826467175706 -1.203036909777483 -0.7072192055075239
Ni 0.525982297939045 4.7923420514401815 1.332253483074304 -0.2719707781801897 -0.2352178869308723 -2.779810146410432
Ni 6.501731425787186 1.9751314254921464 6.6659169936775875 1.9363983208980136 1.5266961174708997 2.1419652177316726
Ni 3.4709106592738506 4.3414246222378585 0.35817091210354585 -0.15297780988303333 -0.41351154987087496 -0.2210737342200064
Ni 6.319895975148769 5.796008392558231 4.461801778015128 -0.4372605726613566 -1.1179452222134618 0.9153767458864945
Ni 5.558601269134235 3.3151230121459023 8.973669794108707 0.05707283375359203 -2.1855153344084814 -0.8839969460236323
P 0.26684477174671606 5.792595858021668 12.340222242969741 -0.21313108233416198 0.2620378353371939 0.7453214116958841
P 4.060371545126808 6.102519340347633 12.747294048911062 0.29902855362893016 1.0807567860886227 -1.860234017730609
P 2.475122190437016 8.689656161769394 1.201043345321391 -0.5873209517872787 -0.6408803730709737 -0.6374530925569796
P 6.82014994089566 7.723691066568588 5.728076265556309 -2.496560967102946 0.6487906290569858 -1.0493445903259282
P 4.8697503149038734 1.084396380221056 12.32336559298368 1.0209413565928869 -0.38118378427244676 1.3633871008651874
P 4.14894315295213 6.439361911597658 8.16829167652238 -0.22918119381848917 -0.8260265401564355 0.858792678843863
P 4.8235721879835705 1.1579927700002892 3.7237722077214097 0.4558347361191181 0.49516053030193435 -0.3975090037950315
P 0.4071897925077434 5.587399067231352 3.163434944406692 0.3901901015361151 1.5526393196992228 3.2688293397013184
Ni 0.6908594486264834 0.20874183331686377 4.540015072897418 0.026019821102529383 -0.39833021414474623 0.7850043321078028
Ni 1.9572882262929883 6.582897107596988 4.493549240272836 -0.378897045120799 1.0741647346934018 2.8659847826259868
Ni 6.275932365321341 5.59954260768327 9.148506826180252 -1.3741985896583946 1.7056515823646172 0.6488438508924245
Ni 8.490494837646137 2.3604846273217746 9.948531076417863 2.774485905984041 -1.0930649140320146 0.642996390972712
Ni 2.7362083101532817 5.138088070510336 6.8773770559670595 -1.72952273255526 0.6458469730476296 1.3149714285659613
Ni 0.39861216912873815 -0.0019585770026339243 9.020534058292213 2.3010594249250884 1.7280019250353595 -0.06764392440121898
Ni 1.1890776923080797 1.0733782500950246 11.569487704052339 0.8600499482897317 0.963473344283405 -1.2330745937901537
Ni 4.203933968795313 7.089123008782866 1.411821808292523 -0.16678720496229985 -0.4798334130265607 0.6646959874333327
Ni 5.666649736309198 8.019247415460033 7.6051917123754 1.2920459301180394 0.12112184171470106 0.9508330298115752
Ni 5.475720244166427 2.9951525198944706 4.788349567550196 -0.3592211639584265 1.0206914453656097 -0.6009344288056554
Ni 0.7195701181822395 7.612711087012482 6.696097049779806 1.4709646282365505 -1.0428942067148943 0.2510214296220322
Ni 5.065417421483043 4.959129676914711 6.92616722395019 1.1309004968225491 -1.3382946766729338 -0.24185981772742216
Ni 1.3727010932223038 7.701264543058354 11.502179998263488 -1.8427543728886069 0.18137153053437796 -0.42072092313512055
Ni 4.679773791182217 0.6223954744866825 10.218039621798837 -0.1920135836292564 -1.765308889015934 -1.2845179971721103
Ni 8.423932262403703 7.087997598456979 4.606446047738841 1.2544214348970462 0.22455552212101973 -0.9193437009540426
Ni 7.3175268495997585 6.235826008626998 7.14028379916214 1.530371509439958 -0.8671852737829322 -0.6903427414671595
Ni 2.500035507731873 5.5990797373073 2.581219341321124 1.0641932253029867 -1.6051363611566742 -1.2187316948049203
Ni 2.203498962750139 5.4882631237662425 11.439841342099024 1.1015153587922126 -0.9161866433822995 -0.3009653656403268
Ni 1.2501039748183231 3.3929850700958393 3.570918795741522 0.43578193123330117 0.5288183275656957 -0.1822279649974023
Ni 1.7489693294373048 1.173993563585292 2.5202883556529927 -0.4115467128350202 1.1527939544615307 -1.0820515936406463
Ni 1.2689182942180455 3.372927353803805 8.192029666097861 -1.3674041924443803 1.5636508403183782 -1.366625148186511
Ni 3.718936573675982 2.6623396436823015 6.753122680099311 0.6366606785626712 0.7257694577058855 1.0917456809999584
Ni 4.30923244138363 7.013339329579932 5.873597266227449 -0.2500294980224081 0.27864896153131363 -1.3507966657946866
Ni 0.4434634009712605 9.188158480799379 0.2945834135129351 0.8090706290283871 0.3684467963217526 0.8941299206925762
P 0.7316782626642316 5.702662866737611 7.786644160467428 -1.4076360433812336 -0.09028762994266386 -0.04422348859474965
P 8.668781615402118 1.78985621264799 7.896804587181375 -0.42262328236415597 -0.3134107904925312 -0.9076984034056302
P 1.9631966305038997 3.5091020032362397 10.334522313295151 -0.11186869854754927 -0.46374962009082066 0.502529826182812
P 4.188150996563707 6.309876192892477 3.7544296556231576 0.15432018284354068 0.11588964678148428 -0.1645716853682198
P 7.238194497514387 3.958857718553775 10.317825398968248 -1.5808831450362646 2.7003059802365175 0.9234433249447128
P 6.367989114801026 7.747959995692976 10.186318479621331 0.61300858636137 0.0864065497207028 -0.6313292390474289
P 2.605606257011937 8.639566326377658 5.692118498055219 -1.0760213282861661 0.08322018157292119 -1.5771560738936643
P 6.843901544305731 4.014420315449628 1.457118666320538 0.7067777470947312 0.7235637083038184 -0.3232732851089078
Ni 5.296362511422907 2.840780711563606 0.5031437290353008 -0.15236897265444083 -0.3883337650536667 -0.9461857608475511
Ni 1.5380910316791991 1.165625593258932 6.841258645217838 -0.5179991254630046 0.3491082438941407 -0.18278280905960778
Ni 7.0385703030151605 0.5132814978580167 8.980178114630435 -0.8487936586496221 0.02655949565608329 0.23346362324392694
Ni 2.638651571500306 1.8619460047328893 8.950649707410465 1.929763074969683 -2.376661684941436 1.5345081573161508
Ni 6.476917943279305 2.0171527949184442 2.486561441846283 0.09372802308278051 0.3625599985236724 0.12711225497018108
Ni 4.21722107135257 6.806527030418582 10.554111650011217 0.3908063949638753 0.32414180375679014 -0.5549867584309474
Ni 8.077786904185652 7.473105751264034 0.01569312092332863 -0.08703467022300496 -0.8576637074457424 0.8348310258219429
Ni 7.812426040408958 4.008012737303846 8.276206728118385 0.8352696560212582 -0.575394375553022 -2.7422111051107354
Ni 3.3224200274847235 8.257217244046972 12.468500868341511 1.3054364924923325 1.059071330695389 0.12296352290913018
Ni 0.2635520389545215 4.9756296444345836 9.890150415762427 0.2200805170688016 0.2748938653642556 0.891550332890858
Ni 8.676777474249757 2.5499892047777357 5.312901505268598 -0.32780691131320316 -1.34820833624222 0.9998588248909747
Ni 3.793830815685876 2.58484062132136 11.27063589960178 -0.6048867285851841 1.5501204099321109 -0.4954824324177273
Ni 0.9985021598645805 3.5289237463954266 12.461713010416256 0.25687377463775113 -0.45273064327249773 -0.7955311997810557
Ni 3.3759496250821974 8.423378633130483 7.628942408196497 -1.4197827060460968 0.9976829002855786 1.744520234405357
Ni 5.810239387646877 7.968413357110855 3.6679146444094983 -0.7940852113631485 0.7291502012526604 -0.15750166589531583
Ni 3.16195829714845 8.47715327975053 3.326051290963657 0.903286904601496 -0.6633600422307284 2.617817020402666
Ni 3.72509910279919 4.476782441595052 9.397266072472158 -1.2927221302494574 1.029311325824137 -0.035618006313925754
Ni 7.353467372910372 6.0437075749302664 11.331248321540567 0.4673141975136275 1.0041793066431994 -0.6293312347807936
Ni 8.03011125546074 8.97057310053457 2.378314212686345 -0.40027396813467836 -0.5154203089922349 -0.16156040934572174
Ni 4.488236214427879 0.36743467274575364 1.7392327149404296 1.5888545932775153 1.593023379943224 -1.0331204151575821
Ni 6.15623953162933 5.940841440788223 0.2637671375410017 -0.4435638891715651 -0.6840612793338219 0.30701311449630353
Ni 8.252633919735896 -0.2772520944942616 11.280053950369311 -1.0605420017036444 0.4998062566040618 -0.17389167721756502
Ni 0.05777257604386583 4.757381724219858 5.5691392846938195 0.36289449904495563 2.1720491816012464 0.6715726599485079
Ni 7.594541155783228 6.132959874484955 2.3251676176352625 -0.91419223866009 1.410851464994738 -0.7832708943564639
P 8.789599859420019 1.7460287411664366 3.2821757172665613 -1.054116557793275 -0.04873243220869672 0.3165686193952225
P 1.9465696005278785 3.0466944976421906 1.141282241838799 -1.0808789134887835 0.5981003017909698 1.2562374050598624
P 4.864731347886002 1.1100357686939053 8.019849146948793 0.30977113685741486 1.0973856528945551 0.2001999760947907
P 8.27126672134112 1.7860987943018805 12.461965320150608 1.0224943029023035 -0.3017384963609255 -1.389395352003491
P 6.119518481802375 7.9259744967572106 1.4187684942879633 3.046597837727785 -0.20675397516322458 -0.10408288395454332
P 1.7443769292365043 3.310821040416298 5.882549723852092 0.03473457526770792 -0.4834625251387158 -0.03626335320740851
P 6.957377393536184 4.302561662435827 6.0204596833999275 0.39044721185224374 -1.2199755945143507 -0.4014307074469409
P 2.6915730844862122 8.67372797530219 9.97897705608902 -0.8582969701543669 1.6574853070720357 0.9070671975795346
