# total energy = -340862.8657023244 ev
CRYSTAL
PRIMVEC
9.35921328715392 0.00000000000000 0.00000000000000
0.00000000000000 9.35921328715392 0.00000000000000
0.00000000000000 0.00000000000000 13.69815468952979
PRIMCOORD
 96 1
Ni 0.12139461227495 5.644026795934439 4.662249062460478 -0.4010735812178383 0.1985354439081742 -0.7698296812498936
Ni 4.862747745707309 8.30931548726895 0.28477652734143477 0.7260839036225107 -0.23621367518523834 -0.683019982553501
Ni 5.757451102146959 2.9184554116124803 0.2124251287791862 0.5786933580192679 0.5727240278097104 -0.08113373135753768
Ni 8.855771875323281 4.807930833298139 2.1972391128598 0.8406208930308425 0.9684054914776998 1.815941623571137
Ni 6.868848324560574 1.7342341503640084 2.2500316274280783 0.16706128455929295 0.7583700173497261 -0.22261691033741016
Ni 5.119049802447129 6.001595540785444 6.314314935411977 -0.9701245310513357 -0.4165120272600956 0.6046080210025007
Ni 7.380469720641722 7.689370556234117 11.199761581181768 -0.21286805848076243 -1.8882765256901224 0.6800675847933965
Ni 2.157298670021123 3.4821421113870232 12.690531707715579 2.0680912532603415 0.28304786192995773 -1.184741711012721
Ni 6.601595988237567 5.840673226979184 13.101052073761286 -1.5621079213112903 0.7871509461371605 -0.08030300792612621
Ni 1.1620212072558895 8.945068129599514 13.037218495240626 -1.3227017073306835 2.462485108465159 1.8081527236543375
Ni 8.89327424309237 6.205411129232516 6.9373615097407155 1.5699677836753414 -0.45026135579639875 0.7973047467417107
Ni 5.116766154397301 6.783464221451669 11.510874934802766 -1.0655224856373713 2.6216713611517495 -1.0692302735062618
Ni 4.542578417278881 3.2953415727538276 2.2803863639854733 -1.4782963860112732 -0.4080528407491488 -0.7770624515529069
Ni 4.023806582222044 7.903237939785756 5.032866422520784 -0.5039950978744288 -1.2417276414794616 0.47033498661782225
Ni 2.3383526516764745 1.2132722593905345 2.696905985768636 -0.18102751693139793 0.4479756450860156 0.9805279857728467
Ni 0.39267328216777536 5.47910809804098 9.264280946426744 0.1295748575780607 1.3374685812272127 -0.028787099435021394
Ni 6.603523986181273 4.340896729468533 2.252647527550729 0.516030431772408 0.22700886875751874 -1.9198147055077195
Ni 3.063279878510124 0.598655528498187 6.401736539260421 0.5262546806035775 0.41786159930945455 0.04958449579634686
Ni 3.9120482159802994 1.5499325216869764 12.817554950880554 0.155006667387604 -0.0900315480677998 -2.207224701061115
Ni 6.348382471893005 9.185805814589898 5.480768422483764 -2.4315274837413803 1.1236389301641294 -1.3143469076080847
Ni 6.277018470335907 4.7952023031843485 10.849185104601359 -0.21720499529321946 -0.3284550864201634 1.1865471396525757
Ni 4.456539169237648 1.0466314662463867 1.3049410742431242 -0.01235517913124324 -0.13193281628727602 1.3661726340301246
Ni 4.462510347335147 3.7891711043156255 7.089644333732241 -1.1510342914579468 -0.46131041452170873 -0.6354674295855185
Ni 8.125537974537782 3.7389402064327477 9.717196676964692 0.36603638710804703 -1.782686203952117 0.11990262459561933
P 0.7126919272617678 7.59516071496543 8.903334461488924 1.9794990087422297 0.359106235647117 0.06974117324987988
P 5.515496719425109 8.677319754970602 3.5799720963674866 0.6408045255277158 -0.8492040067141633 -1.935015067397242
P 0.780638880036112 1.7822937107568868 11.827041327694674 0.25204138624611433 -0.09148576401582308 0.9057171113095434
P 7.587972839136466 1.317926982723186 9.500259471444435 0.15238439927340852 1.0448261336302844 0.29247095501607046
P 7.97788702521781 3.047968205520299 0.8063243050686758 -1.0684283464302569 -0.35260880084823143 0.2347697436498602
P 8.38599552199122 5.49399860643145 11.157558080562566 -2.0135977501981515 1.4874744529661157 0.4053912347565857
P 6.208677494680834 7.694658511759331 8.281466212117042 0.5293225208956239 -1.7672007067220081 0.7848624072132999
P 3.426501588205784 2.133273569431343 8.56578507392718 -1.6851699174714978 -0.6510161759533949 -1.0143860719728726
Ni 0.9632783124276963 0.418983902650046 6.500815043297634 -2.644789949447084 -1.2706731208692181 -2.057325272993089
Ni 8.163929467572169 8.49356096066607 8.902143033633418 0.34667957984799 0.5612779907562979 -0.7428552095435786
Ni 8.535396644201837 4.847847878103519 13.411602938661815 0.13838011457451652 0.04174597358853455 -1.034622453624405
Ni 2.2037203680831823 5.296481768548042 6.752628421329678 0.3066377334347558 0.2763195420671887 -0.4289929333359257
Ni 8.698948896950727 1.0853692501735772 0.07207062216267963 -0.2284332599088711 0.2066375041900183 -0.6394603527949955
Ni 0.5299935318262738 4.146075345020986 11.354620060678672 0.37871552523761226 -0.7671320798130723 0.06786478216277343
Ni 9.362395451492104 9.103809746702456 1.8884412286139132 0.5342346134852606 -0.12507414149422977 0.21244948288610507
Ni 6.893828064908887 8.955812506489684 1.5386041298857027 -0.57113945693141 -0.44844255742010514 0.3209371807765634
Ni 2.3857851447769822 7.72501979976605 7.264925552612456 -0.10633208500003623 -0.17618587256838045 0.8968637746839716
Ni 3.870886395803497 3.6998654908260744 4.497761824301024 -0.49688651185410554 -0.30826986972154 2.2229495679955398
Ni 2.5789873853203495 2.1129453581025537 10.571619851122186 0.4569418531403679 -1.086976027525457 1.0299044793234458
Ni 4.769698446890172 3.5551533344882587 9.378016914442785 0.9013302950957574 -0.38507514890705297 2.2282565820307494
Ni 4.728321364807034 8.705556501553914 7.367524992700264 -0.3737576670117047 0.370776987116826 -0.86514124676971
Ni 7.271696943448726 7.351914760805563 4.008504268445539 0.4578201419802631 0.13590105690640464 -1.4833010383147165
Ni 0.16029431059255864 2.1204888840376386 2.237031680128038 -0.9945299564788936 -0.21575386466898971 1.0308964109230696
Ni 6.044722795759229 9.17628749464451 9.886752865057698 -0.36130375751906807 0.10030850451377564 0.24332894607378092
Ni 2.1049619491414777 1.7958364924294272 0.4570843241502151 -0.7998694221450935 -1.55569713268894 0.9194552868312422
Ni 9.17087786934615 3.0533591123920223 4.54880135821466 -0.9959674602563687 1.0000863675207488 0.07256090208686214
Ni 7.991804175423109 2.5449853633325543 11.87399930867991 -0.22647999283724218 0.5795302520982665 0.2057579297985424
Ni 1.775536358740595 0.4778879835156076 8.68343880863854 0.2653800123365494 0.056889514098192345 0.5632788232364107
Ni 5.676559421431155 1.65068445306562 8.22661841430392 -0.26460611028500236 -0.4425840417567991 -0.23789851908682902
Ni 6.042448506922721 2.9905962278750517 4.028545151925436 0.3769736028458411 -0.9598234062356438 1.5686362093481114
Ni 7.276694763361053 5.911438238883867 9.17809288689374 -0.10873940888994822 1.864808524475169 -1.4790646316358658
Ni 1.9147172200069038 6.602138822610066 1.18856861583513 -0.3194076315059144 -1.0963050182358667 0.766813520131389
P 3.065741351613011 5.786118372542944 4.253181246321874 0.43284778830564163 0.07857599793269048 0.3216619747577299
P 4.085118788674576 5.446247900078098 8.775722523806186 -0.568924194447646 0.7024816908225385 -1.104177479005408
P 7.46709859912205 8.657684125427416 13.15168073821022 0.6490724219634628 -0.6151875962905599 0.239991911280748
P 2.5412884740715636 8.798942732050534 1.2597248428565468 0.36556073302320913 0.7778468951274152 0.12105679280472055
P 0.0653853360889439 7.045194621916487 2.3648907010423956 0.37533863834557935 -1.10302176813441 1.118929440503602
P 2.9846905642707857 4.046951916759841 0.915868281439154 0.10710187328652523 -0.21926624869762237 0.7362958111585061
P 8.115916703245885 9.251479414449065 6.510747040471718 1.7619466574119205 0.7054142910883012 0.15379902023274802
P 0.9802559253882964 7.5309845892372955 5.680666244235518 0.050410334131751895 -0.2811411318255481 -0.6860621118139346
Ni 3.797248105409891 7.292465037803506 2.6153338902445444 1.5214263844315281 -0.4991963909342048 -0.45087096435593965
Ni 2.750494969390358 4.433843076939161 10.49690993080356 0.7870553010995607 -0.6278723908470799 0.11551863659531073
Ni 2.9033870781689486 7.626298817677621 13.01467121443391 1.784198269721269 -0.5665050434831922 -0.7659303461954873
Ni 7.0455409128092885 7.235327040491234 6.274741373735403 0.1833638783740584 -0.6769501222103373 1.484143845930986
Ni 1.193580474567435 3.3318144270578287 9.106314272186612 0.3211708940539243 -1.4089948714019733 -1.2545186225965426
Ni 4.363096783461115 4.8903387065716135 12.407145023552012 -1.0115329187947935 -0.8416485629644085 1.3095122052236028
Ni 2.0709131310870883 3.944721229676802 3.0701261430529456 -0.8646409100945239 0.11975298639163248 -0.6333817507010834
Ni 6.188208895152261 0.992188922369975 12.598877867604301 0.24455484806108208 -0.671236873875644 -0.8056731733110641
Ni 2.1552770799442262 8.876764590797716 11.08490250756745 0.4476393447925194 1.7335534509812078 -0.9460793171766738
Ni 6.78254701854641 3.792736964590151 7.887452690601992 0.29185954668431674 0.39940982036217015 -1.2063052961161094
Ni 8.925366985563095 0.5846541453730173 4.228497257114439 0.11404719425610681 0.005197485040539436 0.4411884469608531
Ni 1.6373288556594587 2.8975375698445958 6.647618983812238 0.09272529284987902 -0.015859078519443657 0.41857456621607914
Ni 0.451667211481199 7.310734222202123 11.318100410308077 0.2144821970454177 -1.2760043032741444 -0.7841383845630817
Ni 5.503844498843001 5.527663696739763 3.8327438578433926 -1.0481132890219884 1.2699097603406324 0.2696927807792904
Ni 9.32431281249724 7.147256843159785 -0.009263749343110228 -1.391090737428043 -0.1237417958360514 -0.11351934677709483
Ni 0.7473331835192479 3.703356477394048 0.7588478236655689 2.0542769730850683 0.27374586780274146 0.0021134467985770055
Ni 3.6097737034177304 8.41561743214574 9.477945235049361 2.1586753313975016 0.9312509939145898 -0.9511978693501618
Ni 6.899640136379965 1.952753062935172 6.091021888126811 1.0462487250094241 1.1499392586215549 0.1148177538735442
Ni 7.495363423345319 6.664246562194709 1.4685794317545484 -0.7147227129734207 -0.24327598134865847 0.25484388869191593
Ni 2.554765741250871 6.552010876073697 9.955819179744989 -0.8257624878617714 1.106258787014469 -0.46201592522916557
Ni 1.9212312324769023 8.332432744166791 3.50891975661391 -1.4700500868420812 -0.4636290353525564 0.6241543185655444
Ni 8.664750331483233 0.26129145336015924 11.172817341957805 0.255203843134496 0.5827646998751641 0.4598695683101241
Ni 4.070246998710743 0.7474848027750152 4.207702956962366 0.34959572505352055 1.4118840200243101 -0.2007126540651511
Ni 8.898215907724783 1.7027778343989717 7.696061457835845 -1.0182846356963302 1.1190801071488534 1.1438868817798882
P 4.752599164156425 1.7231996378609504 6.131390047014165 1.9561235672410828 1.2480777520672055 -0.9606549009980035
P 9.022122532854542 4.112971807511811 7.642597887672596 0.6725213970150224 -0.7004461484497485 -0.514400609478469
P 5.334751591809283 6.331292548372577 1.2162924775285642 0.34932833032474675 -0.4259657164738277 0.39756171140983787
P 4.537168791980521 9.10124532225306 11.417521461552763 -1.2236648704404798 -0.5399992838831797 1.1465934820777737
P 1.595334065497269 1.9409885317932345 4.723973074299043 0.40552776033445 -1.0163941035418367 -0.9307766253813325
P 7.202719541287964 4.626277861990373 4.80949101415841 1.153928582286606 0.5777469349455986 0.08949932971341361
P 2.2000796341021056 5.881329649636761 12.146414187069658 -0.297754572012513 -1.465975145441759 -0.6276561610712159
P 5.3227062842677775 3.0355672478726725 11.639459294749345 -0.30297853941561365 -0.7176445146059061 0.40395707341322035
