# total energy = -381164.580618566 ev
CRYSTAL
PRIMVEC
9.24084043315043 0.00000000000000 0.00000000000000

0.00000000000000 9.24084043315043 0.00000000000000

0.00000000000000 0.00000000000000 13.52490405238048

PRIMCOORD
 96 1
Ni 3.989973195600143 0.6518784673809106 10.806547654430863 0.9484951257070182 1.0217240003951824 3.872320730600873
Ni 2.539706429289181 3.241113954176247 4.703339292321739 0.11556234534905259 1.1369790989164612 0.9123341024054287
Ni 7.55005324514188 6.237197778714595 10.13342634265368 2.565734697885129 -2.1078914159764146 1.349668208617198
Ni 0.538383387082234 5.0365261173033025 2.398168169988689 0.3566426045979729 -0.4333414401126085 0.43434931255183257
Ni 1.8476321534190967 4.590415295972814 6.683642194391134 -1.2924043418987226 -0.7514252106007769 0.9306467846716875
Ni 5.372042558202866 5.237763903286276 3.875060570351759 -0.3954444079565189 0.4498638632476639 -2.32331617944076
Ni 2.043427084282266 3.6889435718603565 0.8995089695667089 -0.2019915207775747 -0.13014384270765328 0.17685615916252767
Ni 4.483443325061353 5.387715023878906 8.62151762496383 -1.2003745324539714 -0.1677426268970337 -2.0574890522644633
Ni 7.568553408044848 3.7537403462237955 3.405679464194972 0.37553687039931455 -0.7129059714796561 0.3013039799266682
Ni 4.942093967100795 3.250696705889722 4.888441646514068 0.10510464035083834 -0.46906280477361795 -1.7232577254821546
Ni 3.3323487735273924 1.3163669858594178 3.669117348329729 1.7349883836555215 0.9002848845503786 -1.094539955915644
Ni 1.250562959869394 8.998000560459515 11.984390743197057 0.051469114413569425 -0.6481164858080967 -1.8682265490177825
Ni 1.6760574657970244 7.385279816209411 3.219427549430651 -1.4334473480173828 0.578181708490172 -2.149219071080608
Ni 8.224736258982302 3.4992106324379195 7.695981827816599 -1.0527525875662127 0.15441428521924375 -1.4667629314503772
Ni 7.5281986570971675 8.350115984390623 10.549980335290291 -0.40778158936563325 2.1157065411454594 0.7652348627903595
Ni 8.133076360963058 3.3127119872292883 12.340068850141423 1.9105422790668578 -1.104897130780252 -1.2932278662412824
Ni 5.8439260839970775 4.9131608951481525 11.28050020443785 0.8260571362840547 -0.44467974794356324 0.2294737853582435
Ni 6.616063002919762 5.098467471917981 5.690657501625144 1.5618209861984909 0.28837055969445174 0.7441381900210603
Ni 7.932189726923298 6.045838451344643 3.508644606617559 -0.9798834102103122 0.6549026554919947 0.5328192211949727
Ni 4.399628900720739 8.64639581605642 2.3211707137667155 -0.7977644599869487 1.6404622901514783 1.186249405906499
Ni 3.4043164402048682 7.033490254994101 4.377646789075595 2.8910797779214015 0.5789262999656805 2.9763185325862485
Ni 7.146154583721859 7.712775207458738 0.28240008906826775 -0.8212298900987405 -0.04681593191227421 -0.32945755954274875
Ni 3.514790689707851 5.165287990375202 10.73163308368258 0.8804115426652191 0.7394158448447266 0.06393999318707053
Ni 5.650894164476559 9.01712910052402 12.30006155480071 0.5176186021951343 -0.05925287212404634 -0.234833249897944
P 4.397337172249242 8.919638232079315 4.822466664972742 0.8968421774174168 1.2238237646158472 -1.3570986967533143
Ni 3.1920543313731238 3.01198731122966 8.21802925686693 -0.6519024352130902 1.130688380811743 0.9032804768435927
P 8.603361221331587 5.702448814244617 6.534111532046299 -0.17218060806372928 -0.16546694348897953 -0.2215630151515991
Ni 3.805174865063912 0.7028084363236741 8.810501132212725 -0.7395760245716747 0.812751163203768 -4.435674887159909
P 0.3026615561916671 -0.38885919332582597 3.2888105529892657 -2.508824614961647 1.7514138762013964 -0.620830396398634
P 2.3294773053918285 1.8948158855782125 6.552992417582434 -4.199825794402941 -0.4711289432740273 -0.06012627586793516
P 6.022616218889521 6.759360718272563 12.195960713067047 0.06289355420042718 1.7037265974277627 0.46673235686822845
Ni 6.228502147699764 0.2429361551554751 5.8772605683326775 0.14739697336114618 -0.19807958731767822 0.8006528372783371
Ni 3.814221648021957 3.9898068604691477 2.302385008888872 0.09237870814373768 -0.4807430693250237 1.0480677804960337
Ni 0.8563819664357664 2.655993167536402 3.315508265598138 -0.9922691854691751 -0.3652357455836226 -0.3534040430560172
Ni 6.997173751393372 5.201207137829663 8.23227124041641 -0.5863346766146096 1.3630304888567168 -0.7781932227232404
Ni 7.570216759354805 3.567371072783716 9.96222775724447 1.0279470984867587 0.5233902145715889 1.0504943876596553
Ni 9.077887627540507 7.297399422000012 12.505465111731064 -0.5125321888111625 -0.7987764461912308 0.2935873280087008
Ni 8.222878850019518 9.133665341467736 7.621067257068315 0.37714303854416986 0.12698935623907162 0.29450058385158956
Ni 2.0872933546620787 3.9102432228095347 12.044535678396983 -0.6242407076317638 -0.09934974014493213 0.09969195397569927
Ni 1.770554301883808 0.241251549912113 4.745780625079355 -1.0663326402434925 -0.20569108111634896 1.3669082266445685
Ni 2.286063836201949 2.0740881934291417 10.471278868059672 -0.28232358216942344 0.9412775249126564 0.6042704351574238
Ni 1.525903046710955 6.554981046481894 11.00198219251021 -1.6843278811861766 -0.34140239060945077 2.93850377573132
Ni 7.953794812271517 1.3422043762074176 2.3985331831928187 0.509282057304981 1.8362422828017022 0.8306941208354339
Ni 5.098402786033706 7.155866707203887 6.8965918217643285 0.348366994852742 -1.284197380607898 -0.6315359557415962
Ni 1.1077919724314116 7.986063827684685 6.630828018047814 0.5461789303313304 -0.742827698739753 1.5902882404002483
Ni 6.9372376591912515 2.581724531546819 5.692091680087952 0.2481165972704114 -0.7901408820034198 0.11354994290471412
Ni 9.411241711737128 0.4045898762977144 0.749846163201138 -4.221724394248246 -1.047168408610216 -1.92843304330435
Ni 8.301490681096212 0.8679052946775246 4.7660005084200066 0.28580768406328194 0.3757163333999723 -0.9263057340941724
Ni 6.193285304131728 0.5510544277278625 1.0554915868260557 -2.655982989949426 -0.826381352392693 1.2678690757615194
Ni 6.806036204198081 7.490976551116572 8.273832845147869 1.635725803907757 0.7426546634969984 -1.4087963822379221
Ni 0.7262348913562973 3.41725361706009 9.068313192583583 1.2949281367618408 -0.17861556505579562 1.2964268327945543
Ni 7.7849554134702625 5.232126990513644 13.389560359158839 0.30222674885125367 1.3263616726807739 -0.4086398236008704
Ni 8.50386509047432 7.881124841707615 5.405038827772109 -1.3605583731671407 -1.1451390090194342 -0.601899363822086
Ni 5.420205819466734 6.928615954901306 9.924222952064135 -1.7933359703564793 0.9760619795816933 2.0397651526221385
Ni 1.595255555495554 7.89843293617178 0.7088214513091688 2.465204307168535 -0.18793015758850215 -0.08194619995650403
Ni 1.8183294478420196 1.0652379014183433 1.7727231271751798 2.662609751237324 0.8401714641982498 2.119762456382388
P 3.1183124232983603 -0.12134240214542967 12.993037736714417 -0.7559220700298658 3.8150542927792355 1.1279959215812445
Ni 1.847539745012988 5.4798739272911385 9.179879709446771 0.3032485052475487 -0.7656200140439201 -2.9821143133324193
P 0.7554784555534648 5.383020676848582 0.22145120073519622 -0.17983015418918707 0.43869267712219284 0.05816838081061595
Ni 5.762514278215289 1.3959398643596421 3.6820877922111497 0.6251498497095943 -0.9383739781126161 -0.06418656198023784
P 0.016765657120306223 4.925016893651902 10.730726557218654 0.2664791589379991 -0.7322080142423777 -0.3716349642417471
P 6.497734038897537 5.139958846260799 1.4845743111628882 1.6914524080460998 -2.199822752170089 2.9454802070491533
P 2.5066334607428677 5.355427526784517 3.531420506471177 -0.20953462323215527 -3.1619457530731867 -0.29473198313610527
Ni 1.6136633099924125 1.7270022200847652 13.038751251132341 0.6977117802377211 1.0447508003076587 -0.5807885499853999
Ni 0.8670394279122858 5.943311324767012 4.888279007719317 -0.5905823961473701 -0.41530463721555566 0.4327351739871773
Ni 8.975351260122265 2.9312408459718546 1.1580898678763913 0.22665379941094516 0.7981763507133867 -0.8543570116700125
Ni 2.5203099048469593 7.756706163722826 9.53296114017948 1.3798753283281977 1.7471633284551589 -3.3602140593629035
Ni 4.9337864513916205 4.94501407273383 13.787693660121738 -2.7961111975633006 1.1837171264029485 -1.0149877101126135
Ni 3.411459609997073 8.585997681823757 6.6580127229568795 -1.0726904641407202 1.2894524583592502 0.48813833334783024
Ni -0.1475281721844595 3.389133739081205 5.541789407552107 0.9097971949161878 3.2099485062047104 -2.7482665672761954
Ni 7.246038829884783 8.630566256089997 2.918863664057652 0.21314393784996843 -1.7905159844091807 1.0380679889708446
Ni 3.528836767436377 7.840113991076562 11.446342798628997 0.8481107736499846 -2.7072163342031055 0.021185632938679644
Ni 2.729633426364446 6.131510284648044 13.119454284439277 -1.092876195059976 -2.068198982482799 -0.5670768568262621
Ni 6.046734812883899 3.1153183909404376 13.12424288804383 -0.2665382943107087 -1.7377433206928394 -0.9691639669102794
Ni 5.877082220108888 6.913414772096422 2.2012051968723054 -0.10371650175406008 0.6691344828206606 0.21295907553267196
Ni 8.869904027911598 1.2979407496813378 11.059854805003921 0.31886641429046375 -0.17984352392562575 0.7940628427656453
Ni 9.194377664281168 1.7044730506754577 6.770567085681369 2.339596147547706 -2.1747964053290803 0.8708190138807776
Ni 4.228349919998214 7.612438160105882 0.170047176669095 3.3996954052869772 -0.27978744601113104 1.0853055818015696
Ni 8.940328474207059 7.229830395453312 1.6359993458329527 -0.4993419153731336 -0.381248318961795 0.5864058961721772
Ni 4.271255142954495 1.8967841846283282 6.527402681762806 3.201383647353835 -2.19870560784651 -0.3533559634269011
Ni 3.9424290706572034 2.0184306104298555 0.7093814462501877 -0.2915805819913172 -0.553724346778756 -0.3329504031873556
Ni 6.422180926063043 1.5093804236987147 8.144846419649125 -0.06751665479473533 0.16752614001085342 -0.3349849171188811
Ni 6.39577984443778 1.5173829916677304 10.673137638531696 -0.05954777765664584 -0.6509364717553952 0.17802858220407405
Ni 4.059445835312684 5.061679685446097 5.84968312769765 -0.018900950669560993 0.5046890386176598 0.33387805720794755
Ni 3.5277371074036834 6.480934190666971 2.008110439635633 -0.02463631049144144 -1.2134851016940005 -0.3772728792538148
Ni 6.048897169586843 7.369884575751697 4.668472676612856 0.05016068001479103 0.12214719765542188 -0.12418839645516676
Ni 5.347230901162673 3.4127902910450385 9.50965758832698 -1.4705231698237577 -0.8623035202105989 1.0521041553489365
Ni 5.629640231071551 3.65806068253882 7.281443262517219 -1.076776718394952 -0.07789876936000778 -0.4089550408484441
P 4.373098447326923 3.3868050472472646 11.732164770975473 -1.225209332109464 -1.2469276976231622 -0.16201652304653388
Ni 1.3693816884439942 0.8075376552188769 8.758579621072416 -0.8671523636624677 -0.6703102482963166 -1.0027999097971698
P 2.9445753789733438 6.372945727288314 7.091526430366625 -0.6632849660184189 1.249896807553815 1.475516766383607
Ni 0.2532674149584307 7.806865446558642 9.228975371528277 -0.807158756717655 -0.29912882665222035 0.11300075526946346
P 8.473407279820886 1.7661649025936434 9.064905170566293 -0.10870804143138052 -1.172775025569148 -0.9141459588031869
P 7.5662247162109075 1.381283891150798 13.461148227287207 2.1347859263744136 1.6693810300683571 -2.0048907093424573
P 5.596234592263246 8.983002676148068 9.157036351456693 0.8873671480474461 0.28969184960903654 1.1426414394085609
Ni 5.991982832264479 2.890017456006752 1.864760051491349 -0.35410466866746754 0.7504175952718689 0.620666360016944
