# total energy = -340876.4629259384 ev
CRYSTAL
PRIMVEC
9.18205595984069 0.00000000000000 0.00000000000000
0.00000000000000 9.18205595984069 0.00000000000000
0.00000000000000 0.00000000000000 13.43886703366659
PRIMCOORD
 96 1
Ni 9.392875905845724 0.2869741387601871 8.573015643560373 -2.1565713976806213 0.6275342907813709 -0.396304184853653
Ni 5.953534862398819 6.401564098097024 9.859895469561122 0.45854467885111355 -0.09838326246660475 0.07677802549200326
Ni 4.869868624806037 5.0786593939690805 12.043764827426779 0.8044094761072922 -0.6969342786417481 -0.00047899651894756215
Ni 8.800660846313257 2.694850768830225 7.445777796094274 -1.1577878081316963 -0.7820802164824724 0.47066768736689263
Ni 1.5074823918765476 3.9618092063452837 0.6881748893565184 0.18180938940274496 -1.010101071444273 0.37865304743079303
Ni 5.156146763728828 8.793820214666022 13.351259287133848 -0.8651327621292778 -0.012137663803798451 0.027310514889494902
Ni 5.043740035372526 6.4469969107017455 1.1277180689897919 -0.31722476492198265 -0.7848523799109709 -1.1782967267183255
Ni 5.4678867436687755 4.003771201818924 0.9773334392158695 -0.1693289975475471 -1.1375835652696795 -1.3525141627064254
Ni 2.744479780982309 4.039241483769618 11.026805307758822 -0.6666495116152776 -0.07427119990974951 0.6736573103916785
Ni 1.6377665830746835 1.3139154713995655 1.5677781983703667 -0.8871588886913817 -0.03858891601679161 -0.8291131495015591
Ni 7.194003068635661 0.26770559444915126 12.422109604471036 0.8265903830797053 0.1619797562713275 0.1100290742356492
Ni 9.555398295316932 3.3512667632317705 10.600968182970954 -2.7796371111676774 1.0731946574706486 2.732564583159907
Ni 0.47298973646309456 0.31552665979406713 11.049638326171143 -0.6124277741572356 -0.7142686561551377 -0.7527488145082069
Ni 0.014083437342991095 8.226837444753153 5.520740493853758 -0.2451459446778617 0.7080578993587354 0.19128493299334798
Ni 2.3337847845829707 6.278827556850603 6.90701332038044 -1.5971751973280686 1.1780285606586036 -1.1912111207871485
Ni 2.2122143644361443 5.5478716326339566 2.400034236123859 -0.49952523502853335 0.9962304841097681 1.0228079774879804
Ni 0.6767147653848226 5.748113907751931 11.198405995900664 -0.8886616984891534 -2.09628417075479 -0.44055389870064765
Ni 0.7288311964808475 3.0372588154839484 5.4477945689433005 -0.13241412679906872 -1.1315890382491416 -1.6561676167018766
Ni 3.610182375565623 2.3800439822189 9.643355045216516 1.5192154928231385 0.05635523886127713 -1.3102799366275628
Ni 5.981567679068628 1.4365050997515503 8.602084196135964 -0.012019907279011557 1.156589416948221 1.5924636507850123
Ni 1.1655518121297452 0.7935279623686524 3.82514532270621 -0.8558333391052229 0.19242650279695891 1.546453245493169
Ni 7.429385071691846 0.3341579694254814 4.183666959262929 -0.046862983100125745 0.7693401432079846 1.3008195625456114
Ni 7.35754466631203 2.7763231508515838 12.449820130978674 0.3657689923792733 0.12236034210749248 0.19131630045191567
Ni 7.013685854825739 3.01884879339978 4.928475851219418 -0.36298448765560065 -0.01510728795508366 0.5596139727903137
P 4.357702728630069 4.63444071147034 9.797821098839023 0.5251367649490505 0.301513524834313 -0.8680987867361373
P 3.395808916413965 2.042869707429504 7.3830579268422385 -0.5431977362158193 0.2769767160352133 0.20468320867712492
P 1.013937705070501 7.600915058003241 2.2265512265220395 0.07406114078147245 0.9376610112059917 -0.6331855755298773
P 5.052683357821394 8.351153299614776 9.223511048316096 -1.4377246352364978 0.6860276590315734 0.8546963972873022
P 3.508371739720607 4.792096611313317 0.943068761205151 -0.03407328753462519 0.33845204973187515 -0.8060488114829278
P 5.106251471955577 1.0321824501484274 4.5990089941544365 0.716646926579327 -0.49562204331938514 0.012995126708087296
P 1.065908141477679 4.491246549673531 6.9204650322773515 -0.397759943463573 0.2971452205632883 0.2899818700456296
P 8.607167382283492 1.8212240600032021 0.9297841627256626 -0.6901522227229082 -0.9253361710920515 0.07992402732015266
Ni 9.387550313422373 5.9534614059516 4.884880368000753 -1.5804288311076653 -1.8778478741576305 1.880430290172826
Ni 2.9235482351895152 8.82875793737438 2.8350763719538117 0.357350686408591 -0.33847081878495255 -1.0213933565286408
Ni 5.9696769166751125 3.198679358246879 10.416667793310602 -1.3819967455465747 -0.7673238841089043 1.3796773533847788
Ni 1.3829461676732693 4.765514559476077 9.065362072071165 -0.7775059668482288 1.203322816449018 -0.6281235876259376
Ni 4.522823639921638 2.120705995313541 2.6072475280828815 0.10186325059540521 -0.6054469719640282 0.5636639744899712
Ni 0.5094975907307517 8.876816817967168 0.06268038641165367 -0.5829721879002798 -0.8316770535739936 0.8904537573925697
Ni 7.364862764866185 5.172454095011363 11.61181245340796 0.2770505066959422 -0.4551647066352871 -0.3159348424659656
Ni 8.483053532651722 7.314756285807181 12.204090869126153 -1.4767565523279793 0.6194754250326363 -0.31671080140004165
Ni 2.681105231144439 5.798780492220979 12.371673489605138 0.6262736789013923 0.2860228853978816 1.6261363604471093
Ni 5.602477319085103 8.776245759668965 2.8403184076684505 -0.21710420804929706 1.100590018764466 -1.022924705571503
Ni 2.945006699833256 7.656218580702964 0.4713828766801871 -0.3829143938103083 -1.1324493293669078 2.0422850908305152
Ni 2.7729257901677222 9.287649545205042 9.327971625494525 0.5337394190163969 -0.3992149307425447 -0.0036651075564130427
Ni 3.294861393823768 8.748295581502278 5.085146516464074 0.9391512225982729 0.6606752963097138 0.5405109334122755
Ni 1.754507241816885 7.301056658400906 4.2542613596568 1.267843621840223 0.12584958620767356 -0.8685937240946847
Ni 4.877811103161551 0.5531564301351422 10.989123068541259 0.09563655295940303 1.2018698860525752 0.18093598565885613
Ni 2.5000167246387215 4.58718985179696 4.93313941741221 -0.4647754902521738 1.5909449001476408 -0.061510814920287614
Ni 4.471707134713377 0.1746114842722157 7.2221681069104635 -0.8015198132643228 0.9419092449593842 0.4763835068047473
Ni 7.067648797363722 7.688208863466675 0.8874796765668654 1.014543423486343 0.478114373452925 -0.7868930644900836
Ni 4.4808708265039 7.040130175824444 7.324518647642536 0.20422118143904186 -0.490145079365214 -0.115501153093814
Ni 5.619491668672117 8.097994836331683 5.534689873180574 0.9741760754128901 -0.3977252335708957 -1.6621701141422147
Ni 8.025924879554308 4.8783069341802765 6.7021111518920335 -0.2497680168309053 0.07605194595925611 -0.37381294572967233
Ni 4.767470337383273 4.267966496296615 5.7989117956203815 0.604620619407991 -0.19121448476672875 -0.2802330181889819
Ni 3.094536480202672 2.4272948418922815 13.287465117341242 1.025026068185222 0.4455732062921101 -0.0441898071433368
Ni 0.7072423466432933 6.142079198297228 0.5047486314180676 -0.10511492476348348 1.3755939273440245 -0.8884642377663666
P 6.4445728479435305 3.5466241846097066 2.7688498755526787 0.3164349220308357 -0.26328147793630785 1.2271199188686155
P 8.200622675152006 1.764332041632376 9.875416816858419 -1.0107255924021497 0.118018520199029 -0.31435772778683285
P 3.9370911118562164 6.454048729634733 5.282966565235015 -0.5102521345277341 -1.0177776141529247 1.9982608627307648
P 8.141471871029207 6.1877782905231165 9.633383332506586 0.9342550708482362 0.09942147392313201 -0.31611404835630713
P 1.605620205360632 8.180578247117225 7.739618276258221 1.5387029121237887 -0.835908832267154 -1.1450791023157763
P 6.594056718033434 3.285725248200951 7.2823610743781755 -1.3775052854341245 -1.3264490901882575 -1.6636510695631155
P 1.9997140446885613 1.9389839269505622 11.056182377412734 2.0202967594848817 -1.0433642043727773 -0.9062251612942135
P 9.091272915621946 4.239263389545937 12.834427070148315 -1.1194601161960915 0.6285874146362336 -1.3309942863567785
Ni 6.612586106844334 8.103586708376202 7.840530907035989 1.0484727292439362 -0.4093743877740498 -0.8736300009670117
Ni 4.3384938676823985 4.470421646887051 3.3319119075952526 0.7172495931603324 -0.38388010015768725 -0.5256828672605075
Ni 1.2804285135237743 2.321049273046441 8.96000165341431 2.184121539384748 -1.140045910767243 -1.9235800860874224
Ni 3.2091560840314357 4.282676149852145 7.680379324398761 0.687308582626526 -1.2689962473874274 0.47952488064720633
Ni 8.504787458972531 2.5253775630409523 3.0226832199445925 -0.28312576635574466 -0.722637339834807 -0.3537552557478488
Ni 3.3380262386206128 2.438460221869513 4.890295944571948 0.4020932807316043 -1.8019908178179997 0.8867750229894019
Ni 1.0769908829517891 7.522234020976189 9.691693978514323 -1.2962869647825803 -0.7791095638899227 0.8905450315547953
Ni 0.7119270315646611 1.9180121112696442 12.671306010632275 -0.8806509123695349 1.9282615507234921 1.5866043637907579
Ni 6.349070284503414 1.6249300689232284 0.9951521368999275 0.22096343389438722 -0.25352439854954395 0.36721420946623207
Ni 6.35757286826897 5.594057373822667 4.455951644990572 0.5483869937262427 -0.3763789066846357 0.27727882065666437
Ni 6.696354002841274 0.9657227295273754 6.533533196553238 0.27490440688721685 0.5723352770117239 -1.574509637409753
Ni 2.64056645433566 0.13091867126098664 12.48521787468774 0.9253762803013676 1.8247088282408057 -1.961318738288777
Ni 4.293621160487721 7.4240502972125935 11.2037141424178 -0.5647317536328532 0.4552708931958482 1.298141501492816
Ni 8.841741364420274 7.10999643918526 7.568111245086582 0.6416591602185272 -1.0377427444209417 1.5939615754867775
Ni 3.1908562466180954 6.52561367333748 9.177819301734932 0.7297148155068787 -0.5153298061609577 0.9587587124165553
Ni 5.53822129188061 5.063683460792382 7.89381529564279 0.2669964648940498 -0.020244094961016746 0.5345135781782601
Ni 7.102164145500574 8.974844446780423 10.043993853991624 0.9886097343397168 -0.34554366647133394 0.4397491434111653
Ni 1.7028949055898979 0.7179568876757202 6.423885675995585 0.10782666726769172 1.1569005204307365 0.5956199585712775
Ni 7.583377331229794 5.1971721895004315 0.848623970604983 -0.8683427844261433 -0.2992558391483878 -1.2915743897982594
Ni 2.238750505993873 3.1319258118369526 2.867101546529952 0.09411445988792178 -0.12877858692901045 0.5666598238935014
Ni 8.382822210421907 9.157530631013147 2.099836100453139 0.8243908043252254 0.08459340777136398 0.30551544690485444
Ni 7.437529555277211 4.08298479808831 9.030246217478302 2.221241841275813 0.7802251655516046 1.0857454975524656
Ni 4.330248381482107 6.836242624513245 3.3738279927893813 -0.3427619899611387 0.7167166034749979 -1.1746778990188156
Ni 8.804710132966182 5.8239301433374555 2.6139541017139423 -0.6053181596956478 1.2710559581299337 0.441630162483962
P 6.236213635407898 6.874963354253364 12.441340502352872 -0.6192532817195012 0.40860022861218664 0.024259386767996927
P 7.438557945538273 6.8545791901501945 5.985375477651323 -0.20008967576917153 0.4660119337624361 -0.7298503126434785
P 1.5399501415471804 7.536071379220998 11.927209646213806 0.13763809420216944 1.268123614974487 0.25750060958847265
P 3.690892646947088 0.673411979876755 1.169037320550269 0.8588474433411983 -0.34109051579598676 -1.1114940672714795
P 5.078833853031224 2.494553401376836 12.364093702457764 1.4806741422148306 -0.3250607160266337 -0.14735840681372686
P 0.5247186848000412 4.180057493087724 3.5922094193424052 0.6414696699155404 0.5038305472721065 0.11353451628574641
P 8.745081861936463 1.1444973579457067 5.87024535151439 0.4980190827966519 0.2218790037301211 -1.081889357031169
P 6.5513877042553155 6.80747524337125 2.703779399989649 0.2513621007909026 -0.354823292001047 0.4047746842185093
