# total energy = -340870.9119255369 ev
CRYSTAL
PRIMVEC
9.28452714506918 0.00000000000000 0.00000000000000
0.00000000000000 9.28452714506918 0.00000000000000
0.00000000000000 0.00000000000000 13.58884397119550
PRIMCOORD
 96 1
Ni 2.52444442134887 8.92815006612706 8.515449110964735 -0.3311362327967523 0.5869075183989441 -0.519145580362622
Ni 6.197059919226836 5.075414737378075 6.318880345870777 -0.9181679354783865 0.9360291320295234 -0.20958630240569712
Ni 6.812326978616559 3.5487320492536365 2.6566598048300896 -0.10957835985147579 -1.1719049642593686 0.2989246810612142
Ni 8.642010217280982 7.5000597740860915 8.857194922649454 0.5856006266620624 -0.9174297717607812 0.6260790463920831
Ni 4.621503479055745 2.757198237849156 6.595929713974288 -0.12352710872208404 0.5227790633501512 0.5580245168160067
Ni 9.124424974612282 0.8435410914366451 0.5187748233960985 -1.6095995391343505 -1.0398603049845767 0.12179598496359023
Ni 8.737111631075406 2.29555296823221 12.25225875949349 -0.3187319455951285 0.1505792277438697 -0.6262734217910763
Ni 6.742368064925161 7.84527707055239 3.24521992125587 -0.37858234209385766 -0.7915652731547722 -0.8128473224620001
Ni 5.633294133127913 1.7788133132344068 8.713955091375643 -1.6604137935727403 0.5810744566569348 2.6198641327396817
Ni 4.991361911147388 4.624428105175558 8.536634545505018 0.039380558680151535 -1.9396417675359758 0.4504336197082049
Ni 2.3769597041640185 7.968492033206477 3.02508099208571 -0.2780619786795921 -0.5161952394850464 -0.0623569649706668
Ni 1.033470025468242 7.755393561136807 10.65654839577231 -0.885703644302094 1.1223834604904737 0.48536462725743507
Ni 5.342057078758733 5.308679202883408 3.0650044597529975 -0.35173822531782006 -0.4176497404089646 1.1675875678309375
Ni 2.993777279623611 6.766535689654917 10.028159513858359 0.42646656736964617 -0.8492916813319633 -0.437151557887318
Ni 6.348852657108809 2.318671441369779 11.444374895400152 -0.6522631609866186 -0.819171464907815 -0.47144313208033645
Ni 7.864496042196875 6.169689132556333 11.845341136426503 1.6127977343566742 1.241299038582475 -0.5401178117389149
Ni 9.209155571340577 8.871152352636484 4.8215525479146315 0.5452116813220546 -0.38857827696430497 -0.7315595820251013
Ni 7.367838819888454 9.049387424452512 12.409305611411025 -1.2148683551947723 -0.37663935943487387 2.2658445675868526
Ni 9.229581531542445 5.230299222872422 0.06223047311320031 0.5564057502656611 -0.20398926793389385 -0.9772757973841363
Ni 3.758330254506896 4.485531575802856 12.380768688103542 0.6017286425721766 -0.12394079922073493 0.7847896449938355
Ni 7.894522203693621 1.6458588813749748 9.154518913158789 0.006696438183569113 0.4869810798149355 -0.7161756433698634
Ni 0.19439293478844163 1.383626690492447 2.7089632612851817 0.43730325297383404 -0.07673328829699688 0.16113874842727086
Ni 8.932300249858985 6.672242029741202 6.397302106254904 0.16511598790746404 0.44462858299065366 -0.1359193117388498
Ni 0.5709287989606228 2.626852758179145 9.944071406423687 0.5185102607714682 0.6269989871031911 0.3990447237132676
P 3.9739819716018 7.4206306424829185 11.948358538251888 -0.1968500857859513 0.0546847931373897 0.18314790570851036
P 2.0856298045211936 5.139663666740315 0.6540448163802332 -0.49932237498910786 1.2617259389782591 -0.8878561718687225
P 0.1134847779761059 8.408922157795574 2.2963922895059596 0.4772188582218491 0.4944429354096195 0.5286841159806767
P 8.749506475106994 2.137158931394088 7.1573669406101965 1.1226323432764858 -0.15556202567044175 -0.270028052631522
P 0.21612615644322922 4.613528070049652 5.3472378450281175 -0.472334019325722 -0.03398098493113502 0.8378201903572539
P 2.246159282653147 9.150579488198039 4.975215189607812 -1.2590105969296252 1.1545924411228503 -0.6447465408945993
P 9.053519039129707 4.309255539260735 11.476335952399655 0.9907296088961969 0.3688316904649971 0.09868845241184938
P 1.5329404595681024 7.082794545271385 8.219144561560018 -1.6371280835719224 -1.1739135100489653 1.2802409670633115
Ni 5.301019467807708 1.7666320133322018 3.2722889607870274 -0.40527399245243106 0.760261063724852 0.34003482083796277
Ni 7.861051482544651 7.744604940339275 0.9081604734407275 1.5282927725340585 -0.985523124994593 -0.3385672351535008
Ni 8.705145003359483 3.1863940843272265 1.16258251990425 -0.1595410649228478 -0.4744577505369442 -1.1912797692415547
Ni 2.8166563510913214 2.1954843322977857 8.616441557371926 1.2167761137404465 0.0703896054671562 0.8965081911167657
Ni 6.926628795000741 0.6222035297837302 7.059513592904938 -0.4935865009465951 0.18068787420379204 0.4122378253647739
Ni 8.54702021781493 0.23045682443031254 10.783807698546365 3.1583271824839927 -0.10870135656316118 -2.456515521145285
Ni 6.942663173759206 4.28544072657083 12.666772982850098 0.13309418358522884 -1.8414855334785123 0.9060958348052007
Ni 2.272713030915576 7.473626724679401 13.54658315198337 -0.5931596699562429 0.37496402861498 -0.5930701955662302
Ni 9.164552701881588 9.203742691887083 7.347175175786055 0.6767045818584345 0.14615050254855477 -0.10867256020775477
Ni 5.049018826080844 2.0041766459525627 0.8190856463585904 0.09866119871833975 0.6919303976692536 0.5544733091296387
Ni 0.6477406222997475 6.170979681859997 2.138191370837019 -0.0576958120495716 1.4083235563665617 -0.329236187560562
Ni 4.107252077391625 0.756430870344833 5.699528094440681 -1.6232320423161206 -0.5822877602387456 -2.420248054172819
Ni 5.844804951018258 6.240455800128442 13.035452279966451 -1.0910347709758628 1.8648890000041172 0.9771120181127624
Ni 3.8244082357599387 5.61099269839842 5.709420758347539 -0.6847567627389497 -0.9151708005232754 -0.6285753304513756
Ni 1.8290518908036377 1.4812070730931894 6.807901972874646 -0.643476415932924 -0.6834544989877583 -1.5773033981048061
Ni 7.551310365138051 3.3827246999766363 5.1163762152047125 0.16299508490971928 -0.49068218281560655 -0.20509098563850484
Ni 3.4509659761056044 3.7538551123172135 1.5345606095932052 1.191730483625728 -1.8264720907888157 -2.0628261482066605
Ni 2.99387940942462 1.1809268890710003 3.2425153384345955 -1.2983513035107768 0.9954372987845114 0.8430626697031158
Ni 3.968002735979071 6.664053076605727 1.155699899768957 0.8110663193021773 -0.9023142562755814 1.168716025008426
Ni 1.6739538611799079 3.1713624345241245 12.56863460015475 0.08668320042085717 0.5320975125375997 0.6233413357459459
Ni 2.718398197992972 4.049604446985534 10.081536261676787 -0.0868498079057085 0.890518549192234 -0.06454060288554692
Ni 4.406130297781776 6.742228797014694 7.912403274944883 -0.19519789489450898 1.2919184034012396 -0.22840883442883889
Ni 7.518201740556297 5.550708262220815 4.378325923683351 0.2096670350449615 1.7996323448881522 -0.4907318051066194
Ni 6.79552198408684 3.070356061325887 7.232349712058517 1.1974969537958602 -0.16452154885657475 1.2547484792191617
P 7.613739527136852 1.6592750234166564 3.842761889454054 0.32630461573606384 -0.2636180353401202 -0.5859271567635457
P 7.0607994999449195 2.188938740505823 0.08596451041503453 0.7627236663327317 -0.3852366141855817 -0.13744628990633748
P 7.329419445654213 7.849399400702222 5.294336465010751 1.929957450368676 -0.48035020476197915 0.7561354715922526
P 5.124483464499382 3.669941553996994 4.6311324623854535 -0.08620703211538702 0.06175944059598397 -0.04605282849400455
P 3.1924661652235997 1.537712706633448 13.424337493986137 -0.7257931118549694 0.09043032616811522 0.0225971685742256
P 5.392899150606657 4.762498311612822 1.0164087779832636 -0.5211173593770122 -1.022203511134762 -1.5609468111236537
P 4.484528846847492 0.4527794744365994 7.623450214307367 -0.4058193234329398 -1.1439105359289718 1.9266584679024301
P 4.751681837233197 3.602712291350755 10.544155478214268 0.86836026792764 -0.1479343339218549 0.151917486939319
Ni 2.0420018104354765 0.12259847003708484 1.1863546237682785 0.4360938060467651 1.0284914010260031 0.4843960926965787
Ni 6.919721106641562 0.5113787688975494 1.8190162451753653 0.16253100078910718 1.1508954518872372 0.00889498849678468
Ni 1.7517674850216607 5.864033207190108 12.043642857235392 -0.27370575859342544 -1.361556989634984 -0.8035782384552483
Ni 5.14760193763695 5.869891743957097 10.847865366644896 0.14218354748100676 -0.9414521028173076 -1.3300977426844383
Ni 3.356170951714208 1.9225192277819128 11.215539149447677 -0.2595729187364691 -0.29596251310909677 -0.08451833155905444
Ni 4.920771649595206 0.41695512560073217 12.54810186788819 -0.47815782509635074 -0.004306340684837745 -0.9689122559107893
Ni 8.0914098909849 4.946526928504288 7.834131923904062 -0.2660819234995805 0.8160488601184331 -0.13135663206883183
Ni 6.736620942486544 7.585328873401526 10.430131269198284 -0.030151326772399685 0.351128359647963 -0.4091298758634115
Ni 5.345306663336303 7.323774453016607 5.300831920354946 -1.2705440514905217 0.14484386792198928 0.30558049581483504
Ni 1.1442065833444603 6.337265566957932 4.521062533574005 0.2805605767317297 0.24237172436683416 0.12938613860602233
Ni 2.3717603688399067 7.529426734139959 6.362337504652988 0.3154010814496826 -0.08127128537666649 -0.5265205326704545
Ni 7.448382094775365 4.152059206452631 10.004174794317684 -0.5299897221659776 0.13166387889660552 0.1623631077526752
Ni 6.1970877728089295 0.4186244836208667 4.916008687057224 1.0551971924519634 -0.4383712892270321 -0.8528847979998601
Ni 4.461744616695044 9.079571422914453 1.968004127340527 0.637757768281592 -0.9706207539614639 -0.5045561125842214
Ni 4.048638856139627 8.964749672997861 10.180354271775215 1.6882824949585504 0.2434513305842581 0.8091061102520131
Ni 0.37977059350596787 2.0042880602809365 4.963162016183237 0.059621825427690865 0.8519838834521455 0.5675676804197516
Ni 0.8421744090085929 4.007619814243331 7.810446166144524 1.588178136035781 -1.6999761292463946 -0.9183240014402765
Ni 6.7444756526369 7.632457134303654 7.427036966364414 -0.12432955001872137 0.3973171994991996 -1.3988181879792876
Ni 9.0884474310749 4.236167739847505 3.099670099573777 0.7966282894999764 -0.05069084148664818 1.2896607177153145
Ni 2.770670087055025 3.3485669238026943 5.087921924190774 -0.19755791048625332 -0.11047413219286781 -0.38217674431333537
Ni 0.8386611438538716 5.402722180558282 9.70429663033038 -1.0427939336916041 0.48471336682668137 -0.02481731615399597
Ni 1.3956594379568203 0.5204460383217059 12.497184591368617 0.4932599708451118 0.2483030022496046 -1.6223290708858769
Ni 7.2887717848524955 5.495372479128482 1.4209579181195704 1.3582510651902027 0.2627142925789282 0.7301809565100199
Ni 2.6536943267898723 5.050940723245292 3.1095757618189466 0.37212424517333975 3.0481541264713115 1.622191259756432
P 4.2977427253287726 7.03020698227894 3.420135774539094 -0.6143257625108969 2.038713571429173 0.09650687137949832
P 5.955337249292458 8.378190372219128 0.27669191379997726 -1.8526983714751963 -0.7898439195882914 1.591735000149104
P 0.17883578073650977 7.934724207181843 12.769790384675483 -0.5665906612184629 -0.26271120725513464 -0.41555480555314883
P 3.1472505169585556 4.190664271234161 7.302685577560914 -1.0929001063193757 0.09476674875994003 0.45971787322360824
P 1.77505307965179 3.239055923538588 2.833042613436902 -0.9257622028858765 -2.8450945694405383 0.9539911158245828
P 6.541042373553658 6.149393155737568 8.817461787793137 -0.24902471090697756 -1.1960663919969206 1.0899443661251615
P 1.486378554835208 0.6331128494370006 10.27047546509133 0.7732883292224553 0.8277180689262454 -0.650124774487377
P 6.334508062330679 0.35348052582069084 10.411513934927019 -0.8617016249605418 0.9061634548183427 0.08928721370260752
