# total energy = -340866.666445699 ev
CRYSTAL
PRIMVEC
9.26637018662095 0.00000000000000 0.00000000000000
0.00000000000000 9.26637018662095 0.00000000000000
0.00000000000000 0.00000000000000 13.56226942717245
PRIMCOORD
 96 1
Ni 8.659043064467399 3.0091425377346828 5.745383985556689 -1.5289391478688057 -1.8851276956484955 -0.010067668648647176
Ni 1.8728631539016303 8.823372874234616 4.509902548523911 -0.7385157016279603 -0.022678672544438363 0.2905295150189835
Ni 7.3273359323547345 6.673195058276849 1.7029466495190602 0.4959115495353459 1.0437442134200154 -0.8327810852714497
Ni 5.542067776295074 4.303969516307619 2.7614811870711287 -0.479922116085625 -0.06630592231608581 0.898084277354634
Ni 6.230355224693035 7.1499405405545975 4.546222086664353 -0.6534425260067005 1.1743997056567648 -0.08016648234826193
Ni 4.520246597618484 1.3450970371038462 11.128845788979392 1.6742712682811227 -0.4021076789093075 -1.522313672132488
Ni 0.36921203559873506 5.561517887420675 7.937697840252107 -0.8773593861024567 -0.3921004311849505 0.7345927124244703
Ni 5.642366967730756 1.9804457123428958 3.6079974670728507 -0.3248809959156599 1.7085415023179025 -1.834502931513092
Ni 4.46991167449592 4.347882844856556 8.138094216252322 1.6522626252205157 -2.0908213478680056 1.00601558852099
Ni 5.185247657613092 7.859948360786005 1.004948045113654 -0.7598967384068978 0.40932013749734664 -1.523825223681008
Ni 5.0260328842162085 8.821130412637476 7.709919340204179 1.3419829241577985 0.7436422242212483 -1.1557268118376094
Ni 2.2544059483735603 5.291366129557052 6.161583004711679 -0.504063489218519 1.0383716362541924 0.6343520850341526
Ni 8.436223925769838 5.34891028872331 6.0311681100086325 0.2246647940053744 -1.1626713614762427 0.009879978117873306
Ni 7.134187711153206 6.572877334100696 11.196304037661267 -0.3559954579322772 0.23673098114128904 -0.8213605021393339
Ni 3.961716131636806 7.643068965409794 5.8712694784883235 -0.38058446012555097 0.05973598240805195 -0.4500114445691218
Ni 3.246713737848134 3.4480348975979123 2.6399907335424824 -0.1521897667640992 -0.7854779293101118 -0.9790876537818946
Ni 1.3488869825304162 6.56483412473575 9.853720966802477 -1.0346270816100955 0.014645003606684455 -0.061947131126757836
Ni 7.133668794419984 4.440314887961778 8.274910319514474 -0.22800131457777506 0.44862330597234346 0.3799293430400554
Ni 2.744457938310367 7.059352505126362 -0.37251734986195634 0.08857810345072488 0.011753026770870081 0.9603988191231395
Ni 7.218965732443399 8.893732423437418 3.1918262470285685 0.6199904169958419 -0.32656661114819885 1.1935593093043508
Ni 1.7112020587624128 2.219601461766722 0.4101999710641312 -1.021003320179074 -0.37269734406799043 1.8584969804348443
Ni 3.4922540163646407 2.5862346665287466 6.635570815207161 -0.6416984980968948 0.05584153244965222 -0.5495182791172085
Ni 2.0723959041958397 4.379045647960602 8.888481171424614 1.2490773969763134 -1.1105155054082938 0.0953871559527583
Ni 2.2411457725656834 0.56380673719412 10.79659730425251 -1.0389696748495074 0.06662653888029817 1.1134679031683985
P 2.4112392646197636 -0.014992060405006323 13.062852160246987 0.8601908447429703 0.699693329444124 0.2014240783098789
P 7.184040783023492 6.875322392237169 6.642392716974987 -2.3786002967250455 -1.0653412228645007 1.8005998510077441
P 9.226080058325827 1.6355050803036102 11.624356597622294 -1.281964377512321 -1.2321857634272972 1.4151840309318207
P 6.8315573256120095 0.8905565578228933 7.394379974287055 -0.5265483005845963 0.5284360045256126 -0.5805337536621162
P 0.8038983900117933 8.681226754812652 9.60949187967438 -0.004120964146909032 -0.9945435833256485 0.162794538863139
P 8.532028927641004 5.260824173258826 10.167307908510853 0.7540071123953401 -0.1920884027312498 -0.9067902897690642
P 0.8076382970390884 3.5683401823733605 7.149920154540078 1.105067080699213 -0.38056029175583495 0.7304434661427872
P 6.8551587706033885 5.853232488823731 13.143493673863778 0.883100402351292 0.7256833257499825 -0.08476849989664756
Ni 8.388168529725359 6.2400200488493 3.960833973190328 -0.405024081225154 1.1772032365438307 -0.6983252454520037
Ni 1.1063212088597008 1.8756337986022282 3.2397546938008133 1.27942284203739 -0.3800548128743261 -0.34117767619315437
Ni 0.3837834027950218 0.18319428629389578 13.634556624793344 -0.7865415946879357 0.975273422242127 -1.8982439213154791
Ni 7.993198764781302 8.781813203725651 10.730752330628741 0.3110931981029481 0.6828744581145723 -0.6199757617078225
Ni 0.8661202128732413 5.010567312292138 11.800422265293546 -1.587838493308175 1.3488094601613285 0.03168524691842285
Ni 1.7276776650422208 6.507660620378936 3.773213141834641 2.118436538482113 -1.1597878692808605 -1.0196141531410312
Ni 5.644387036442228 3.0577539159933287 12.56639247529191 -0.33977719630120196 0.8589927106698111 0.34658830568576443
Ni 7.776078443778951 4.4210501042409 2.243429932828885 0.21058543309417282 -0.620640391875015 -1.0145701629592205
Ni 8.950238749137231 3.086702056610944 9.336754804514882 -1.0687895864244172 0.39754268524644437 -1.1604630409710144
Ni 1.2806123666307396 3.0411671132706872 10.898937877051207 1.891041490029769 -0.796413602386009 0.6986959985278612
Ni 4.123516222329565 8.289787476928554 11.733736831889363 -0.505803097617445 1.3729472337497968 -0.9253546830348128
Ni 7.968957940243632 3.5007883433521005 11.726847285618813 0.4373919560328983 0.8151173494430994 -0.8851117763543659
Ni 4.18295072102399 5.7390152092934095 4.323041559527586 -1.1276966451732706 -0.5240126786469362 -0.546240122586569
Ni 7.570605950163394 8.16472854422198 13.063395169542822 -0.40989760726737146 -1.4717770968355168 -0.8356833465199093
Ni 6.395852597110003 0.9956529491298098 9.5439721556459 2.335055579364875 -0.47554558428448424 1.4856669674437317
Ni 8.078579100136842 7.133872654565178 8.882405212460794 0.06317920376164603 -0.24106637529184938 -0.31627165698009396
Ni 2.089918610312328 8.797992286157903 1.7206046446409962 -2.072232529122225 -0.06926937581978394 -0.586967425102602
Ni 1.237699806067303 7.7296539288960275 7.524631780873946 -0.019086841428121965 0.7316824807562108 -0.7139583240035704
Ni 8.290741913062872 8.470046177131648 6.093622518763007 1.067385249877723 1.195367309047367 -0.531890024512484
Ni 6.745611741672067 1.0766132258827241 5.293272221914621 1.5924165995971609 -1.7694972160656686 0.12143371652816506
Ni 1.2940856689540472 1.3663911559064326 8.349868768265459 2.137904160288421 0.8110010132818807 -0.010653880169420362
Ni 5.0726241937633825 1.9712812721793807 8.153229905395987 -1.6143933609785681 1.14776590511932 0.12777200004136702
Ni 0.13508792521311805 4.093205925287241 3.864880709395383 1.610234087394556 0.4736943900083584 -1.6379816898214692
Ni 0.5285185460609566 6.873237458934043 0.10457006147750532 -1.1144107266976422 0.3903034871855278 0.6768099970880473
P 2.895082786498375 2.2290346266670844 9.60093438676133 1.6940757046015598 1.2245860967031683 -0.31652105398673874
P 5.347344272153408 6.5702827504345835 2.5008015128628607 -0.48849597379756515 -2.6730995950250547 2.7423417171513287
P 1.156600533760847 3.7806141917422242 1.804514407040065 -0.4473621798717328 0.5373662171357068 0.30256099226222083
P 0.6310333266200921 7.099577818321326 5.297151124495458 -0.542007315452144 0.02993175456242587 2.377849277491634
P 2.8250382938836003 0.16376826773090966 6.843290403604975 0.2930761927002372 0.344208235489362 -0.5705054228918368
P 5.1547983650172275 9.259689183172206 4.050575062378983 -0.49065981421810345 -1.175774217406788 0.45549457917088004
P 5.467065775603981 0.06511478364916215 13.153828456588116 0.7488808469123683 1.789563904908557 -1.7010053418418576
P 4.3311941120613175 3.483043244349945 4.678304928009901 -0.142757931927238 0.37866076074027694 0.7709301134029239
Ni 3.204978006304683 8.662527219676177 8.936233557162371 -1.7540790817383856 -0.4513682157073324 0.7674138727195493
Ni 3.201493851095905 2.469404270591841 12.456605447371473 0.4669228756124797 -0.2538558137470338 -0.3050855584562875
Ni 8.611386122343072 0.302156874022131 8.340917454617374 -1.1741634212762422 -0.34235575566165555 -0.10279296149852618
Ni 3.704870881432241 8.02204497532632 2.978084444614305 0.7496915157391218 -0.3975126033394573 1.6075740240638894
Ni 4.052100306919846 0.9175782200684208 1.5934172266911875 0.35135513094678844 0.3475198163610983 -0.408832913448283
Ni 8.40828581950796 2.340249602240906 0.4403870253823147 0.15652516091465946 0.33567782942084773 -0.25582502165826265
Ni 0.5272703659901522 7.735834597843516 11.741779114617286 0.6440528572616843 1.100764082448485 -1.648178170738497
Ni 5.833559984812464 5.244969413784838 5.890283143575802 0.3915239898561902 0.014935281153593634 0.9914682868344344
Ni 5.717433833013503 6.595301950072087 8.318147203036176 0.06093308803994668 0.002904832351620804 0.3717514352149533
Ni 7.089746199500811 0.4135173316086595 1.0787750700588092 -0.6170817279894791 1.7890172883764672 -0.04575869429235345
Ni 2.705474318727042 4.532302145295666 -0.2533685080919753 0.07051404686016242 0.31987480095032006 0.956006860703031
Ni 3.63472445874487 6.369443441937082 9.830123228359195 3.037365777606556 0.9382441374029713 -3.0449456468363434
Ni 2.1131771996049706 3.5046338870000873 4.787861223311459 0.37953030782942376 -0.2521105489211529 0.0018118563977581696
Ni 4.781854762124409 6.254623848341414 12.204116317814902 1.2513888187183093 -1.3333111074154134 -0.22183323809385022
Ni 0.4238048558447915 5.990930750532361 2.0104029606792237 0.5197898988148403 -1.9761881992014416 0.8223938284998547
Ni 3.374663778068374 5.731944968803255 1.8467746151388793 -0.6889456040093166 0.7941541169278711 0.09330096284769093
Ni 8.601702765446333 4.741685047150862 0.06005441886322114 0.47197303644187755 0.12538730185927438 0.4064088773878227
Ni 3.3713186184131376 1.3849702282298382 4.322702410376944 0.5147957880343585 -0.1596235973343251 -0.041366478761928754
Ni 4.116455248209648 3.9630504889508056 10.69173349883852 -0.011247547889361274 -0.39923292846467373 -0.36448755456368837
Ni 1.2426851132543315 1.529358809248942 5.901933750873667 1.0842216047087716 -0.08310371059971494 0.9293594333188316
Ni 8.08489876463787 1.8678222484931852 2.9888936654947296 -1.076225216766856 0.7810407194743646 -0.02948181150920084
Ni 5.248379438031726 4.93816916163739 0.5042221233018698 -0.6025120577054204 -0.28961548784514635 0.7239686570517209
Ni 7.030645290134887 1.3422059295901791 11.911700252184975 -0.10795753641860119 -1.0367963213472724 0.9080326468165973
Ni 6.2300123689942986 3.042946256356021 6.3696009702310965 -0.7468954410512233 -0.13985669912004303 -0.006469152664111439
P 5.303755266562735 8.479701734917677 9.887640515051768 0.08254192455897398 -1.4578789986971858 0.2879280728403944
P 2.80766384969089 5.699132751797181 11.458192046548325 -0.861814239279006 -0.7092665749548559 1.9262982563495343
P 7.299944541936785 4.005193940784645 4.278638039993158 -1.1847908190831016 -0.11985891584187744 0.8466925531462192
P 6.327160994549701 3.174111727048192 10.111485440934466 -0.5999941763795732 -0.24892803742811323 0.009869693705228165
P 8.88795947478032 8.578916761035734 1.7629056247688493 0.06572562433258358 -1.6468080298638479 0.7838136542338113
P 3.783727692141558 6.047335146159578 7.466517739938167 -1.0526206899740387 2.463136883116545 -0.8432722146107605
P 8.975257948774734 0.7689882667842634 4.6890326048322475 -0.1941655969752527 0.49027980517086533 -1.20749340288694
P 5.008232186992637 2.8282815234662397 1.1370846314065703 -0.2915427867748463 -0.01521630272912218 0.19267769957581654
