# total energy = -340864.1371486572 ev
CRYSTAL
PRIMVEC
9.31583225761039 0.00000000000000 0.00000000000000
0.00000000000000 9.31583225761039 0.00000000000000
0.00000000000000 0.00000000000000 13.63466216776777
PRIMCOORD
 96 1
Ni 8.974966121171699 8.428247863365362 10.650743706218936 -0.05403224715505533 0.5194080899953893 -1.447561933041894
Ni 1.0012284062227397 4.349282686490104 3.0902693600202977 -1.7184839582425953 -0.551291054746915 0.48880142085312595
Ni 5.728212202745733 1.3328440932255203 6.419240157555263 2.071627034327742 2.589889440754462 0.30002048522855423
Ni 7.855762013058261 9.027330415259478 12.901090161704575 -0.6543185008537505 -1.1115079512285504 -1.2659744298419682
Ni 7.927857240232306 3.4927198420693757 13.33688107643658 1.9033586168342254 -0.20096333662337648 -0.4768887285759399
Ni 8.584008581591238 5.660057572689482 0.37958383976694676 0.584098331084923 0.05407852701195848 0.9425571629560283
Ni 6.606639305879149 3.6850172550848375 7.228021165860421 0.37162288005688904 -0.6289627956977814 0.10402451991278214
Ni 1.9372366696046086 7.64667747000434 11.077222514854139 -0.7664617932189252 -0.7817819685157632 0.5534505242920791
Ni 8.857307157583612 6.886309911253491 12.016050680712501 -0.8672927458950741 -2.8668761840920047 0.1747697089471442
Ni 9.152386149796806 6.934985135699078 2.7900750442199125 0.22355562010159563 -0.0068759011842268675 -0.2653710134754849
Ni 2.093761286089726 5.9236304196251695 1.5867061164364082 -0.08300240913516028 -1.7017149663143725 0.4478170080209642
Ni 8.847935430159257 9.33669989441995 3.498845001891954 2.028552314625455 1.669774408852034 0.10516326150291566
Ni 8.659457508440003 5.7099345395185095 8.54845657028948 1.058835303425183 -0.010489586677414193 -0.834851337536917
Ni 3.348510756056424 8.4630797608203 7.4992823693004045 -0.21629970987013072 -0.6889466324505812 -0.7474723966006158
Ni 1.2654440455960818 7.07292466648679 13.42895596942277 -1.0956902674700033 0.311620788471644 0.33458639612888186
Ni 8.622184862888464 5.4323786281057265 4.5074282578180025 -0.3189564029011087 -1.2354667481714143 1.5913022834870594
Ni 6.70064537092803 2.900000003724798 11.395251060258088 2.3542005277244424 0.15302897483594288 -3.1237453307440655
Ni 7.820427060652116 7.709708392224213 7.380743059547704 4.97330181415617 2.152449662202764 0.7131551113759846
Ni 8.594181470604553 2.610426668477602 2.2621673152557813 -1.0265255355488838 0.027755315736397362 -1.110092301827946
Ni 2.454600739424718 3.2316995332194467 1.4992807554159207 1.0730769009458616 1.7007536308423676 0.3911470661327457
Ni 0.8328736141350481 1.92548008907823 8.075183403776263 -0.5903797932182606 0.6304293529409788 -0.38959977625028386
Ni 1.1594112408803572 0.1214877707167251 13.034845952148071 0.622588002519689 -0.8381233234199694 -0.34473094076205146
Ni 3.0888598745736724 4.903695821883438 3.7361975068707904 1.8427916538844455 -0.2239076041243757 0.661853375778215
Ni 1.3849848073349835 6.557870923109265 6.862312326914385 0.28998392692815866 -0.16089757895074225 1.9255253827392518
P 8.633382493469057 4.243846095049886 6.868160806513799 0.8880099238377674 -0.04232652868235291 0.06491624105741078
P 1.7479110071342456 8.081074736204853 1.9323859156584238 0.11905107522860142 -0.24173846165820947 1.1396913556413018
P 2.862792569000268 2.621484561571748 7.710606438470443 0.41653696696076004 -0.21522061787333902 -0.8007307417041242
P 7.665588609836788 4.855048544935141 11.218982468521302 1.133781160804454 0.49326742704427945 -0.1838873549776962
P 3.4519910226863897 8.724528597961998 12.01231503190816 0.6806519965419568 0.6684788515145326 0.7140603967990734
P 1.5490831955855098 5.894639549103703 4.9025201638308 -0.5808361153938836 0.746816765294488 -1.5139933251922508
P 3.886108813914009 8.794034023720567 5.328167068630023 -0.9100010833968779 0.5396431860953416 1.2069521856714893
P 8.486816501851372 1.3578012083048936 0.3074466913469666 -0.013131909396267709 1.275083591232088 0.46684985628269926
Ni 6.2986299382534225 5.666084916271548 3.35356832148255 0.04599986376888207 -0.5231675570378216 -0.7564401473168649
Ni 5.1740040156658536 0.5507240657511416 3.9689824592093075 -0.41182027821138106 0.5027769091966114 -1.150475076520367
Ni 3.8997751400884924 6.918225953157909 2.4694557658172407 1.6928400324222457 -0.33296582980632333 1.7360121969343456
Ni 8.985241484341744 2.4069875198761266 4.714606781556791 0.5109226782321975 0.6375060572821021 0.2868561799324543
Ni 6.308010981510209 4.634030420538675 0.8527768901212672 0.37669900902821574 0.9586540685178909 2.323526238569037
Ni 0.4761368534021301 3.547608726745623 11.078899364691498 -0.48790770539426304 0.5201498532574204 -0.04280706786319724
Ni 7.519590883997319 1.0836176282316896 8.598031704147783 -0.10512778027928991 -1.426421294408537 -0.7031738317935567
Ni 2.198815928400324 4.230170453042972 8.958464055605592 -1.3864267562934702 0.9993469182515627 -0.10987969314197851
Ni 5.4627948209889485 5.0893789938737575 5.823773080227144 2.8740688451857017 -1.3063842011175826 -1.5694463639542326
Ni 2.409931322923936 9.302110208608187 3.7957396498457117 -0.5796796331919372 -0.16831341179883916 -0.2949003903931695
Ni 6.0088982338549215 2.2761932325620537 13.325005253255103 -1.7830363882026838 -1.0750815900807162 2.9177086933628393
Ni 2.7362183537768843 3.9220586112605194 12.103258051254132 -0.5029658852789661 -2.5186243746608885 -1.0261635242237748
Ni 7.161369179575095 6.733781786880749 9.905486427669187 -0.17093490858208624 -1.003326214614285 1.2496240135084027
Ni 4.983131925012148 6.9716708838075405 11.325645955092522 0.2598035466900364 0.6366516797016067 -1.1205885733735799
Ni 6.122001755384846 6.599894643199989 7.488402408605668 -1.6665577016869493 -3.9224981227862123 0.15704580930481984
Ni 1.7685735234634914 0.546735957887954 9.59580300495583 -1.4919409733779014 -1.3974107661087998 0.17060143650206747
Ni 1.2906340564861996 4.016530467930891 5.852024273653687 -0.21742199640003199 -1.1290333617068233 0.9708292704278443
Ni 9.161729929723874 8.680818712201482 1.2063770100750792 -1.0794712345079795 0.04017502955698887 0.15444565267781143
Ni 6.027744162860361 8.571236575330014 6.4393101869419755 -1.4789479035523432 -0.7738231186800029 -1.4809142832500948
Ni 5.997430444133864 8.492815897936147 8.980524878382548 -0.7336007808248463 0.8910700508203299 -0.8644730170580918
Ni 5.396764200726688 9.102825921270393 13.093543149121611 -0.1826326566349887 -0.5190957009612931 0.008331145573514684
Ni 3.1140219379665006 5.9943655352644685 12.550692824940118 0.16220061403288197 2.309590602324551 0.5212813957587022
Ni 2.5448245765071107 0.867467026279783 1.3965299184652065 -0.3376776334596959 -0.9787097016171854 0.7261147568604462
Ni 5.209059493099106 4.382167574967218 10.307859588309098 -0.07220686118155306 1.1520380501321126 -1.4508889405325978
P 4.695962074531835 0.9686975193779573 1.5390668125570133 -0.7950673727707598 0.29001889393115216 -0.5401494363077989
P 5.4354249053102635 6.769591846740812 13.417067104075889 0.09222392773342826 0.31475084946019344 1.8298114395746936
P 4.490650443611974 6.708023510212414 8.681148492669497 -1.6285449698886019 0.4216220947931513 1.5634140417172238
P 1.390946940090041 4.691732686608716 13.549868021695335 -1.1128451819827352 0.3262603927616897 1.089437344581756
P 1.0900269209433764 2.0809427006663523 3.2206574770404317 2.6420000454067725 -1.097437332068097 -0.2037414135891459
P 6.796551865792588 8.705943512264593 10.914110673257927 0.43528853653665034 0.34500553457967675 1.0483534300572526
P 4.297020866559054 4.5451573791586 1.9389312195235853 0.42101197201297813 0.4907292340034581 -0.17899788809587883
P 7.201585628174442 0.9195965613903305 4.6600141403518105 0.24525238834873891 1.3071804717666327 0.4560995597447306
Ni 3.433312778664686 1.6560475835442123 12.964777850110746 -0.3641090881783471 -1.3059584264340733 -0.2277578311084013
Ni 6.915924942547753 8.308986576599354 3.7982763510163404 -0.8326808122481595 -2.2015225084700147 -0.20799684643139016
Ni 6.807386178908418 7.435916077113059 1.529631737472135 -0.1924334447754944 -0.45573034933076995 -1.2801034130441826
Ni 8.499756193096331 3.436377687534083 8.979107008686734 -0.8997326115913344 -0.606142455369156 0.4931465851956991
Ni 9.260030593522883 7.612702629132943 5.436112413743581 -0.5772124025983671 0.7399390643380482 -1.6956145098435895
Ni 4.320263868471348 4.633760261398212 7.943158494998216 0.8384215713866786 -0.45914168900516406 1.183482384684323
Ni 0.9749204954410486 7.559639647612931 9.019765959326499 -0.014907256129135618 0.048155219548988035 -1.6340846687599084
Ni 5.788821008533863 2.674966755551099 2.3744491803654 -0.7803120688384562 0.9705649610228639 -0.07821835748295562
Ni 1.3738244400841104 1.1252687150252236 5.898668646629582 1.0554951833083563 -0.21881244898965538 -0.6795456508516555
Ni 4.983141240844578 4.720593135476165 12.714731591863094 0.35794718234200934 -0.334194817117418 -0.7160946536202828
Ni 3.7591340178961454 8.77714441952538 9.824592396765215 -0.8387858967046328 -3.038361308750606 0.4334900498753308
Ni 0.9748273371167508 2.4664038991132458 13.651023988134073 -0.4185046322100921 0.3066577880394138 -1.4458374941516197
Ni 3.462201175029425 5.4811749583728995 6.134889277968201 -3.7393227062738763 1.2313902641091954 -0.7342751811840516
Ni 4.756673354476693 7.0005127010101305 4.68650650461561 -0.07341579388798969 0.43185302849254015 -0.08866192141378279
Ni 3.736720125070101 1.8489132623378906 5.696289639758615 -2.197603375921267 -0.5407287058500365 1.6600746650657667
Ni 5.035785009905249 0.9599406368939668 10.790962821202214 1.9965400233849162 -0.21328791962700044 0.8380389912362791
Ni 8.410203095948884 1.0252353063942756 6.431592951357147 -0.8171927439148894 -0.8841118743349418 0.7680599909439805
Ni 3.133873976874356 2.3074757978612457 10.060622053539024 -0.604020781040463 1.4028861874010743 1.3734861369724023
Ni 6.794185644355424 0.6828449276032145 1.5077889051740363 1.0271953079223988 -1.3548230133452601 0.6799850523819193
Ni 4.323738673967655 1.173347726195304 8.494094961728756 1.3924413379186664 0.8066249957013721 -2.0899060351425875
Ni 3.3824110702683834 7.829128048141528 0.5243770284732456 1.0723456792067918 1.522429885995378 -1.9989378341931314
Ni 6.885192011361918 3.260289822946433 4.404514393799768 0.5645224658355245 0.34849015069416756 0.3897987796349674
Ni 3.4003626793605637 2.1704026394895033 3.4408157501036283 -0.22367466217796317 0.957358489634919 -1.058185585656326
Ni 8.57551254241528 1.2120084307788797 10.610112703076464 -0.06837746013313385 2.413057449961651 0.5818856397043204
P 6.297372300875403 2.640172121425881 9.069791047891158 -1.2658006232682653 0.9608976131364289 0.7904846384960839
P 0.581446749521304 8.842951459809326 7.182480719027456 0.4291387148851706 -0.7102127409182091 0.9620386687194076
P 6.948558303549262 6.670415494693404 5.251253692923296 0.44274319304248266 0.5476593715315987 0.7155886605181419
P 4.834283554449167 3.3434615748794845 4.723523896358574 -0.752271360651156 0.6672804603310573 -0.6013049247711967
P 1.2426202561431277 1.487635964878699 11.512672470119217 0.6537040071982032 1.7195219125888062 -1.3960038584589443
P 4.628878765205009 2.841207785260474 11.648106041983318 -1.0429119473267072 0.4155800023641294 0.7133057780212361
P 1.8328620830613844 5.439998979033284 10.737815065607094 -0.4178639133022997 0.389138006122517 -0.4403461535652159
P 8.18454568700239 4.766930085981878 2.464738228274802 -0.9830697783580941 0.44692252123115284 -0.7481876775000856
