# total energy = -340855.1049806793 ev
CRYSTAL
PRIMVEC
9.42360501970453 0.00000000000000 0.00000000000000
0.00000000000000 9.42360501970453 0.00000000000000
0.00000000000000 0.00000000000000 13.79239849892732
PRIMCOORD
 96 1
Ni 8.616039918913392 1.4433947596205707 7.245422719808553 -0.21614261546697613 -1.746846311435372 0.6331922603980967
Ni 7.913472457637198 8.873624743155196 5.665572272327216 0.7208817905962811 0.8030570758444556 -0.017133574356493073
Ni 7.929671634957446 5.062737651849965 1.1218293103071595 -0.08965231035151011 -2.70647354249981 0.39746040994528326
Ni 3.626815811144436 2.849764174452744 2.192811674094911 0.09382521078227712 1.717745537414674 0.08990556401289679
Ni 1.639405747556092 5.44080326843579 10.574149166886931 0.07103238125747767 -0.08635667031937386 0.32794009445695776
Ni 3.966310611690834 9.217755957454685 4.3595011146053375 -0.035783842467828696 0.23752005270148768 -0.45043593370105006
Ni 5.753478488613704 3.8686820619306417 3.842410935384168 -0.6136035396328916 -0.03205908531807382 -1.184989822467785
Ni 3.304651020540991 2.1858240708471133 -0.2399438353276074 0.11191934927982661 1.0701982938464858 -0.03100339036004983
Ni 2.913844689739357 2.0590106158159447 7.5404833371667985 0.9668144928414962 1.2257019554751665 1.4987094024499865
Ni 2.595590695289433 0.8233799645228747 1.8531057847922745 -0.019918336190481827 0.71903625274711 -0.26462205112460235
Ni 7.004725938426328 7.0464442385989505 1.9610588363977626 -1.8950938057222717 -0.03482019300297874 2.1923503550524437
Ni 4.424929205434006 2.3995325893279666 9.758342953854624 1.4169807178209273 0.4215148797913257 -1.7152693079600394
Ni 4.091522053839837 6.960868479875755 3.348450052739391 -1.177729798471262 -1.2517045501865154 -1.8240760797528135
Ni 5.956462944389237 8.567922990817296 7.841612756266895 3.0987344105220247 0.6248896540696722 0.469608649974759
Ni 2.7598724045528917 5.25276465049034 8.526350756525106 -0.7606284743665997 -0.6287092849260785 -0.8071600422692358
Ni 9.360843978647614 2.4427209719101057 10.481974999810253 0.371465014322786 0.11771872957042306 -0.34975487633920416
Ni 7.587378023669854 5.1781579682073815 4.730157892791408 1.7234670132794836 -1.2016667689028337 -0.15320355274059422
Ni 8.59988785961909 7.3793707863284705 3.582644546541063 0.0812651147290794 0.3186514700661802 1.4784331686994538
Ni 3.7040045612492367 4.862693360893464 13.405867137402343 0.5794572327684859 -0.4220887500169247 0.01687903514352577
Ni 9.245009023661874 6.786936998898548 1.243267540938404 1.977310485731343 1.1435019876366435 -0.4747878801828533
Ni 5.963483530255198 4.418455188669021 9.080777259505917 0.7807013338570749 -0.654971303946401 -0.1433883664223853
Ni 7.856280597743896 0.43671625056241636 10.541047811299322 -0.22756139882687904 -0.21942488576267372 -1.5793800781281768
Ni 4.894168202225417 8.348126823384217 9.851248392693984 0.7704997107337246 -0.22603647754192038 2.337940614222154
Ni 1.9182784959203163 -0.07194357145648755 13.409190842952578 -0.25813438651772963 0.2767183201675041 -0.18429487482876003
P 2.328742467146638 5.255987523465048 1.4226166525388866 1.7956062544478948 0.46571805667110117 1.5511611924917994
P 3.197052296490617 6.984795013451154 10.169852945256947 0.042667199851223296 0.13846393253757444 0.13827958444091024
P 6.63217313087619 1.6002223971793659 3.983051646309461 0.0035967162123228375 0.6334953934608122 0.13207474118177898
P 2.219843285580153 6.143672285078038 6.663093864223018 0.8176930805900755 0.4039568163029043 -0.023653634863197975
P 9.28191186158281 2.6917680098504873 5.681295557585409 -1.8073662231973002 0.8120790768374078 -2.270736348461515
P 5.330386886433843 2.376633228718191 7.69657216407876 0.2253440794605861 0.5116379591316672 -0.7731399765700491
P 5.254856690842343 3.238780020268429 0.9011181108102061 0.440156663262229 0.33030936602008276 -1.1638167879345958
P 0.6500940005011282 9.323121287075216 4.787962287022008 0.11011237797807487 -1.2671946754023145 -0.26492287019447275
Ni 0.09233719544645201 5.340168588620241 8.297700169656245 -0.30886559432401 0.46250752015360347 0.3230130894689856
Ni 8.691042392614296 8.401794254936753 7.884286610005703 -2.9634925844661737 0.07901308547010909 0.32262408156068306
Ni 3.9902182980558543 7.05061889569777 5.511897773064731 1.2497834219044026 -0.7246019197603456 2.9947224890147326
Ni 0.7672548567369913 3.2938892634149157 7.408076972455835 1.421045117698288 -0.016125444806952875 2.2952343336028793
Ni 1.9329981672258587 7.366026961380553 4.787451527620753 -2.1837268750494907 0.05639586229122546 -0.8068965041952039
Ni 0.8253655181362407 1.8310630298941988 13.003155966165183 -0.881862930399765 0.8559451820927388 -0.05558827878826556
Ni 6.437924357111051 7.038462445003692 4.822071026004346 -1.6779253200939426 2.9022424794064405 -0.8360818675099084
Ni 3.032327677783266 9.311445440245787 8.842224348304237 -0.27915958261914503 0.25862006790489656 0.3054342000449578
Ni 4.125795705912986 8.40599718285114 1.2210768354388575 0.292094031292626 -0.26897287189413027 0.09487396376176563
Ni 4.415081538011285 7.064094651118337 7.973123878484883 -2.1341760607045566 -1.6211144817524852 -0.06998645649146656
Ni 6.771482286388248 6.0526025645295345 7.370258160110507 0.33434136999761127 0.13015592689251132 -0.30355266675152887
Ni 5.801812159629149 0.3465153864123577 5.935448304817304 0.5231858118702667 1.7371589089442792 -1.1389169393691223
Ni 1.8334000839811222 3.3527962194526535 5.285730306163226 0.3501397704824486 -1.713964215995371 -1.2094240442507493
Ni 0.7387088718978433 1.7176499414420834 3.5006073515664142 0.6491559828162046 -0.5351028750228268 1.9983727057182805
Ni 6.08514227324787 5.0739046239991765 13.546811288414728 -0.20197712259987152 -0.1688083491573867 -0.9085769493558415
Ni 1.47730089109134 8.507432869107772 2.6375483550338616 -1.2150925553904364 -0.9569260300831908 0.06027797095445103
Ni 6.5606291202797244 6.034377312093607 10.994473056222722 -0.7937543103862911 -0.15621380032182774 -0.17776710101257126
Ni 1.1992291491681983 7.58099824295676 8.249316553533296 3.497762422064744 -1.4847907354863654 -0.1836191889179741
Ni 8.193372378967046 0.7306601707057409 12.942014673337084 0.5209006153805158 -1.2207003884955172 1.843114327331187
Ni 9.415708208059181 6.92203380289103 10.046796681614717 -2.222828726146959 1.0861365623432973 0.37466552353795474
Ni 4.156262221489694 4.980648627046777 10.33132076601091 -1.0660809292440028 1.574935926313894 0.13643147548857792
Ni 5.9592617551304325 1.4117314461848327 13.74026376754138 -0.9108346350417668 1.0909378403866825 -0.7631730951653244
Ni 1.8245513187084563 3.5530855241440746 11.882331212171193 1.3097688013190991 -2.0311686692023794 -1.8734505164208832
Ni 1.1996343641913343 7.410930440107127 12.048143314917379 -0.2227457226057906 0.22470027522900007 -0.5359024881059867
P 4.064089939134053 0.25655576655514284 13.342173932289008 0.4439346422474226 -0.9210406290404911 -0.7944407949303544
P 8.390448234288947 6.862448347279669 5.871162354937567 0.34649471753069355 -0.521621038486308 1.443764927893307
P 5.944853062796134 1.3372849651900918 11.12319761838626 -0.751391529149364 0.4090941375294696 0.506204961041554
P 2.9974697621883863 1.8712924004469265 4.017711666195368 -1.1414026819054537 -0.5746091606475652 -1.0303816760701803
P 5.524173903544711 5.259785236356299 5.566046750842436 0.037152697790897304 -0.4171100658554107 0.5350805064253236
P 7.06822219019121 6.981100960216984 13.7675582976114 0.43429866181955523 0.3410583770064707 -2.9752947193074246
P -0.16377471930427911 8.875980644452497 0.7611813431925468 0.6217174269892777 1.8029277278099722 0.023281853346076034
P 1.0645092893832846 0.35491747279905533 8.068111934071059 -0.5561725512089325 0.5475488140956635 -0.8771066466617025
Ni 3.66114600484872 4.353215569944136 6.0547388958259285 0.3848802592874275 1.8728337087724907 1.5032463710883917
Ni 4.564662423179579 2.3582666222044257 5.30628036199933 0.09971535101446698 -0.9036720558550565 0.8427183989898196
Ni 6.8464282184580165 9.489287717376515 1.5781673915945442 2.979478932592101 -1.6051823839032613 -0.7963117867008221
Ni 2.428736341809321 0.5392940777679804 6.002314437797846 -2.557343388497641 0.07804609357114946 -1.1034863664756542
Ni 2.4539350620852627 7.269623480294957 0.23452903178588866 -0.2014536459962337 -2.770591198915325 1.0338374958292647
Ni 6.817384667264878 3.1485772713973326 5.8638524643922985 0.22305862586051908 -1.0951163972444042 0.09619216835255691
Ni 2.954158872738788 1.5257759161846247 11.037587934684383 -1.4556133425914608 -2.062131950353113 2.575884898945254
Ni 8.87369070839152 1.6782686953563843 1.4989167566743449 0.046317652119617005 0.018979883536612476 -0.9905120935687522
Ni 8.3979117295988 0.26376199744332995 3.5029660799452733 -1.2770741392995553 0.8003427622370861 -1.1737011369278432
Ni 7.931386731101882 8.206075398762097 11.892840416678197 3.1007930928232663 -4.734359170075543 -0.08295330106477972
Ni 5.194385416343197 3.7593117001046967 11.701388568933217 1.2656633263594526 -1.9603918555991335 1.6073595940602383
Ni 6.956250913333043 1.9369183869845692 9.184178709805018 -0.8795281116190015 1.156077510308809 -0.8321380523708121
Ni 3.027936277765095 4.685539006941547 3.6812597477645648 -0.3590345018689171 0.6069382117975741 -0.5326824385067922
Ni 8.659972766305478 5.621632828411498 12.008435069731615 0.5887893088026891 -0.992455076227736 0.8329685186919074
Ni 8.177559569459556 3.4673872585534196 3.2818458959831083 0.34380688628588535 -0.9372843445928631 0.044107531842175654
Ni 5.05422813636411 0.97154542419175 2.32708108555178 -1.0527906398929996 1.9066619701758454 1.305524167110132
Ni 6.0086885643478265 8.670291613987661 12.502851112507031 -3.076097646959115 1.0657281738902742 0.968845407228596
Ni 4.737896557372785 5.109591816850706 1.9091441954104174 -0.17754598614070066 0.34501350499947675 -0.134700094619768
Ni 1.3247515702884454 3.334806557146456 2.1965632113207345 -0.46094557498312233 1.7561179665452853 -1.6179376266864005
Ni 1.4689233060781344 4.930373693362354 13.359386147167095 -3.3162559086143983 2.4616566990265927 1.0849494840137313
Ni 7.88049926308016 3.5940687831119393 7.811504337687375 0.25389335185318856 1.546529093036427 0.823554424466859
Ni 0.5269340772018155 5.222401794570712 5.79673849059528 -1.1918868066979342 0.5438582526179536 -0.7621333410469003
Ni 7.472617359675682 2.674315493040075 12.289772090852818 0.007362096792026031 2.1191253370190215 -1.078254074271427
Ni 4.269241824103106 6.941220263056256 12.260380808628197 -0.3564356307934894 -0.11363736041219782 -0.7174601665092418
P 0.5005800229296772 0.37162929424159635 10.990969359813374 1.5851506620633669 -0.8934282666398613 1.8207714408596127
P 7.251313415412326 7.580932277720435 9.61225351440893 0.1522555870050281 0.8007775357816596 -0.30888899136277764
P 2.1451517908504925 2.985935269436796 9.79418940563385 -0.11667331902504423 1.5485970313090491 -1.7629766413383314
P 9.015666744172124 3.652796690651082 -0.15575711600930117 0.36169816474400934 -0.5578255134313232 0.30780732826282475
P 8.10398948374741 4.152106411601254 10.152391947201865 -0.8956543277569026 1.4204175114166182 -0.6170717006871501
P 5.484076463464632 8.35867183759094 2.903741642616007 1.372815850378255 0.15095563724668196 0.7730373895539138
P 0.5131200143549559 5.885229912764016 3.2318762871068154 1.2178660043705154 -1.5605881422326544 0.17645146752494129
P 4.011939708016977 9.093091084406655 6.901344277698125 1.7725856251830052 -1.7320629824786105 0.4088483400672507
