# total energy = -381163.58792959515 ev
CRYSTAL
PRIMVEC
9.32525884136665 0.00000000000000 0.00000000000000

0.00000000000000 9.32525884136665 0.00000000000000

0.00000000000000 0.00000000000000 13.64845892594256

PRIMCOORD
 96 1
Ni 4.8182026219761545 7.411976692904669 2.2710902803475097 -1.6459909332791909 0.6520227628410384 -1.7095809993260107
Ni 8.401964803127441 3.2492465023781727 7.232454273324022 -0.6046375886888554 -1.5801472953115043 0.47248237197812826
Ni 5.8906726450766085 5.767057016234715 11.847271138799917 -3.2353108962288992 0.2946142266113185 2.6663375937108724
Ni 7.846216687824072 0.3681696047634205 0.40311228150100786 2.115994247589207 0.3547831827917309 -1.6694136830785058
Ni 3.5656898298616375 0.19441858776954546 7.859068759313955 -0.09936773786706113 0.7261386681198463 1.1584043586697728
Ni 7.2005544284882985 2.187202118463389 5.088909285819158 0.7330271677095633 -0.32576828361661964 0.38555208854347145
Ni 5.8227940872657955 3.907842895480067 10.424392398586335 0.3479695023040072 -0.9921691695562009 -0.19734399470323433
Ni 2.4902357239888993 7.444204786845344 0.8516189896495301 -0.08692796944181158 0.12242102014209882 -0.3392763454053834
Ni 3.5046000603577716 3.290548072998326 2.2415273453328317 -0.9443016564509608 0.7660563302503903 0.18941137011971895
Ni 2.6095710591042964 0.23619667910739744 10.827021631688579 -0.5862292613849969 -1.6421036824096429 1.3117518931873988
Ni 7.514228154148737 2.499644909980259 9.31388557792378 1.0837210109232691 -0.5999476394123539 0.9977687751311655
Ni 4.100754521449609 3.8191876613672218 8.621731308995813 0.3037136178094253 0.7687940408965276 -0.09358147020258721
Ni 5.050625368902478 0.4211398715490727 9.991708789337853 -1.384692547211183 1.913927393489007 -0.8451082393782348
Ni 7.805316103326445 0.5172525150150308 7.610011615983877 0.42845608699584914 0.03417433188886372 0.3360910056988663
Ni 2.90936879987361 4.728344429495732 6.676102813785132 0.15463000077447564 -0.24006930148590266 -1.7712342533614331
Ni 1.1594187348778986 0.3271216811789119 6.2614486596364465 0.4946740775838191 -1.0439447594665958 0.3560826183294448
Ni 0.8134758841386673 2.567803225550974 3.1134595459288237 0.18288848139953665 -0.5949699836921043 -0.9979451528080296
Ni 8.583993852236807 6.343936167669326 5.187028724949478 -0.7081499448519094 -1.3061970248074406 1.336591577938898
Ni 0.7856800856407019 0.973855412735108 13.290214105553648 0.8430503284079418 -1.7484709915229888 -2.226108168229179
Ni 1.058342256225418 4.333540953463805 1.3865605878231448 -0.49415240075239414 1.3779701408856848 0.7019589855498491
Ni 0.4839380284400713 4.923111781939288 6.922648664957158 0.3556429596888649 1.4069140776135447 -1.525968752386572
Ni 5.351402261831448 1.3700856533425343 12.24135750244063 0.3676896064407538 1.000749197915728 -0.23040092515820318
Ni 7.882790352301885 4.309658966026864 0.7337980765410672 0.28500575698727687 0.751579476790454 0.6115374011324823
Ni 3.352327911643282 7.429498853933179 7.179662118978841 0.30173026883080933 -0.5224990702158872 -0.787010049683922
P 1.0072584892673697 6.219975504256888 2.48734955643258 0.21348126658472916 1.3244593134517384 0.27574798583443483
Ni 9.08065712864894 6.28777013473973 -0.029242146116657264 -0.7801763145915402 -0.6717829761871011 1.9602825837147788
P 5.91070330068557 0.8180126224784064 3.8832456607036443 1.0798350456053014 -3.888414550838942 0.3713053488164702
Ni 3.4940065665161613 1.0453987972006333 2.793034332996092 0.0825537516335159 -1.3276060866108361 0.7146962306108595
P 8.49302595397544 -0.15015531499790016 11.687271148231076 0.3501392562618163 1.331771016621803 0.06127273076755253
P 5.568848643344368 2.2279441735637384 8.494418215093885 -0.4890204788424675 -0.5990796349851037 -0.09178426909284837
P 1.5676785591610976 0.7046174771315884 3.982620279650056 -0.0501370258657072 -0.435849808356759 0.3161670130814297
Ni 8.259791909545402 7.657827812306274 2.1383312353861625 1.742050432708626 0.2609451164936474 -1.827395888154666
Ni 7.955937681257515 9.122014650821074 5.219852702918743 -0.539266005261581 0.980332324822273 0.7641557707935678
Ni 1.4336745921681882 7.04833823132579 5.843246244566341 0.3631017299597553 -0.5911256702453497 0.8635811013714417
Ni 1.3393682513053289 7.915568636503701 8.261207483810505 -1.0262499132899938 0.3125163037027198 -0.510667881908914
Ni 6.885901550668206 7.469821272393675 3.9058062589879823 0.3657949605212023 0.714305422930344 0.18140881153021662
Ni 4.090608640023841 6.5273080540262205 5.065966351929621 -1.6248271547173823 -3.9183635317925485 0.48846512055962976
Ni 1.4728966301064053 3.2815025720948374 8.13502740883618 -0.512457112598853 -0.4759721302989416 1.37502108555969
Ni 3.8486368282262062 1.708340760839667 0.43226863523796194 0.3968767695276713 1.0009674845741212 1.3598225234423806
Ni 2.69519558415154 4.38467134671517 13.325631437957203 1.6348246322497262 0.7516692082907829 0.36874478717814557
Ni 3.215479740758039 5.638098014178699 2.3099607560341164 -0.4234046406148708 -0.4135478024254491 0.38166920854929753
Ni 6.575687495971885 4.554335102836881 8.04608029412717 0.5085436364770597 -0.041449525394038296 1.2456472882488416
Ni 3.5788943961289967 0.38760997149898885 5.488740941322386 -1.4803031320286573 0.5625586572409343 0.24652148486914963
Ni 3.3557129805380925 2.3721126724997426 7.121042610494907 -0.9133147211511431 -1.6604307628536048 -0.9957597151209368
Ni 7.367038271405794 3.004505088757511 2.6251032099340383 0.9792941133657457 -0.33409300143223103 -0.10627886316459761
Ni 5.406001651305595 3.1071295603481146 6.335601251475988 0.592931870216153 -0.1366417917271711 0.7171835158090873
Ni 4.976722693995115 5.8434402099465395 7.154057756266772 -0.8214075533271853 -1.4950136987659544 1.3707512545397424
Ni 5.8637412980567385 5.669179101303778 3.1850728698343245 -1.8432529097915804 -2.235448471793499 -1.040878718946762
Ni 8.393534769295737 0.6439100432329218 2.9626029714794364 -1.1208261433056825 0.9611907188968156 0.3712001906971736
Ni 5.792673501783046 0.29980706602797724 6.284869979295415 -0.47005627903513886 0.9768901319099434 0.0650036585648945
Ni 0.5126048060971974 3.682684525052524 12.664595557188964 -0.13392079325158227 -1.0439388459293246 0.015030926191193467
Ni 8.717708736211152 6.091053803235526 8.67515105324904 -0.3784977527998514 0.14319604790592114 0.531888224740271
Ni 7.6071077304360974 7.211679462073723 11.506374185523446 0.677695227906478 -0.6015844036848285 0.25757697135236285
Ni 2.666669617900231 6.63842783625917 12.0561886387393 1.850564355851329 -0.10184293888043106 -0.3222332738801676
Ni 0.6725059489242061 5.68673856336694 11.632103850504329 -1.431072162916987 -0.22911794468072155 -1.7503849207162498
Ni 0.9547945840271396 -0.03820838232150642 1.8122828914794071 0.9037286201246049 -0.08257740578259971 0.2804137667412203
P 6.345894471988638 6.150110666350772 9.899896022641583 0.58869494931667 0.5329464908014564 -2.681048931779118
Ni 9.087734999974453 2.405086787133488 0.9487014600164807 -2.401443519871806 -0.3131662785818929 1.3127661933845263
P 3.7010273088434116 9.388670422300699 12.859877663910739 -0.4025923318552099 -2.0440537526951634 -1.3588686441695437
Ni 2.3379169489810923 4.3505875263004805 10.786554671718799 -0.16616834043137835 -0.887777239001671 -0.6875389534697772
P 8.886160208706622 8.002424095694511 6.8144980450826305 0.5595869762071202 -0.32431355344796403 0.8129619936629934
P 4.38918477190825 4.265363987375763 4.818451606382467 -1.3204802741993324 0.8876219443707294 -0.2325866199556123
P 6.784228255461268 2.247965503914036 0.3644926552724459 -0.8036193761058288 0.6153467475762434 0.1721826649462583
Ni 6.434027491616334 8.982592708544734 1.8030564805578493 -2.0673278927317553 0.5443943276270817 2.156427415903589
Ni 5.652720019762894 4.169201920038889 1.1730914291301606 -0.998039769404365 -0.766385431455035 0.26504628314621453
Ni 5.481088634063208 7.900098032381138 8.569867017887638 -0.19486108038038052 -1.4007868816698843 -0.8709144018080615
Ni 0.726317354041296 0.916998378138555 8.723275915633195 0.2976563558717519 0.24399203357907656 -0.19553008142294714
Ni 8.12322349642006 5.490535121089222 2.8945239206073605 1.28282184041661 -1.3876940530416682 -0.04104586219771641
Ni 4.717890814534072 8.253590612534248 4.230011931782853 2.5454435517362617 3.828687567291954 -0.018320652686058772
Ni 4.6868936547369655 7.888040472929375 11.35902484085736 -0.05423485008416466 -0.04677633692359041 0.2340367221385776
Ni 6.442895812605216 5.146582280548758 5.301839444561399 0.6273697401790486 -1.1035149057207445 0.7711545707089041
Ni 3.0006071306362148 2.0564246909680124 9.645802307107408 -0.06788535098806374 0.33043972095035995 -0.5850149293619216
Ni 4.035244579339296 5.652589466141607 9.913667564635677 1.765985346257668 0.4837594875538443 1.3124761729479333
Ni 1.5907772248703136 4.527105347539783 4.172361317674045 -0.6627085246896587 2.0333996154154272 -0.061720874048564675
Ni 7.66761000864417 2.2904793581604292 12.024879082776968 0.09292738155835609 -0.48002007511607003 -0.11992267920027733
Ni 0.19480931610754149 7.996129546096723 4.043246583798351 1.0171268679428032 0.5132528690272709 -1.2519742589081342
Ni 0.847073858576994 7.863468416351343 12.534963271457453 0.27216129692444097 2.2772494669896846 2.3219532376549625
Ni 7.04946658762406 8.875380209691743 9.829975233183488 2.4862639560523117 0.5041907588250026 0.723579134922786
Ni 6.08526281760556 8.450176390417166 13.04740768310564 -0.007014997865252435 0.39705314720453555 0.3687013355347199
Ni 6.4958726070719335 6.65369328469114 0.8639982705251799 2.6172032980780666 -0.5730199617835744 -0.5538225629195171
Ni 0.27662540551665693 2.1982059236861886 5.336793311609382 0.006829364217007593 0.01796352645695616 0.25878101896279304
Ni 2.6667162441935486 2.5883654209037483 4.824893495067137 1.064972269560856 -0.11303675071372145 -0.034675954115630604
Ni 2.6311124066167264 2.312897279987218 12.065442092910983 0.1409717865610927 -0.7021417909846166 0.17854974481486668
Ni 6.135917622665093 7.337365298338889 6.176118812762965 1.6407682514276711 1.6426526129345775 -0.3357886439670991
Ni 5.405498087337771 2.6759202744943136 3.6598068679736304 -2.810474665373824 3.203618964442257 -0.6070112311273546
Ni 0.45484508646202826 1.7983295069413772 10.970562540716536 0.11163627082176902 -0.07601646473563038 -0.7869033489027287
Ni 2.4952527131498026 7.985163041908577 3.9125763967776033 -0.04642178179764908 -0.1029593118730614 -1.4279467299141277
Ni 7.72731031460719 4.6824548316131915 12.236812371368092 1.2122674272368155 -0.030967652026107958 -1.4827420804874527
P 4.317212425544209 3.766602527764367 11.930732203837254 -0.5050780465259623 -0.16127501689481902 -0.357590570333539
Ni 0.41229672875858026 7.7424452094178715 10.448932749284909 0.2284162906280066 0.7117464039539162 -2.6499203286951136
P 4.636126946573472 5.986153968531055 0.5245672479105936 -2.980309656023512 -0.18897402547198425 -0.5176833939947988
Ni 2.0723056064717653 5.602410249273908 8.591758995125812 -0.32363555354433293 0.9286061000925749 0.7648175727472828
P 8.482553688496454 4.012155238888743 5.2182011996094575 -0.04426051248027216 1.7307193239665224 -0.7160157207532315
P 1.8146207338263187 2.355308556388314 0.9123021778756719 2.5316076742944333 -0.16384072073946623 0.34450185547038087
P 9.289421694346244 3.880081600439156 10.058068262512398 0.4798249283861285 -0.08446639527519646 0.1290873764186809
Ni 3.347777185415548 7.6996142963769225 9.552105838161133 -1.6256373093235035 0.9127693901706343 -0.621606098222394
