# total energy = -340886.3975325229 ev
CRYSTAL
PRIMVEC
9.14655946897507 0.00000000000000 0.00000000000000

0.00000000000000 9.14655946897507 0.00000000000000

0.00000000000000 0.00000000000000 13.38691433124514

PRIMCOORD
 96 1
Ni 5.34588946986702 3.1758500007669968 10.059234916733955 0.676377794646635 -0.6059856180763177 -0.467355335164208
Ni 4.381842127618514 0.4178075081218019 6.453295408118673 0.7550188414893061 -0.6212433155663365 0.09934536926955793
Ni 3.6358304641605192 2.3954106883884774 2.8211848495947045 0.47929296714205843 1.302860761345356 0.7903164883493357
Ni 4.997076287286478 4.677769904763752 3.0574102907147185 -0.7446459828954143 -0.2221728808214561 0.48795578502337894
Ni 5.140567508398381 4.98037467014278 11.989494591799373 -0.8936162142809513 -0.2596999312326366 0.32881812618653694
Ni 5.816772631855989 5.3276420842144026 5.411298344192327 -0.43570608369004316 1.3893099913785363 0.02309467703593442
Ni 3.254153694286821 3.3165149350785694 7.461905701564227 0.5942755287282411 -0.5743546214345979 0.4961833151394939
Ni 5.6518967552775115 8.431655008833204 13.232214727216345 -2.9829090413195725 -2.0088885176479403 0.105519873511386
Ni 2.326088916026984 5.348569411719759 11.962171075428415 -0.6889270920665554 1.689799702934025 -0.6635765291169087
Ni 8.057707081504097 7.661231178805369 9.918244364913996 -0.8928947627338946 -0.7581149639161265 0.5102171675247407
Ni 8.012340147751226 8.96813729357935 7.880019619420046 -1.0733214128564998 0.07589690843863058 -0.7396755262640164
Ni 9.114610292998398 2.9080753329143665 1.6838193566036292 -1.2407943310319147 -0.530144502576287 0.5788607368350676
Ni 1.3712795985950914 1.467144685825704 3.1415604648907594 0.10252196722532665 -1.481488667696326 -0.17111360025179562
Ni 1.856449686092527 6.839851867338573 0.9873701536147239 0.7986322073038826 0.3360346985396342 -1.2550063608662385
Ni 7.477796933560646 3.9582649699379795 4.449756244515377 0.8500660976041424 -0.6019248177433827 -0.6590830121219294
Ni 7.677356562717931 4.249646907148707 13.187662751890365 1.1217090601312683 -0.03357243663880669 0.7307496845292963
Ni 4.45577376582909 0.7637495857618131 10.985930455077902 -0.013539943467963778 -0.619284649178069 0.590866245936376
Ni 0.7162158321286892 -0.05074145195311012 0.3164188137755926 -1.1019308490630764 0.7423674712738827 1.156843441940556
Ni 3.530004773934569 4.566785555135257 9.76762797416631 -1.3835172959561592 0.22646019534290032 0.34544390766867605
Ni 0.2858254024819228 5.397155934319608 1.7803795823352937 -0.6176625401936137 -1.4850262485359391 0.7968977411112791
Ni 6.460580642540883 1.9136614140409556 7.616926160578447 -0.9681630364495908 0.15200130490237693 0.25838841151006464
Ni 3.504659658323842 4.8478501735408965 0.7697689363873703 0.4047217194933868 -0.29879201213809187 0.18325254960717471
Ni 0.3753656440088843 0.09971578866407213 5.186786901470963 0.3858570213784 1.4475004836763392 -0.2525082985802038
Ni 6.5849464083146305 0.9903985793739125 1.033334357684946 2.3543483661562163 1.5032911082833982 -1.14582600778413
P 0.058580053208394454 5.917339050527929 12.954824281651135 0.6687922689898934 0.33379655323773477 0.3273816508503265
P 3.890324328019366 6.510246459129208 12.918532563960683 0.5262842482899323 1.8397824347444767 0.8292782143245138
P 2.231531786765456 8.848436273010032 1.8443149459695563 0.5273692538239949 -0.029459185801381522 1.0292887001163178
P 6.5693881110739785 8.402687855769628 6.203495558453773 -0.07437507247746546 -0.32816275199072514 1.9149753751375471
P 4.760866395317145 1.4588030238130794 13.091504974764572 -0.9752883346404624 -0.8017298723926 0.8965475289951335
P 4.012805902592893 6.369051024382621 8.765630643039973 -0.1906773813163361 1.171101237411151 -0.40509607211367005
P 4.655744990151471 1.2216053034475152 4.361657500722176 0.6159890091459327 -0.9783068097518118 -1.1919369432095794
P -0.1755471672255492 5.630173677119635 4.180224522635745 0.8271737663870014 0.30908568075461607 -0.5557853430728428
Ni 2.8140578506470764 1.8754379430423171 5.393025348173883 -1.9732897946077244 -0.8410875482546161 -0.37518642903843125
Ni 1.7170286838354685 6.6995619419552 5.281124513311107 -1.2029839450523605 -0.8554682424563202 -0.8237855666410586
Ni 6.679037063055715 1.1327281874643202 10.011055416019591 0.9574402507154478 -0.4925493179313324 -0.26045994932711275
Ni 8.919367839795013 2.7265984513436585 11.092316829384309 -1.5593630115763015 0.5946208278828017 -0.7517298863253893
Ni 3.2878404719101724 4.444925946588987 5.19658561036803 -1.7201040103445215 0.7456865083447868 0.2603887297695451
Ni 1.7552155685972093 6.910801727242005 9.575257540559376 0.322589885888638 0.32340081182570757 0.8017165026561612
Ni 1.4471320142427844 1.3764016717607381 12.015491857082797 0.874690581021042 0.04777238228827256 -0.7155107560923548
Ni 4.163303388070663 7.031838145458082 2.2390685515663358 0.9286855471802586 0.8516478402689655 -1.0925794897551635
Ni 5.470648537687413 8.398992645842982 8.619231730750643 0.6802125950116931 -0.6262335696920763 -0.22454909436311649
Ni 6.938890810620042 1.1956748080464288 5.241766868968646 -0.9348718784966287 -0.0494471988875342 0.189995267647647
Ni 8.228903230506614 7.3618368557140945 5.2130914911443265 -0.9079825103049525 -0.5116919522980542 -0.15900139036929392
Ni 5.242826040526827 4.62264359231848 8.05605704222002 0.16733330727375698 -0.3740258330714268 -0.8309316907675368
Ni 0.6857596192233849 7.747885680897042 7.17280217225629 -0.5477501314731922 -0.20332592331828206 0.8215219674178627
Ni 6.523993737643435 2.4027004960902993 12.186268179016915 0.8370624862556227 -1.0110189552728523 -0.9272904666049449
Ni 0.5656049293165375 7.535758679365474 3.007182875390018 0.2145829842893401 0.42855507446755875 0.8264546288327895
Ni 6.705809041905444 6.500011459357139 7.5102727067426915 1.211174708393269 0.45025827047260525 -0.08366318264761076
Ni 2.578899812988546 5.705422419858521 3.176621055709611 -1.8793357715570667 -1.217313474301155 -0.7239856263325853
Ni 1.2832165263828654 1.1133008956717605 7.743017882077833 1.015133748772174 0.08239974255415486 -0.7881932713587457
Ni 0.9658400678564815 3.6813620359794292 4.0797824971692584 -0.018018290954291548 0.6136289935541883 0.036482411196750074
Ni 0.6663698283236448 7.741775779335163 11.784661056593317 -0.5031034392980948 -1.1592530798233132 -0.05795472213791309
Ni 2.0190938022202585 5.62379852534025 7.6439414379035435 -1.224063391430479 -1.8117368414611699 0.010224763051801745
Ni 6.255487345052854 2.361495246784517 3.0571825413900315 -0.26737313150717823 -0.6691956750758992 0.0630089967323689
Ni 3.60327785988099 6.753371149872163 6.6273123559859854 2.370239840575492 1.4840888243233346 0.2090607689195303
Ni 8.346985310093219 7.486605070093714 1.0284949131993324 -1.3760107031664688 -0.31623231910172633 -0.34348729816293744
P 8.963033513532153 6.326190247857228 8.444023900872319 -0.7011866261601988 -1.7262306920675496 0.3909089819800107
P 8.496623019003898 1.7053302345875003 8.870409966890657 -0.04471456929855525 1.3283002844643832 0.8075364517720479
P 1.8035642806572247 3.5151964945503154 11.029277828554035 -1.4989888813636185 -0.28001781685438226 -1.7171865795874102
P 4.085713126170339 6.366224737582291 4.537307109411038 -0.005675967338854741 -0.27215384072527327 -0.862935754477959
P 6.96306516665005 4.3880892275687575 11.092289389706636 1.1968850312434742 -0.1001894624374081 -1.5676622754706162
P 6.174979330759958 8.339485131529235 10.992918426325321 0.04249107928467521 -0.6390428056416027 -0.6999041599033494
P 2.23748619682052 8.67607851098602 6.20273273541446 1.8549565713817535 1.5230387232239706 -0.4362691552823648
P 6.8675385021107385 4.160669179014044 2.0392555627185356 0.993080882737193 -0.0201258242155976 -0.6344217619298235
Ni 2.526023554112468 1.6817229652294037 0.8628937144743621 0.48488383096627463 0.04599343601097885 -0.5273684824930467
Ni 1.1931686508189516 3.545005131062534 8.76620687627111 -1.044217296401692 -0.12404210068528959 0.2192636775944611
Ni 0.480603210476708 0.15084414007237307 9.814107129520863 1.0098192785377964 0.5005616467128476 0.5057866425572127
Ni 2.813984678173281 1.9424181962423723 9.720987839369405 -0.5924811558319797 -0.09734093724501947 -0.5784542454252682
Ni 5.389747221347869 3.348244349027906 0.5854822318229366 -0.6880418612481247 0.015529977314799062 1.1492136933094401
Ni 4.190651600151526 7.436747175761678 10.852075134108874 -2.3972089129651684 0.44114499531742735 0.8677473169339894
Ni 7.126569059344872 6.5015297881883845 12.21646920291986 0.6091727575550476 -0.050219815387500616 -0.41930295974167137
Ni 7.699893684646777 3.955557588407567 8.731400559798693 -0.005644856990603182 0.2625746816772704 0.32612103897034805
Ni 2.9629455417013566 8.63085792218074 12.98214688336617 1.6098839031439889 -0.18799469227785043 -0.1686484265407547
Ni 0.0855066089090147 5.247756035948762 10.389048866493635 -0.42257597406598835 0.06371862120488381 0.7427641924916691
Ni 8.63447995963359 2.1794878647787956 6.816175084130371 0.4311804279055478 1.5996995064118191 -1.9646706854801452
Ni 3.638766509671542 3.012556478934335 11.76985552117683 1.3657699992750671 -0.30784692325150853 1.9363723527560845
Ni 1.3769504653142004 3.6645963929211605 13.288252036960364 -1.0750797903085034 -0.02194950768789768 -0.3775320464524724
Ni 3.067819989767973 8.850311317651027 8.61457247348175 -0.16158046395037978 -0.6446925477282123 -0.06247754970893111
Ni 5.655061464769144 7.876705821013056 4.32509778884645 -0.13655000334431322 0.6676121326388631 -0.24974127735802798
Ni 3.0253342221707786 8.269605419055056 3.9122184468347383 -0.2753875171712225 1.5686025278966984 0.6862202346583537
Ni 4.885113255820976 2.986241828045825 5.5146855617290615 2.727505937690077 -0.1915890944973281 0.8690693781795226
Ni 5.880167433840092 6.308921544041619 9.982246498430595 1.8760532441510527 -1.862444909338999 -0.978372887103057
Ni 7.610367162958652 0.13180283307908144 2.9818953831024047 0.8296844486239969 -0.9644207957983391 0.727659989860379
Ni 4.584557319708207 0.4312739872678405 1.8603525229135653 -1.4520449085139122 -0.8160825415698462 0.9369791546476186
Ni 5.839666469594586 5.80886085812691 0.9615969790322967 -0.17021679946913912 0.709183014102114 -1.528484062609258
Ni 7.608986032515772 8.931770574103258 12.389053799612636 2.939783413774692 1.644727493185735 -0.3552004728348076
Ni 8.740406262011009 5.011354066235718 6.449681602569125 0.588088940301555 -0.03911727771643586 0.18476667225885596
Ni 7.095013430020799 6.178948937463334 2.927878548291048 1.6110946356226385 -1.2993208665128977 2.07653835558643
P 8.510159926655964 1.8930450695492278 3.905524994794345 0.6247785824131046 0.4624969786306422 -0.013471552123873572
P 2.159868495242524 3.7765319847089898 1.9563904801135183 -1.5261106772810749 -0.6812906585672202 1.3469289553091641
P 4.690684846388561 1.2830884745537243 8.686139726132826 -0.6796106997616359 1.0656191591162356 0.20971640022565816
P 8.614549607083688 1.7988538026566747 13.186578884622278 -0.37445674996125833 0.048274004515039444 -0.21694942763898764
P 6.243871214837906 7.820170938447231 2.045895050059505 -0.5927621774075081 1.862956558868095 -1.5191926100050028
P 1.4368329885561448 3.378437141027548 6.330002533741945 -0.3380668984783145 0.3752720467737021 0.5580288876913809
P 6.812970129778152 3.8299295974608567 6.568851208047508 -0.09449729714863725 -0.23138951432371763 1.0275004978676434
P 2.328649952609807 8.76117809800955 10.855314845386145 0.6066307078594843 0.6077797338622629 -0.7246839379511907
