# total energy = -381164.6256509573 ev
CRYSTAL
PRIMVEC
9.32101363511205 0.00000000000000 0.00000000000000
0.00000000000000 9.32101363511205 0.00000000000000
0.00000000000000 0.00000000000000 13.64224563749210
PRIMCOORD
 96 1
Ni 0.92083132283404 4.215241982057436 2.5899666672021353 -0.6880017520388086 -0.2311187771608342 -0.20030641976566793
Ni 8.664282948339595 9.241523999810827 4.8598040542822885 -3.403812769889461 -2.179065207907763 -1.9612457189589962
Ni 1.9032484467512676 4.380401022103597 10.836294433444891 0.32647019477965067 1.3411763690961032 0.004358791189327977
Ni 3.707190814567392 6.417154346702439 11.267239380100019 -1.1551465138541073 0.9105353586337931 -0.9763604846587186
Ni 0.7175800964931298 9.190677870601965 13.199636500593165 1.1180272404043068 1.3520544494611877 -0.002235574198738085
Ni 2.069059957749697 8.61101335559374 8.858128339852886 -1.2846257263945682 0.9043472275452102 -1.0774058673385185
Ni 8.199378752821653 5.402953498497531 1.0787171759651377 0.7348043142146442 -0.6435766889562141 1.5396791599941289
Ni 1.1864997846715988 6.580048380442872 9.32211441553085 0.7977737159583294 -0.8984666003947173 0.9462186709680157
Ni 9.009244340803527 7.684998617094613 0.7030803277310208 2.3350432380697015 -0.9626181953719616 0.2551174540682768
Ni 8.554220419705638 3.4582265412092466 11.853815426695482 -0.11068110599735131 1.4211924419094297 -1.348748010795774
Ni 4.566513700731156 5.100020556373244 4.453402268547388 -4.737403613328822 1.0236261025139017 0.6109079950785995
Ni 7.95095509825253 9.117899396383304 2.1808217071636307 -2.9743935476493935 2.1720047015165562 0.2444581745822177
Ni 8.560251115507313 7.113387457840091 2.9213781021901872 0.05169974236713677 -0.24888947088069394 1.0384387420467018
Ni 4.7752578003887995 7.489275973441511 5.729033313704196 -1.4345161556015293 0.4853196329521125 -0.7199569647891666
Ni 0.45896298144686404 2.0016131033124247 3.884384215277451 1.0509155343574739 -0.38086008238444086 -1.9233504865751196
Ni 3.805452939978907 0.13697602331363873 4.668321539717566 1.1382690213724784 0.5981432392137634 0.45898459460200947
Ni 0.7250909692550914 9.206551556769279 2.544523929579411 2.535257355231879 -2.3589192733563507 0.38267322433377965
Ni 5.962894748720066 6.8677228232977 7.6935720854074106 -0.5556454750608688 0.06989981031493123 3.8818831774783273
Ni 5.615183657243006 4.706002669312386 1.7435608416905508 0.1730532404766697 -0.19555193579981806 -0.3885389390859373
Ni 4.866985895264034 2.121919425896984 8.204310501119437 0.28533485819192145 -0.025617700568104265 0.25702546972426704
Ni 8.41853442467477 4.7754442206608765 6.032177842837291 1.9866695583487397 0.12093080874981754 -0.3281894914636025
Ni 8.838623186785522 2.7037370950476936 7.4622534229026645 1.7470949371110684 0.2107067891633855 1.1640271041731889
Ni 1.7867544187306723 8.694585563565628 11.130721950655689 -1.417523734808591 -1.5733007047033163 -0.5310847550023692
Ni 4.0844401981549705 5.242995584042304 13.423997026442658 1.009214812184578 0.27627429065155 2.3593728159540013
P 0.7528256452332704 4.896952954000329 7.910060083167111 -0.47770891048439024 -0.20654134493178622 -0.2598824795570879
Ni 6.115833939931614 9.028622728085876 8.602172374190511 0.13106301208781299 0.9264635998282755 1.4460943473574321
P 8.072585004768833 5.303619456521576 3.8548897319308697 0.5011576284256337 -0.6426426071777191 -0.06000620535030311
Ni 2.9442192460263588 1.3164347143089088 2.6735659061134744 -1.2961468396602902 0.23382332057619085 1.193027605170597
P 3.8468568824070943 2.822645265591679 10.428855218895885 -0.6843991222892148 0.4903965332543876 -0.7717250985003935
P 6.8521567305793125 2.1674525773516655 7.124676137415682 -1.0942849024820445 0.9815623405746322 1.2567120307034358
P 6.821117755278578 4.485877612044472 10.715261071799233 0.03710821770620706 -0.35717456584204293 -0.2309246588721571
Ni 6.904074776352615 7.388469211316153 0.6873371357541618 -0.8134957546792765 -0.625350909976807 0.9408715477234892
Ni 2.7664302325470147 3.862292480935027 8.36625751987772 -0.16472132357220662 0.9272189899370611 0.28794992721726537
Ni 6.625562889870346 7.3454713755617105 10.317944478023982 -0.4625748830564291 -0.7646833611622637 -0.23519448989210465
Ni 4.802232813758267 7.267128256221568 1.451998604061568 0.6730055357402925 -0.4562749089803304 -2.1061286676490374
Ni 2.6288427507409655 1.883441292843141 7.259161585894379 -0.22491907610802556 -1.3615294788311585 -0.4817182887540994
Ni 4.731933729158224 2.722947704085175 5.619268125404202 -0.703983986399678 -0.9654250686931374 0.599018185619549
Ni 2.335724835941505 6.574493056334993 13.260522293554706 1.0842203191571909 1.0527181347838515 2.6800055781162686
Ni 2.523813569453074 5.482443102510945 6.187712936337504 -1.4153835485371367 0.07908790457210249 -0.6627864291154456
Ni 0.9333130921509211 5.7993296020001575 4.426403952643912 -0.5621074286361287 -0.013820965043492327 -0.36328479250483886
Ni 7.956799373782127 3.205449973287137 2.9506945541769354 0.5531291363969183 0.3007380801208691 -0.8139055885231854
Ni 8.46913820752993 -0.3217763032257789 7.690924917543924 -0.18554314541356431 2.117191096110786 -1.77368245779161
Ni 4.783423008305749 4.493716584485289 11.504069557948707 1.4617873326126567 -1.8161956485634723 -1.1465274047265286
Ni 2.6877608777307382 1.7035364092757295 0.4640289523405425 -1.1026751834282686 -0.7689524208512628 -0.7587806225245834
Ni 7.195347130458518 4.42096607330744 7.985256428314602 0.08396348749684894 -0.16517280928732844 0.7143221351008923
Ni 6.6913506038861374 5.102956675658448 13.095014647599763 -0.47423175056906713 -0.6459158786123521 -1.089489280865614
Ni 3.6568666621203443 0.6699711553088767 9.94073610689626 1.0597734989687362 -0.7627748312856413 -1.2037845865767849
Ni 5.905440020866092 0.4843925707608173 6.359864600789255 -0.42824114277156566 -1.0893602114869176 -0.48403253870957286
Ni 7.134182639190223 0.33960647014853423 13.664209800128173 -0.141988143640749 0.46633743542265493 -0.6516648652809874
Ni 4.26197754426701 0.9907118939232706 12.112840802137594 1.5846225574740387 1.7113033813337561 0.6699631493695429
Ni 7.810273039930011 2.7507616086789866 0.22550235001595945 0.021476938926853335 0.5789903204343964 2.023442247092399
Ni 1.5210029998720394 8.760662229003138 4.612020753347747 1.289317732553599 -0.22808873208525882 -0.7397742566254097
Ni 8.573337818607081 8.861776584577422 9.890969351062722 0.22981677051995905 -0.8385917784159557 0.7979853177485031
Ni 6.357499859637965 5.864847006621438 5.884773469503694 1.0234088442967728 -0.820721068783122 -1.1898715760401186
Ni 9.612854539759976 1.6036803905379604 1.4030232022829945 -0.26871807557084687 1.9975638366637405 -0.9217618234772318
Ni 6.309916085190442 2.368357704568493 12.216849332435865 0.25832696214450995 0.6180572045288711 -2.0510312124542613
P 2.587112572836644 7.807691119161752 6.194056818196267 1.1763786837600063 -0.04281143873857143 0.627886531914467
Ni 6.013023159881432 6.434230443624646 3.3891158858436916 1.2685015671391962 0.47659279460207593 -0.4446602075595374
P 0.5073045543003777 1.0967291026531676 8.801131273766861 0.4208924157159784 0.4157658931226904 0.1619422181651727
Ni 2.9590396576564393 3.412488327455281 12.602174442209797 0.28182504526645014 -0.05150253875466614 0.8679175239632666
P 4.374472857451565 4.57797854746386 6.649025745313892 0.9244170017118919 0.2451102063439198 1.6498833263550619
P 6.439795088746129 2.121127139740659 1.8755361412057379 -0.17243334750448366 -1.1433518352120244 -0.2605836193891706
P 7.214184898951847 7.872444200667518 6.258475275313656 0.35146491705177535 0.6963714641597426 -0.8683831507457755
Ni 4.903160749060476 2.3719556158195694 0.3136688855931726 0.16981776425850753 1.598199524827525 0.9160172076839708
Ni 8.15676307862497 2.252618678649808 5.378592097342577 -0.33851375620774604 1.8568992969304214 -0.028837750167298726
Ni 9.051235507088753 1.1355697663403033 11.50629261969322 -0.6450188207193794 0.3927918008250203 -0.07512737726245772
Ni 3.4464447800140126 8.379553945783575 12.542148978803892 1.037231094891846 -0.1367991432406418 0.09783947414799278
Ni 2.7739988955933206 8.67055599049497 0.9934560003282366 -1.5545018268292583 0.5841129863729424 -0.6712481867295537
Ni 1.3490675829358976 3.3192129443218117 5.756987033502065 -0.5670624586485589 1.6503029303909835 0.32736391023851363
Ni 5.092740844748657 4.458529758130852 8.977088708073053 -0.49450078523074836 0.48318767421077424 0.24183359247517708
Ni 0.9448431859788516 4.757314849201438 13.553707319652116 -0.34485923880979963 -0.9354130957120794 0.14177885584342034
Ni 8.630037544359146 5.6302557362403896 10.341245147830822 0.0005594720478958107 0.10672263557023556 0.672000748624862
Ni 2.111908657286477 1.6235248285005022 11.361153252665352 -1.449719345704529 0.8716690205858988 0.09526168611848755
Ni 1.449585393639538 6.579060353000867 1.9864198511381912 0.25117929535613515 -0.5593635473424043 -0.029250669335001235
Ni 0.5982953569995495 1.0208001258364154 6.061890437902202 2.838825191492059 0.8558415666353391 3.0330800057470086
Ni 8.185825999041693 7.816695218303045 12.181979420543959 0.17590227988969062 -0.01282132013438437 -1.0477021696264988
Ni 7.477401002110239 1.9396003998061822 9.453721535008686 -0.07304015571612582 0.1478497446278486 -0.182011478111222
Ni 3.3034324682905374 7.825466292104244 2.88648115935883 -0.8941378911123762 1.713796837179571 3.8467925044227815
Ni 5.5591457234568145 7.18582105455541 12.582693523777806 -0.26704531585411434 0.32180647075539415 -0.7973209446916268
Ni 6.448584804574535 8.602400739023805 4.131690280315476 -0.5069737208867784 -1.412021316933123 0.3493062188375597
Ni 6.364416051732002 4.140375600791519 4.494983310234049 3.595841523027368 -2.943208894516473 -0.2756690529673833
Ni 6.499486859865018 9.701590589268383 11.032265948161214 -0.0265119302475995 -0.8909494660820657 0.4598870518116209
Ni 3.4473395973199796 6.53293065667554 7.989349285388042 0.29292526894466975 0.213311059555452 0.4218804906608605
Ni 4.8869328643762175 2.8620731531358556 3.2025856258066816 -0.7522014266451691 -0.731898967642391 -0.7202986643993013
Ni 4.768789016947745 0.4621134840449566 1.6717480244812473 1.5149713728348038 -0.63531856271248 0.214044852397683
Ni 3.911665889994484 9.132085979088325 7.655550738816051 0.26488584630895023 -0.694196825105927 -1.235864754940781
Ni 8.567885025648845 6.824147084699821 8.023018650727776 -1.4515121759388936 -2.2668521829157604 0.8835068937610915
Ni 0.4384017575381881 7.47647822176346 6.240413015152166 0.5109509603669717 -0.3174371380431049 -0.4108859393225698
P 0.858008623245625 6.507297869265024 12.020741730920927 -3.1338340824386353 -0.16609300710875266 -2.985100906764569
Ni 0.4003850714536306 3.3207975166344617 9.554564649087101 -0.295419239011117 -0.7406672007533244 -0.3764501262422033
P 3.6449450857210537 5.824468375689671 2.626718491740654 -0.1275208032625094 -1.7932734925496598 -0.6236200433286292
Ni 6.506552188176718 1.4570328835089936 4.334468931266673 -1.4788242334902855 0.8525418128381448 -2.335485210703126
P 4.419008660450637 7.507190961588062 9.583281759899123 1.1002339209766276 1.3872842191977592 -0.2938794053278229
P 2.4126791242546775 1.8159757963786611 4.739315971932453 1.1092116989952059 -0.4428964307908953 0.6382354792489588
P 0.7491932462318601 2.4913111950165385 13.06914883484915 0.5832408681806343 -0.2722870238690278 0.23220763934963878
Ni 3.1923166651193484 3.8790237003538914 1.7704361202144572 -0.31455801672309697 0.17854357416727962 -0.5154426775897382
