# total energy = -340867.1164453881 ev
CRYSTAL
PRIMVEC
9.28600955952326 0.00000000000000 0.00000000000000

0.00000000000000 9.28600955952326 0.00000000000000

0.00000000000000 0.00000000000000 13.59101363459179

PRIMCOORD
 96 1
Ni 4.092539432446549 9.223997617805077 7.117925999823193 0.316125618320533 -0.12856338559441083 -2.4925451610753333
Ni 5.212450761001165 4.891294119336339 13.655571117578823 -2.3161469153858305 2.2549094087315877 -2.197343694501977
Ni 4.291055745458278 2.9769089543128526 3.928414784551774 0.2588686935805929 -0.5554022487018112 2.002185908816784
Ni 2.375946271686785 3.9887497032608397 0.9235205831380021 -1.2721224517212348 1.223855903405363 0.25692931046603495
Ni 4.608665131459784 8.646361391268702 13.274302421435088 0.8810440340428956 -0.29572057230161974 0.4545918648509526
Ni 1.0636473964497384 6.882223861408925 12.669189821123316 -0.6801015233551255 1.4505714092921793 -0.20368150688548792
Ni 5.553386603092363 0.7723192747894155 4.82765059541041 0.5545149610008515 -1.4682019778897488 -0.9438087759749424
Ni 4.794840337726607 5.229434872540994 4.9563305447007435 -1.9717764432869913 0.6917727890454668 0.11541502113791093
Ni 8.016296354588055 6.417338363312462 1.6954247732987515 0.5747891378688552 -0.7116654142043356 -0.35950552796806473
Ni 8.885903294648372 5.100229335107875 11.384458322555648 0.7694100772139717 0.26382912290966176 0.7821519502606723
Ni 0.46340809397071925 2.0568975541988537 4.390576696035536 1.300486861796541 -0.6106156606491613 -0.6139285270724781
Ni 6.391727548863666 3.4106027461970236 5.354926934739132 -0.8509071054481991 -1.6219763155321485 -0.6623159172369304
Ni 9.36976939634648 3.3749537553816045 12.908310139667607 -0.4283969516231396 0.46895996064716655 0.5906088785099313
Ni 5.2941862174109895 4.259130444488387 9.010801052232761 -1.000699318514399 0.614087935468478 -0.5639871621573448
Ni 3.5055521942531995 5.847520956850738 7.520207078466833 -0.1616498837357345 0.2887994197017542 -1.1992334768709927
Ni 8.361039460611092 4.1228211097190375 4.367744255656022 0.6674329267485215 -0.8838316240903618 -2.0811866529917187
Ni 2.150741967113838 2.0933729998677686 7.4181789053003175 1.3766573356115324 -0.04507246685860625 0.7023878455571516
Ni 7.823528081512442 3.2691675341340782 7.475301793292255 0.31644906309822274 -0.71381357089559 -1.0929006205400082
Ni 8.083471347961003 1.7566437201207707 0.5383796209953005 0.36445078778848206 0.13907379820743146 -0.032420582422550616
Ni 6.507087645998324 6.358790072848483 8.584369848448807 -0.9848273844791492 0.0754842463812442 -0.41889595411123987
Ni 7.237441586249307 5.787161894516738 13.012294875054705 0.7642146490559613 1.4355237709304374 -0.011469434092180248
Ni 4.974134610887355 8.930699004909789 2.479612496944949 -1.4334941420949183 0.04399517463402746 0.16068983381531035
Ni 4.699760885536174 1.7155902717240612 8.795492848079713 -0.4343451987867746 0.12662503092111743 -0.973650284816407
Ni 8.159746630731998 8.99279455103709 13.055106165066771 0.7859304434664981 -1.4846863486980173 -0.7570469276629285
P 6.986598609198795 1.8377105838401269 8.851487485906484 -0.26884380251543377 -0.762770460410267 1.276873336142659
P 8.525503976456855 1.3455149315399257 2.600708562203255 -0.7072426025462917 -0.22042735888525908 0.8430408153262448
P 6.179579373774042 7.922888384123795 4.023076366310664 -0.5671277646688555 0.5857484650938364 -1.079493860215799
P 3.8752653800633308 3.0667232390658437 13.288653949256195 0.2683581211282669 0.9751312402373076 -1.0561924664856972
P 2.48964417310486 0.997670298313882 9.420339147370864 0.11919094324057536 2.5961835012932903 1.0235140024160694
P 1.8999825641496346 3.6433287185377456 4.4475500792730776 -0.036201389621221526 1.4675003238370339 0.30519405900969376
P 0.7277306425418516 1.2850630091100281 12.2827293170179 -2.498735091936129 -1.606287444041982 -0.9290208190324903
P 0.6055629717768778 4.070624449814512 9.672874035368645 1.047818640599705 2.1241526150302836 0.45537527998419636
Ni 1.4995605446258822 1.697974711532123 0.5894201727058894 -0.03929879759962264 0.632813022681807 1.7581339685340494
Ni 0.801000972609573 5.7315294110639705 2.88393185469356 0.732574653553177 -0.2826650246692422 0.621598127802594
Ni 7.653324811740153 3.9796958439107395 9.659309961160757 -1.0213740732549312 -0.19134998190332853 1.1406637468569
Ni 4.317130860386566 1.49065526142922 0.9217450981044235 -2.454875414438701 -0.9768533651347371 2.3279089410177654
Ni 1.5763465579243192 5.681319957211673 5.4873445028893775 0.26959199353536795 -0.49472472831609626 -1.9241524136511248
Ni 5.976392197938622 1.5669212581906256 13.16224442931058 0.44686441429970786 -1.270258916149935 -1.2947551015190863
Ni 7.351483070022207 8.907818277280409 1.7990696407348594 0.3103838307407493 -0.30684265035671027 1.012830297449978
Ni 2.3486732615214065 9.143673634852908 13.1352657856492 -0.41098775500775675 -1.3110232425514905 -1.087495904584669
Ni 6.86142319992767 3.813141975907261 1.1004552812619701 1.6609359846247977 -0.19923452685772783 2.3927457349874923
Ni 4.046582970986401 4.132654993874684 11.30961215666053 0.523690262310511 1.7427598000708244 1.8892316905145399
Ni 6.880728813864961 5.926238460143863 4.709395120485639 1.3977876898322443 0.2971105106706109 -3.635017164785566
Ni 2.6863682862657488 7.546089972996611 3.722088937474984 -0.04842338560871015 -1.0813062308341894 -0.31950173388161746
Ni 0.9848648910894843 7.177175384011206 7.066226141431725 -0.21485320723159124 0.20647809579401857 1.0559713516138265
Ni 8.45343525603006 8.657198164460052 6.059077613129488 1.2534282177458413 0.12005997610909003 -1.0528315204332641
Ni 0.5839664992737729 9.126893815524056 3.4622561745405425 0.04317396428431274 -1.1269101447162335 -0.32023244140005497
Ni 6.1258876663255535 1.7418325348249661 2.5807975004407067 1.1224868188375572 0.9488000585419467 0.0009734196568628396
Ni 7.935405925050907 8.928098922224631 9.46986515091735 -1.2364993032009866 -0.4958788965251976 0.6548208944114658
Ni 6.505035437878968 7.438353689735217 11.027449326465383 0.22954500491581112 -0.931489592287957 0.3386065730318684
Ni 1.3063001130420058 8.79675760258585 10.668103041761357 -0.6948159467471646 1.1290073935648945 1.379247722046528
Ni 4.992325903673864 8.63986118455581 9.064567047757969 1.7785174172864078 -1.3803404408900741 1.5295726676877464
Ni -0.0019259183889340746 2.1409266549773704 9.620996814194012 -0.016875949819732228 -1.9858007825905415 -0.21142386983506814
Ni 2.9160577334705913 3.2854273369258986 9.707680785114265 -1.8468599104165484 -1.0217052313421047 -2.6566481343372508
Ni 2.626111370037238 8.455719614389162 8.643843954068895 1.2800903004180597 -3.659973834730903 -0.22119431895827069
Ni 2.917218484669322 0.6181167281413907 4.003695535695697 0.9373190544855406 0.46576922162401074 0.02104370804417666
P 8.80149346747667 7.450574078355454 11.214284768014048 -0.11174785669896883 0.25570160870652087 0.18668162989338172
P 6.503930402737777 7.721558410206342 0.17200939863751363 0.3418525907729919 -0.8553337737609851 0.7144146948146988
P 4.077542526958948 1.679588412544228 5.867376302555746 -1.6585733979298918 0.9182322130574185 0.5790306867540286
P 0.36552148108127486 5.19226297615284 0.6897220766896528 -0.2737165572267028 0.46169505155463714 -0.16468301413510347
P 3.0178509705944836 7.314747616084776 5.962472469563442 0.4304993426781231 0.9807737832350656 -0.33380529498848316
P 9.124665173222493 7.23722800802874 4.5385288296286355 0.8902444695952411 -1.5202652742438914 -0.7625935685127705
P 5.669266716764052 0.0809749322244167 11.363500727512323 2.1911085122255427 0.21360905041184503 -0.21652982360306577
P 8.231898925245103 7.3298559536874555 7.692391054084636 -1.1253708252535715 0.985352660855 -0.0028858061882272882
Ni 4.156650042654847 3.656468422107378 6.758552785691356 -0.09347708341423902 -0.7074709165070139 0.28478309945350955
Ni 1.9946812899468849 4.9665943711004 12.322441865629834 0.6698016840910141 -1.1508352880732633 -0.1317566957207279
Ni 0.668654906733169 7.658042104611796 1.1670220410067815 0.7346407920535865 0.9108282072838636 1.3007223748461147
Ni 0.6282301211856921 3.634144855053388 6.196890352851435 0.011128762923309866 -1.8379188991731767 -0.31748136101747904
Ni 6.739432891945863 3.5884205438329864 12.495482939932781 2.1318798084712123 -0.9248949697895749 -1.1079161201122338
Ni 3.9252519696854726 1.0540178045050679 11.33278539359199 -2.070420929834783 0.5313436650907107 -0.5343140605729443
Ni 7.736063157185682 1.4629365228035294 5.111947350609302 -0.037964909279547515 0.04732963832389913 0.5469600314717291
Ni 8.30022538380719 5.310650312413787 6.252110537478412 1.0042111883223994 1.8863335430311385 2.6927335672058983
Ni 8.748990369255681 6.221245698803682 9.403010524875253 1.1319111974752507 0.28699476239284766 -0.6834326446108875
Ni 2.250631572271812 2.6302529303143087 11.871098155318244 -0.05817737967168045 0.6319015666111311 0.4168156745434435
Ni 4.540273670830567 3.8618470962060036 1.8379399482769962 -0.3792192043469082 -0.542501224369427 1.2087429590233247
Ni 3.768374123674613 7.870403857921985 11.130442316028285 -0.14424454377509352 -0.25335959083690557 -0.7531918155828965
Ni 6.756946306032312 0.24076951384744683 7.2700642665393955 -1.3978619947136055 0.8199003726540396 1.0838817048708493
Ni 1.8623277952628088 6.51640151361694 10.329904715297246 0.1437562912847653 -1.1187358364355573 -0.5417288649797767
Ni 6.045591541402154 7.425093268040916 6.063521897319188 -1.0078667827971157 1.2349471282225184 2.1768915972952123
Ni 0.5876233298502542 0.03400350991609834 8.408039669549138 -0.5766537018814197 0.7793221941213611 -1.4597355922899504
Ni 2.339303677845252 2.5533554849007936 2.7519358713786928 -0.2957815074465422 -0.8950858568479423 -0.8637443664221834
Ni 1.7487134679310423 -0.08076135400385023 6.1415884513400645 0.37068982671965833 0.5526357417002676 -0.9995788317567107
Ni 5.615658583401871 2.615209594778759 10.74833045021379 1.4880200410569404 -1.1315769540642835 -0.608119633700185
Ni 9.282750200480033 3.2698082687957775 2.122494854542485 0.4966445710466285 1.1761817372578518 -0.19497549447105775
Ni 7.759315325198656 1.4077776258398436 11.419984738044482 0.02028703238381022 0.13280416314863577 -0.3212703957462661
Ni 1.234565688960445 4.9516903257086975 7.834131775863088 0.45468133924096527 0.34055186968369733 1.4812156165405974
Ni 3.6412300803704407 6.7819070998098185 1.312629457178445 -1.4018109520590245 0.41433378866185416 0.7670017248827952
Ni 5.771570684415387 6.7007380899849736 2.1393610337605224 0.3621051703744409 -0.8677128641516282 0.6805134140815634
P 3.423798165824195 5.328200870538596 3.130595198827682 -0.473303582327843 0.7743473666145889 -0.6376166147180373
P 6.258473311249375 4.211186776976013 3.227770503382544 0.7086379402319215 -0.11709112328875318 0.3633634682615742
P 9.516581207961947 1.4565756062344848 6.737744695402428 -1.5510611765788254 0.38140284226178833 -1.1208760227070114
P 3.489292391461379 6.615000363441926 12.822033824568349 -0.7870607004161992 -0.6142020924488389 -0.5769635198123548
P 2.372538306167311 -0.12656273910384802 1.7106872586606225 0.31095615830445156 -0.10328712752612534 1.4346668222467809
P 6.168733314573103 4.793122425952486 6.859778647629309 -0.7632754250711435 1.3522686223545226 1.6007742275332368
P 3.9643274980395447 6.379655736396867 9.446705843000274 0.3910305951595395 0.7215950146132218 1.1466158506752768
P 6.0190799840231435 4.976827553668411 11.121009587486919 1.1688504937037612 1.30627544345386 -1.033036340084208
