# total energy = -340869.2607463831 ev
CRYSTAL
PRIMVEC
9.29263043268205 0.00000000000000 0.00000000000000
0.00000000000000 9.29263043268205 0.00000000000000
0.00000000000000 0.00000000000000 13.60070395171193
PRIMCOORD
 96 1
Ni 9.429324715051765 5.509628279536356 0.5128323787580311 -0.09859614980835922 -0.5868026173899636 -0.0803199772069907
Ni 6.737732984345145 9.036432313328723 10.425252126901935 -0.21560448357531897 -0.010143259081588984 -1.7043865996092646
Ni 8.965306522345085 4.6095627108019555 6.965436805161156 0.10103715514968406 0.7720426297408124 -1.9227226231831336
Ni 3.4685578281632257 5.859690949009127 5.044990268400279 0.8423227062132977 0.7898570322144138 -0.48298661394356174
Ni 7.5995222095909645 5.154175884590564 1.9544891579640977 -1.5838237157218273 1.6632188671217032 0.5242217093339488
Ni 7.154284422368729 8.018954362953577 8.029569334346393 1.0408887462490912 -1.9572808207739776 -0.8999825228186114
Ni 4.566045323922367 2.788588203960761 2.46749437964247 -0.7905692277900901 -0.04747464854219566 -0.17417989788194518
Ni 5.129122953771138 6.888236421864217 10.396826900609819 0.42873890834359063 -0.5324502678913282 0.5070074023381913
Ni 2.033469079930145 -0.023292906673580385 10.015938718483415 0.31631665128541653 0.2348921281603374 2.42295362602944
Ni 3.7160670315665665 8.985341432896524 12.656243494262181 -0.9542333137423759 -1.1293825175161258 -0.4960311058323457
Ni 7.139360458386534 4.187156915799055 13.198475896212532 -0.3541131533078998 0.6802416484774155 -0.32871836738387905
Ni 0.13309555350422478 1.0120417617514932 1.8841327967548853 -0.8986648324484522 0.11909272709981426 0.3715976832459084
Ni 5.713713022361367 4.250969406873609 5.880671849307384 -0.9418056295019845 0.17916295291883338 0.522976524072938
Ni 2.7577645498331513 7.204529673459469 9.185684033569835 0.6443901859964452 -2.3952530747903777 0.5346704154710986
Ni 2.9341200843624775 9.187437552874593 7.895126349473912 0.3962365648405111 1.7736526329949391 -1.5588529047091024
Ni 8.694909570941654 8.579569445818985 4.380922192869255 -0.49826745136203215 -0.7683417838504574 -0.41465774766017616
Ni 5.006924867615556 1.7894074423035133 11.776781545042924 -0.02298283404841848 0.4600549448480528 0.19115432095275467
Ni 9.424120842181262 3.2920071484012556 8.77589484248887 0.34913112671227614 -2.286554289330378 0.4757803260031096
Ni 2.38739748353529 2.7326279853425923 3.6583040427039726 -0.8140382574463079 -2.501732484001556 -0.27010184329225095
Ni 6.176235101617777 8.923647661490676 12.47865947403021 -0.19737741904433104 0.04167295425875404 1.5283634778709936
Ni 3.7675760803544285 6.929532870143716 2.6576727014840724 0.10664395981350022 0.030387096932289602 0.16611254749277846
Ni 5.1817378255439825 6.860312068335889 13.380930183893488 -0.5343078899253573 -0.10810768884322028 -0.45721876095083835
Ni 1.7174917777591747 8.14328046140799 3.262781826655301 -0.3503783688558159 0.5799629687603108 -0.7316896798450625
Ni 4.761655188072557 4.906341439132817 11.951836111354625 0.22179467154643095 -0.804675328174169 -0.5217714480212434
P 7.622419250221182 1.7111542040133112 10.041848429800448 -0.25958063204595294 -1.1476003260757333 -0.3972711767526126
P 1.7542348372769825 3.1326199564818227 1.2848148386781173 0.6633379307435415 -0.13972325886597228 0.4026568665445581
P 5.004768977426347 2.9176349585191312 13.766631948425108 0.38905213127692995 2.42159351245712 -0.5457266732852601
P 3.4701096973942507 3.747513291912611 6.025302344586887 0.951548053600729 0.5879295319055552 -0.06583001112093179
P 8.700290003784549 4.040203262988077 4.734635936718491 0.23934656438726526 0.08575246107647168 -0.15984316954429892
P 0.699241609820568 0.8387193416952607 3.973839944943963 2.1694138008609283 1.784623530184146 0.33849550137530093
P 5.358325675826457 5.852145333346897 3.7695712080424593 0.06820056823563737 -0.5888219618128375 0.09800042520588928
P 1.8661366892530675 0.7874416793975332 12.120783561147583 -0.24152531720613887 -0.4185653102446985 -0.12213228525708643
Ni 2.637471452853379 2.5865106692429443 12.815426248318843 0.6955358556323247 0.28424548178248465 0.32783467922734505
Ni 1.103657802162739 8.176204249944053 0.5751822098507683 0.22436911714182647 0.536444733762702 -0.3215092512299495
Ni 5.11230329324326 5.153478937331121 1.4768869985393775 1.9591500127722326 -0.42602510895685336 1.544862246856965
Ni 0.944642315448342 7.388756065705432 7.774189273226415 -1.1279036189777543 -0.6636135530024313 -0.9027017215219871
Ni 2.3058174836600154 3.3791534337219438 7.8176295312759585 0.7637415660742847 -0.5319093077861937 0.32270172887615395
Ni 2.3328032815456283 2.3782907060119083 10.424612793949274 0.12598765444743462 -0.1142593102669129 -0.7109010252344854
Ni 1.3115804012297465 6.572259119693247 12.432892341397142 1.7421663894611996 -0.882486422916377 -0.047234507506931554
Ni 5.623500169099132 6.763826689738672 5.79259444244808 0.966738388187922 0.5264362004867643 0.2342048722853257
Ni 8.406782281258005 7.87961137421571 2.1599138980532633 0.9832268727612488 -0.6619009411866987 -0.188321736599966
Ni 4.776114520548457 7.7359008493186705 8.004830494425223 1.0279398993979072 -0.5067150679087531 -1.4328040580064292
Ni 8.428759351505757 3.3124602273083608 11.039037780821715 -1.41458239279208 -0.5743114269014883 -0.1189510593156274
Ni 8.508480825355852 5.321424641596508 9.36182676686928 0.9752469398795656 0.958310312025227 0.04337373899994466
Ni 0.42972095343800865 5.87475430244321 3.0463806318614224 1.3314843386193198 -0.5411210561924487 -0.6149042607221862
Ni 2.831148449937382 4.575133516185497 2.5146888602628774 -0.1269451332646975 1.916948182593202 -0.11646737366182523
Ni 5.428912494262791 1.645882770008991 4.594753046170309 0.039440208273493364 0.732026751469507 -0.8299837250319706
Ni 8.288459221864922 7.8334548803803665 12.168889648783342 -0.09533007746257775 -2.5948526982970086 0.6891245527893421
Ni 6.4055307499743535 8.270189911037404 1.1914991762168443 -0.037038540810536216 0.5780840065700431 0.11133956551695663
Ni 6.9525971781162 1.0214830739594072 8.129915800760921 0.79882298315845 0.6166140443244412 -0.6825091043553536
Ni 1.7127897069154696 4.458984932241876 5.008975751084342 -1.9271284655603134 0.18978983650506023 -0.33170264682318357
Ni 3.46478502033211 4.54686533534251 13.742287116021277 -2.1029356146330365 0.3750424472613993 0.28133319323169614
Ni 7.222241426479434 2.4680946835486037 6.33107262182757 0.9099578888637685 0.46640531254611295 -0.9997585518676848
Ni 6.5598255805847945 4.956187107128144 10.513520961941833 0.09157343863362294 -0.5744104143731978 -0.061364004929778185
Ni -0.21673294168937313 0.5537822119338336 11.545160880628847 0.4344465002513292 1.6887530068370658 -0.005516558942855015
Ni 8.044509095799802 2.0952278997468747 3.86397317896545 -0.11404770847673906 -0.4656882318744302 0.3818029059136844
P 4.143481554207326 8.487460896011067 1.2337769262376381 -0.7025919911481577 -0.6501319735762288 0.5096584668077933
P 2.8290390228988027 7.581094924051306 6.434397376197449 0.37649717743005484 -1.91215796029341 0.4273733954546317
P 6.175575324878838 5.800171653052739 7.750102775940082 -0.7070505411401437 0.18942088320141573 0.04100780987092937
P 8.501929521117093 7.296331566473233 6.151067871447802 -0.6770735351620791 0.7150744398858846 1.1546472056201857
P 1.3331764736423377 5.223554661110532 8.353089464390555 -0.26777550915191944 0.8151510308945124 0.3656602347155509
P 3.508153725129685 6.683389683368883 11.852061141692838 -0.8252811773499787 -0.08912883374787231 0.12147125463431982
P 5.24486266198922 0.8523209644105403 6.670342830672119 -1.0097431738842222 0.41646986116825047 0.7580594280878429
P 7.931752321852134 7.226525328967473 10.112449187181973 -0.9365387246760903 0.0037766934336128503 -0.7088935078861534
Ni 1.0873585289219108 6.778871457912504 5.185730868709082 0.2586133830366772 -0.27000439848243823 0.6881591035522794
Ni 9.048930900848056 9.071158872109208 9.259481455714669 -0.7498977182126568 1.3165174328968423 -0.798565101511373
Ni 4.788157769191624 3.0941484677605975 8.204855287148227 -0.5964915625429534 1.4820530248402284 -1.5960390268410964
Ni 6.988819850346958 3.866607639606143 8.232642109750692 0.07107171913584534 -0.10753741816204707 0.39706394583781296
Ni 0.7794583808563728 7.24946883274832 10.398036801052212 -0.6209890334636854 -0.7735927478367516 -0.6350609381757193
Ni 0.2147322384232669 2.493965365819108 13.50805522254182 0.5508999899560835 0.5648024589697885 -1.0825760986855484
Ni 7.3914137579214385 1.809442352854953 13.033363514872532 -1.3606095381200503 -1.318573801205239 -0.40416790387244583
Ni 2.433396002658494 4.740802526070038 10.149471025603557 0.32712865429925597 0.8824018336223706 0.9524636234364628
Ni 4.061213899702736 8.80476704429004 5.1825072553184075 0.6078748646792306 -0.8110760894941902 0.71888018678522
Ni 7.888402202314811 6.170798912994126 4.308499150720042 -1.5416188002190032 -0.3260845293054578 0.9352747703620022
Ni 6.732659208296404 2.825108240355547 1.6218566748184773 0.7466617277738624 -0.9260874474357793 -0.47575641474370967
Ni 2.37309612577153 0.980521160364441 1.1224651562745476 0.8801786007188067 -0.196209623988475 -0.3343020321192436
Ni 1.3852430802377542 9.093312502329354 5.802141690639429 2.777162681485256 0.24170683708932564 -1.67882803441387
Ni 5.882950402214254 7.95990899113361 3.5819901763210464 -0.15094021062771423 -0.45565141646371854 0.6621230844998339
Ni 9.054943232539514 3.592558684563232 2.179417270161502 1.7231286561034582 -1.6789334496434827 0.5481013441650238
Ni 6.375766455681097 4.017399148659118 3.5733675448272235 0.23879223454569198 -0.4106059461883057 0.9883356547427236
Ni 5.0481376822239215 1.241634774272099 9.291265967797296 -0.8848448958462245 -0.5682521080812859 1.390874507652179
Ni 0.9283123765280984 2.437670612516407 5.988050048938181 -1.3557470678214265 -0.6156570797278107 -0.37692809431988633
Ni 3.9237387296201742 5.476964684643819 7.505847851606831 -0.24072904655708866 -0.27610022696753095 0.02688756841946337
Ni 8.9874136894146 0.44003856066679514 6.808512160225086 -1.9970760983940445 0.6090832831650349 2.1488025523684797
Ni 3.5964244186956065 0.5996376245530987 3.205250224282843 0.186120358073273 -0.18961782970357022 -0.9001293328091208
Ni 5.0635355703425375 0.911732465857468 0.6106744813536298 0.8614257455913358 1.160706010219756 0.5380928108890861
Ni 6.965634738182837 0.16028671851562012 5.597219681840075 -0.6157738078113331 -1.218555317128056 0.4536246158416768
Ni 3.1481944045728305 1.66063946664892 5.675342823308514 0.829836657931145 -0.1367819168494612 0.6551924188182716
P 0.3154197443634162 4.62199624991041 11.896984503510476 2.1209086541716893 1.8845486832165739 1.8420470624089373
P 1.9516195937812197 6.456705264077684 1.5302016053607024 -0.32439917118323486 -0.6650410294775773 0.36837454832292044
P 4.232105367718033 8.679065636576995 9.859557692409709 -0.286357643029481 1.1972580983121768 0.8151633721896864
P 4.414194455035039 3.4386820223084573 10.343783638588173 -0.155982401037312 -0.3272934620118944 -0.4060260401271072
P 1.3973699625520535 1.31125515917534 8.48977661943844 -1.392196311787396 1.2011147530541058 -1.0318250933849262
P 6.840713911400367 0.4204487670983858 3.094704167042126 0.7126673731062888 1.1750219126217956 -0.5231279620491378
P 7.359893156534387 6.323309558620393 0.24477438235728832 -0.7638593225990715 1.2027456037893092 -0.7538613308460952
P 8.580480123571324 -0.06612356818686506 0.11401685459273993 -1.4018487472754955 1.7521880353632597 0.8772316022753408
