# total energy = -340870.9309613965 ev
CRYSTAL
PRIMVEC
9.24187859748525 0.00000000000000 0.00000000000000
0.00000000000000 9.24187859748525 0.00000000000000
0.00000000000000 0.00000000000000 13.52642351082327
PRIMCOORD
 96 1
Ni 6.910891775646881 7.421875228367623 7.4794493577836905 0.8519589437514812 1.3159335353689143 1.4934826068334084
Ni 2.85827267782157 3.1392904721221595 3.9913500654539575 0.5160533145905435 -0.07895369298708338 2.073318820207868
Ni 3.5644815683298487 6.860560506275981 9.956218222438922 -0.04062908637527196 0.5031453482796239 -1.3133742592821704
Ni 4.87286352501511 2.7027226236934676 10.86922523077628 1.55796047480182 -1.3169252098582225 -1.213090437358743
Ni 7.910696656859312 1.0166066160116036 0.05472855507906831 -0.5398483601276122 0.5798688663846078 0.31382036722612405
Ni 0.7005935252365639 6.260734877194151 2.4973431341876395 -1.0194274910515218 0.658206265943931 0.030762992214469598
Ni 3.132294370228334 6.232565632052302 12.15326130738373 0.3969575021669357 -0.0719273822679213 -0.19833181253780038
Ni 6.697302725622844 5.618858701722752 1.2822154265769552 -0.05168123042437551 2.252502856172624 -0.986081054380592
Ni 9.074008849439718 4.027471946896515 4.389297028540369 0.006373250516195476 1.5196754631786924 0.4028561270395578
Ni 4.461248748070339 2.4867214434259837 1.4521560094486188 -0.15424176419712143 0.8539651755482325 2.396008979119796
Ni 4.395270978691186 8.19658492103843 13.402358462974524 1.267039894992005 -0.4321366211712299 1.3033873232727875
Ni 8.34301324125741 8.815023693071598 11.719225733616739 -0.6254164731074197 -0.43073434150706463 0.1957141724092952
Ni 2.234473616358523 1.5919782350391891 2.0044672936737298 -0.7463835344118113 0.04773870083685972 -1.7385452477688448
Ni 5.839785803138728 5.205201469667631 7.356831812887368 0.8511297629819664 -2.1156183523070275 -1.226124644834882
Ni 3.0992361714513024 8.438897728903958 7.705124012096442 -0.059008617323724186 -0.5142424866340498 0.3632752794231421
Ni 2.0376493336203487 1.7886084383324883 7.720692880326743 1.9887899471258519 -0.4543170139230111 -0.322270040655374
Ni 2.0010884629572407 5.580273859705948 0.5832956055054797 0.6101389781230588 -1.2969464527434502 0.5607848531699632
Ni 7.717975768098493 7.43348302754681 3.050871573788467 0.8451059253853896 1.971232654968379 -1.2027337767147672
Ni 5.250948767388153 9.16212091741294 8.895151702357799 -0.5965823224845468 -0.5341492528603059 -0.11383893490004265
Ni 9.020008554372847 2.357760273245748 2.038201997944326 -1.2313162163381504 -0.4010833514098512 -0.8199224841412266
Ni 4.352786064020228 5.394123946435896 5.227772909106587 1.2281241917634138 0.6290332439244005 -0.09848404971052717
Ni 0.4773605751779068 6.482484505781264 12.185562596325749 1.256802790645029 -0.7827489604147229 0.4108152339856344
Ni 0.9565898581536095 0.9101605098125269 13.052700314148664 0.6696774998083241 -0.33989212461251134 0.13995491526080414
Ni 2.1837449462195435 5.581161080025376 4.436612673013047 -1.6665708143130717 -1.4841158209065277 -0.7072302612511175
P 6.948358350386073 8.142039355150244 10.01895394090083 -1.8118970211881185 2.532304443251142 0.21587393518662176
P 7.058789554519915 0.539446589593401 6.622671785565767 0.33567140166294446 -1.0181074866885176 0.42226024259778244
P 1.6732605549284805 0.45019130127108037 5.7699929863860335 0.7978737318713033 0.5635739858793263 -0.16843271098552282
P 5.267085086947755 7.361128362121766 4.570794580260419 0.12422413478910864 0.6276474193204674 -0.2989030837946594
P 5.945226392975786 1.909030112938226 13.12812420736623 0.42086387647088813 -0.4620832881319913 -0.32032422978291286
P 2.1966373664862364 5.114335321952848 10.023309638156524 -1.21052113396967 1.4001207088407952 1.6676802453271664
P 2.7081568481499656 8.566001281540391 1.8269197207508017 -0.17643604090597356 1.5100276556762833 0.8446662667448098
P 0.27143766322642915 6.551715416331654 4.732218772253403 -0.04972384958768856 1.1946345446464006 -0.639705378926266
Ni 6.9662044174362405 8.123583324130468 0.5962000402139979 0.0828057197433219 -0.5105406123024304 0.015759833937418016
Ni 8.42814018253089 0.09421170766929353 8.878676205863583 1.1859807256261445 -2.1884507628877214 -0.8491785527928666
Ni 2.4082948639398523 5.991001416331291 6.714151594001486 -0.10804495392608489 0.05835221468664789 0.8072572299687323
Ni 7.4835370405678905 4.970938337825248 12.04864786565697 0.9143876425003478 0.5818686704234559 1.7621060658079202
Ni 6.75748583729073 5.6751417407364855 3.9712360414622516 -0.89099034662233 -1.5223488962457974 0.9471437538854462
Ni 1.4778410376960682 3.972806236590073 2.5193637576782835 -0.4668048619773767 0.21718159825445174 -1.8748990759419517
Ni 0.9974759278739307 8.762381954118851 3.717926322574975 -0.2476643402243412 -1.4863670788345498 0.055177930723724324
Ni 0.48595274945887035 8.114138124479888 6.858166859789189 0.3291174025945106 -0.1274038180686709 -0.420203874289386
Ni 7.902988930334279 8.390017434430456 5.261291353424322 0.06739169918109683 -0.046015547498165915 -0.6917455353519572
Ni 6.53061620811025 2.4526281542762853 7.32654617760855 1.413073155236405 0.219139493311771 -0.9782888120296829
Ni 8.351626671858527 6.6958702344821 10.388928510853766 0.8822161999741258 -0.8557338374128811 -0.7619862739460748
Ni 0.6600161342523772 1.063897307412798 10.641156005788908 -0.31999127192352633 0.7229116765421163 0.4273911360664446
Ni 1.5130341103667244 4.060585596943511 8.162060036170843 -1.0554856702266597 0.7357301684630233 -0.4962172537012228
Ni 6.014531238552796 6.304753943667453 9.361137373690369 -0.5774944526151602 -0.4126422598920442 1.5274769615009822
Ni 6.244422961946329 1.155844754891884 1.8675118987403123 1.5379004708271515 -1.2348486549714413 0.21032575167488293
Ni 4.088265022534009 1.574575778148736 5.867424564464586 -0.474187527594693 -0.15498609856231374 0.1364319897092102
Ni 5.787661609372315 0.4870368217866718 4.24405074455946 0.7967804988071245 -0.4794937702989549 0.5943727164277376
Ni 3.6458100976107772 3.8153800811615124 6.866513200106644 0.4862606567091432 -0.902824877363413 0.29387632000402936
Ni 8.518747557652507 3.8391224665845476 6.953041210134555 2.3449754095817488 -0.039511427831060986 1.8522342873545845
Ni 4.054513682882424 4.861736303508947 2.7758388198926873 0.3204237314752546 -0.3475002759770725 -0.2125574692188791
Ni 6.386932725754501 7.057107532664332 11.866243685673005 -0.8670045252306939 0.33317383205207135 0.20513135195813706
Ni 5.104760736005685 8.269605001703043 2.4375287734650146 0.685954896812109 -0.17501704907125987 -0.8625590878648307
Ni 5.204221830564928 8.66305024585619 6.603951436825829 -0.6610501631506293 -0.04495059656876129 -1.9752250639572242
Ni 3.0315301708249294 0.7589837125089395 9.950875492577865 1.231841492714001 -0.7943934866321867 0.046863497320758
P 8.7443048401105 2.4884034652815665 9.608561864458771 -0.2915096195440657 0.4846714578451525 -1.4563787600025757
P 4.215109802577275 6.384631498050984 7.865561171484062 -0.4540357352371664 1.1610975892312196 -0.09549694205774521
P 5.7186247782668005 4.758994342143484 11.045190594129563 -2.335636905789642 0.7041878748803679 0.5515522788281016
P 4.979727364114585 2.6921591567652743 8.516844654904899 -2.1218584196794685 -1.0200419847070692 1.5992907010091748
P 6.9579883876032005 3.998969994134881 5.714331925783734 -1.9142546949214387 0.8720994232550981 -2.5835179900104794
P 1.7061801255306017 3.95825952010278 5.959174235747466 -0.8020612875900897 -0.4179739565176027 -0.5267635019191961
P 2.562403185048884 3.2790276724321177 0.4301040787265238 -0.3732971824355184 0.5699323239971862 1.0659081511115642
P 4.763134703634149 2.370578758485822 3.8481998394776986 0.2894216266667854 -0.798310819408722 -0.5697387199291414
Ni 3.2640096201501283 0.4455444848480746 3.7198745105263864 0.670848894408606 0.0625107169397117 0.7861253330861236
Ni 0.23174749256167063 4.490305213531617 10.82554811380109 0.6920209005005308 -0.6559367531834639 -0.4883861876925783
Ni 2.147470573784584 2.8984840904239926 10.07468246721492 -0.7716153123954066 -0.2841236114926397 0.8200173578478781
Ni 0.8448740329322616 1.9138266477901353 4.050433393600886 0.6462802039303063 -0.9529624174497524 1.3542316596181645
Ni 0.22982056093041228 8.694102957036181 1.1843975379843188 -0.822442422349603 -0.592467786095541 1.1839145871257353
Ni 9.116891164878751 1.4440065211395365 7.135201404530679 -0.6255877085779613 0.055846160435342525 -0.7906026521311869
Ni 6.757901721815463 3.398783931798285 1.0122056335521061 -0.5726602644513106 -1.5121261900765248 -1.644137682120536
Ni 3.939544716489839 4.3967589211018945 9.205610424258085 1.9266057602876239 1.0383765213501988 -0.07336899981045429
Ni 2.8854530419823896 7.790727834291615 5.365012029704655 0.1760981979505806 1.2632333767617212 0.7981827784712899
Ni 8.035240209199062 6.061156514714419 6.154508727699266 0.4326989214326032 -0.8123464715661816 -0.6177553570177361
Ni 3.298528035702886 7.121541908362813 3.277871513453363 0.11166892383191736 -0.5585695906861993 -1.171323380724286
Ni 7.824848849076296 2.6939982905524222 11.655854173925906 -0.014254967257117383 -0.9715404375622558 0.9443559067276639
Ni 9.023723789460453 4.284885983948981 0.4765047772447916 0.7384496242767152 0.7041811900121485 -1.144812993138583
Ni 7.1943956352175364 4.0822300759862316 9.667510261182121 0.6294266227080773 -0.06167742240513894 -1.5886717878427477
Ni 4.559767171040191 4.507735396057051 0.19392140875554434 0.6950756281664545 0.38687466400963694 -0.054537726036564135
Ni 3.824760587663802 1.666033406076471 13.008184958809181 -0.7655269401094816 -1.4971276597851635 -1.5022603530260386
Ni 2.0893668847403575 7.878156003268613 13.526058231822985 -1.0081655449844573 0.7308792681286251 -1.6197263431557074
Ni 1.1770271400182346 6.648034272259591 8.63950193987803 -0.08497881613524075 0.04154517043163813 1.170961883619809
Ni 6.738484535449642 3.1011677240217246 3.4073871963332416 -0.977499226248852 0.05160101200574339 0.5916810285281874
Ni 7.878599613428328 2.003740882037198 5.071434522757159 -0.3008031290308497 -1.2901427995580554 0.8681802907063499
Ni 6.882491483546849 1.1973685142167942 9.858286658742857 -1.2969186848293084 2.242530061230628 1.2188859609945975
Ni 1.2920700414374389 8.119932782191155 10.774715934624846 1.1936739805053442 -0.4931170175093442 -0.07737863519047965
Ni 5.23069057009454 0.12863400768744643 11.388815644783309 1.1402251166575845 0.6855211517088001 0.1902102118719305
Ni 3.31416529383281 3.8327732961736385 11.9548150749991 -1.7532578713886706 0.8952347237209807 -0.4175679793284357
P 1.358075536451574 9.133286257031521 8.745305735533353 -0.29024772211250655 -0.17459847347660254 0.008928927058513655
P 3.378766023341184 8.422687474317737 11.520616844173547 -1.1401706092705655 -0.29883006446487886 0.3763046018032745
P 4.619525156305018 6.31509560551579 1.242852418404986 -0.2760225796520601 1.6748209701370058 0.08301834997476024
P 8.706736604709707 6.624864883292854 0.381880881802097 -1.0197527356014244 0.7973625965628396 2.006627232417589
P 8.037014649837918 4.433791127559699 2.3971121911637248 2.1689386609967225 0.5775929258662374 1.3186676464706257
P 0.8663835805514017 2.7975350534540406 12.179083115430425 -0.0754132839339927 0.7848127849222871 -0.3491398684630245
P 8.396727038096133 0.6304328817264395 3.2098743936596783 -1.1959874591298691 -0.6821581487738381 -0.08948775974918781
P 8.429480254888361 5.7325338051495045 8.436552140184471 -0.5829279649259057 -0.6818187631565483 -1.301949048164364
