# total energy = -340887.7032769003 ev
CRYSTAL
PRIMVEC
9.06032736703400 0.00000000000000 0.00000000000000

0.00000000000000 9.06032736703400 0.00000000000000

0.00000000000000 0.00000000000000 13.26070493357851

PRIMCOORD
 96 1
Ni 6.063651127713021 2.14592036538734 10.947547090554533 1.3916517521378355 -0.21905361846618407 0.7885318856450871
Ni 4.555623095489126 0.4241492492788894 5.857199795120701 -0.22119740428206422 -1.0867849945605734 -0.9287737360186907
Ni 2.687854773679909 1.5382985852400026 4.343079598919545 -0.24136359481729397 -0.290834447853912 2.3475711953333827
Ni 3.2080353364796093 4.385017135209776 4.713079802972224 1.2929787263449537 -0.855873962535171 0.07010755545036314
Ni 3.821192976517052 2.795908235299215 2.3506058402176597 -0.3372066073605483 -0.4582718848057011 1.114812847232067
Ni 5.466294698229333 4.039121025513293 3.4905752964976315 -1.3086956228595783 1.5772285790028127 0.14681950359112136
Ni 5.256149470256987 4.542322535229429 11.40843596643633 -0.11428450707789352 0.01598917633940472 -0.04741371339727318
Ni 5.681957665437478 8.15444846270527 11.860175723959653 0.7863927278148972 -0.9632177766291732 0.7746556418836271
Ni 2.159692062658961 6.530756294054068 0.38780012277624865 -0.9907681754436162 -0.17325610051609516 -0.582928479146538
Ni 2.996820989903283 1.7399905279791754 0.36471984538827107 -0.38509777461487227 -0.7940026789516712 -0.49339058288570514
Ni 8.128753374901116 0.14517634006076036 6.445922638860886 1.3160273806343012 -0.6721390739749392 1.1584246703847467
Ni 8.65617313909557 2.250422178762913 1.2542654833072684 0.3649156432400425 2.069815177929984 -0.015988662118772465
Ni 6.888231501851295 0.9933742689871479 4.687911120175623 -1.1604548134408983 0.8842571416635545 -1.0820899030777493
Ni 0.42631013730473255 7.344328370702198 2.1801529994671847 0.3470295069882411 0.17983529639550963 -0.2243909715186974
Ni 7.777529792839032 4.201491148411129 3.649557763073191 2.0172942252131323 -1.1551087186376365 0.2526764487269519
Ni 7.667917954949516 4.102434591654138 12.429788525670032 0.7038634016614136 -0.8057919582771155 -0.31061137337052314
Ni 8.505563320841524 7.706750517124625 8.598453418938606 -1.0146658079968203 -0.869046238251071 0.21935855130111254
Ni 7.070008845509532 0.7147719271495511 0.04185599334585851 -0.8614303735770261 -0.4113726491510012 0.26163597191308485
Ni 1.7424368163103188 6.710748753263287 9.129876035668978 1.3296120612972715 0.8900318393638026 -1.3132673013906608
Ni 0.027863224091719953 4.9694444778470155 1.301028549838857 0.017987437716356115 -0.4590807538602416 -0.29190119855552954
Ni 6.760598673255691 2.340780821453617 6.962546117220561 1.1453536961334017 -0.8801678020855292 -0.876086175816988
Ni 3.606807515437392 4.1701061751552775 0.5454434729986865 -0.292132083619413 1.3693613161707512 -1.2094479555101494
Ni 6.26064982098726 5.936435074166427 4.696543799886413 -0.9790483159035268 0.7283670432297327 0.40472994702350296
Ni 5.605252935765413 3.3220051917294207 8.852275766014436 -1.5761669705075176 -0.778796146414562 0.10868464439261281
P 0.3105481493441799 5.671112453836077 12.334285429222206 0.11347306692019166 0.3344969217388691 0.00017972011097388405
P 4.214719226053606 6.064457496829583 12.708290297876239 -0.47521776863142035 -0.37330643840689903 -1.4736732854169652
P 2.529135962624484 8.570154393110855 1.2083078798595266 -0.7315937776971464 -0.09926540796124195 0.28060994191242644
P 6.403114405131313 8.133972123340888 5.583870563685792 -0.8950454905283101 -0.8537579446334329 0.10444206706617497
P 5.069126197177521 1.0040473343726537 12.540091666521276 -2.213209714999956 0.94326833009044 0.04107311589122604
P 3.8974809311401075 6.557819491258233 8.423185920339353 0.9499454850002995 -1.0587486572486478 -1.7398079165313518
P 4.617024932600819 1.2365172084484675 3.6776973271430586 2.219538999652094 -0.28897219783419265 -0.2992252430207685
P 0.14267115960312676 5.870403409879869 3.7995098015759714 -0.020091371433236367 0.3784118779542644 -0.8242887315297224
Ni 0.7659727419203763 8.735967440326595 4.250718623928165 1.4814580715687067 0.03635539870058255 1.2227009638653135
Ni 2.033092111358729 6.305389716465722 4.73550411267437 -0.06852761255775294 1.331538588896023 0.9154477083337459
Ni 6.104078307466948 6.039170123747286 8.907546479742113 -0.5623889644322895 -0.04251910430913322 0.047565665594105175
Ni 8.974027536255429 2.428829080720464 9.879688778080368 -0.5066785582438629 1.1578762540804446 1.1195426486075686
Ni 2.6322696666000462 5.247170686048977 7.008494660341151 -0.5890880709900306 0.8530915146940276 -0.2661706265586448
Ni 0.9759240788916603 0.1691454355423866 9.240987357702213 0.10665064468171956 0.45388943946728927 -0.2924637559272189
Ni 1.3360992641802965 1.2492016664618022 11.377074550031075 1.3221381215177295 0.061230564675707456 0.5986628591626593
Ni 4.394331151522424 6.69059858567639 1.4309889764799073 0.027085286252566256 1.059207084942305 1.511706586040603
Ni 5.9262693871014545 8.21089430086461 7.69138148417604 -0.12532610960403578 0.3444445198698842 0.4666822203565833
Ni 4.8352066707573265 2.7146642817238074 5.376181590404457 0.9455895220244488 0.1817109161516677 -0.20583634844496163
Ni 0.989297121768576 7.236238667774282 6.605634461772213 -0.9749818591436369 1.184738111468295 0.5305872465406605
Ni 5.105059454663867 4.838269061334831 7.1222452556738745 0.4551379671624097 0.32409295279672573 -1.4524030631842793
Ni 1.0824554055493663 7.6143442404974815 11.172023944016516 -0.09772094629225751 -0.4886502399872423 1.2207950050918523
Ni 4.838314362970593 0.21753754889597338 9.731912124126874 1.1820417955830547 0.026480305678715683 0.5843317872519678
Ni 7.808353025811435 7.855059012281964 4.036359437797247 0.4154509329854329 -1.7914613790415856 0.18808930887418576
Ni 7.518585642823958 6.529614692832869 6.602425293894839 0.01335173871655765 -0.16834195104392943 0.7829304802979097
Ni 2.1746506627875433 5.548190995359713 2.606603571842779 0.589984614662371 -0.9119872605889714 -1.0696398502398545
Ni 2.3755815380459158 5.100130636692971 11.547355244565654 0.5561321848893003 0.5061759075758315 0.33625015698454996
Ni 1.307042795002608 3.4044541688160956 3.6992726841910253 -1.4676849290440142 -0.2217702460663987 -0.14305026635667623
Ni 1.5464528796771464 1.0650686377439456 2.4307933596471005 0.42454749597006236 0.614667976341664 -1.2459190538529898
Ni 1.4410812748949453 3.5245216242394606 8.107395465704805 -2.27868028589894 -0.4271612794438256 -0.15510694041089418
Ni 3.570783654679522 2.964674949166632 7.337002190166782 1.7563501371607493 -0.044003402164143564 0.26492544129763407
Ni 4.217781616631111 6.9903413888586385 6.110227551505271 0.5868239575462023 -0.3461759007386941 -0.43040395475083937
Ni 0.5774074011595745 0.1983631785433876 0.38471779947900836 0.7067926594930667 -0.0908905536339854 -1.1733553235526502
P 0.2132628865454796 5.656217275997561 7.819121224632041 1.3591982595948204 0.9606145346783714 0.760684781525832
P 8.931742989435262 1.761354779404492 7.865905129916079 -0.5087333838903626 -0.44197443319725815 -1.1369595585324355
P 1.9835502424895048 3.2888172133702462 10.253070296226316 -0.729065611958654 -0.9935817336330114 1.516153308958047
P 4.274562686895089 6.027681628918065 3.648496798763647 -0.3514646599414592 0.121545559515681 -0.08846908867668636
P 7.101565964981278 3.9945713969050316 10.097138441802963 0.9170286796676207 1.3213125402926404 1.140719796905816
P 6.662719959028511 8.007662102509531 9.942982411501477 0.23993868944530933 -0.45782631262785023 -1.211570915390423
P 2.573540625998307 8.322698737925002 5.603363857554141 -0.1458838791507294 1.013799603341783 -0.24055344021117278
P 6.832546731172756 4.132288369621236 1.6598691489379473 0.48171314654777686 -0.351356159388053 -0.9834176486158162
Ni 5.6381600439828645 2.8323669917604 0.3852822578606017 -0.3786183375381157 0.11905467477302721 -0.7779893342425505
Ni 1.6691659506290064 0.8814040279398669 6.98713131494855 -0.26304185112167605 0.8770071449693605 -1.335141989976565
Ni 7.316576588634453 0.9332227570224846 9.036639833074679 -1.433935600507711 -0.39320009200703254 -0.8696463337289151
Ni 3.073715986445548 1.7216614861499069 9.170771634336687 -0.4714750137595364 -0.48873637194314534 0.5662461333948505
Ni 6.44422110942167 2.194764589065831 2.601153785060621 0.22487022514796112 -1.4919422589294822 -0.5704866538387594
Ni 4.001402883577927 6.720986922945478 10.569617288178089 0.02958182742217486 0.844992539735977 0.28112724786847715
Ni 8.218477794691152 7.5476692929831035 -0.42820555774501085 -0.22550220230500517 -1.5513699660684959 1.2346108279290222
Ni 7.732545268527455 4.275486840264631 7.927116700157573 -0.05541344377329812 -0.4605941051809745 0.5012730709575755
Ni 3.284287049794055 8.443971216859634 12.466905967915196 0.5398092793595607 0.06399758589788333 -0.2942077352015191
Ni 0.5879934874044174 4.975913551433816 9.975219055509651 -2.20290884729458 -0.5998589363532895 0.6164641490101384
Ni -0.26545308904134485 2.405027601291157 5.529966147292696 0.5996236804140318 -0.2106311987304437 0.8831099154329888
Ni 3.721502196859394 2.599543764925643 11.404073418912459 -0.15373808508782555 0.2545070741777875 0.4734413934572878
Ni 1.1867669520547386 3.351650582172014 12.73432061778503 -0.6812808883752074 0.07050170556498826 -0.3632475115090002
Ni 3.346114722281909 8.624878769111241 7.926533215088958 -0.09491458719171394 -0.8276746172828197 0.07292342763260345
Ni 5.505072898441527 8.01621505134138 3.3802993366278455 0.44716137671483636 -0.0652409713866812 0.6237506553692225
Ni 3.1355799002420115 8.094605001863787 3.2557279925770324 -0.8317446735871353 0.0005003366751862351 0.5940747255713446
Ni 3.3807251720040075 4.5278531927670755 9.32122742702914 1.465235181951941 0.7084821313803477 -0.22926861132597293
Ni 7.186352506473267 6.1749481864528795 11.000828156439542 0.9785477221180244 -0.5162592599537625 0.8277098413961292
Ni 7.981668023909348 9.279587069469507 2.1559519596104577 -0.5572470152200337 -0.8574909293133038 0.582460538371184
Ni 4.6203410123385895 0.346396239755294 1.6689521269082102 0.4510635399827199 0.1963014123713329 -1.5488677684719325
Ni 6.287604294265596 5.741909850204789 13.497540832316513 -0.17070582329041567 0.3137815435683886 -1.4479817941881319
Ni 8.155562882945013 0.030235217740213524 11.105933387603466 0.2659780509318645 0.4943714587417357 -0.10057949878697517
Ni -0.023332154482813783 4.700968863667636 5.796399563731929 1.5230502931881964 1.293220667152431 -0.18698347740451668
Ni 7.106512903606479 6.1316579433188 2.3943001739427365 0.3641684806613728 1.034078408195477 0.7209630374561776
P 8.866481452956656 1.5329258112386404 3.59679404186858 -1.0215360527540922 0.5335542995887843 -0.008791887260017115
P 1.7887713293675993 3.4110410266558775 1.5451771856140912 0.026617602587528353 -0.02722026916853377 0.2581788666024199
P 5.067576881234464 1.3654184828454043 7.693250629667577 -0.7224748461150139 -0.3692507802802867 2.0700337216986933
P 8.449144663663644 1.9404593265527768 12.26343367089058 0.8261723217056804 0.18872000047964918 -0.3105344973860007
P 6.531046224522945 7.832335711783791 1.1509242978399161 -0.27802958277975987 -0.0865980969062186 0.19487342167555471
P 2.0448071143667588 2.99707467906355 6.02886037748059 -1.6283493089380279 0.30573347645293153 -2.177363137614992
P 6.9401924780702045 4.071167402651268 5.6606106286337505 -1.2774142962477937 0.019767412434914342 0.4750251930046399
P 2.8103322761258074 8.806148734448945 10.333351137025426 -0.6331318394738064 0.02821091521657722 -0.22866054542832878
