# total energy = -381175.52280895255 ev
CRYSTAL
PRIMVEC
9.15291750764306 0.00000000000000 0.00000000000000

0.00000000000000 9.15291750764306 0.00000000000000

0.00000000000000 0.00000000000000 13.39621996352399

PRIMCOORD
 96 1
Ni 6.2228396415376235 7.011171254681208 7.838744170115896 -0.8652716016999874 -0.35546503935010393 -0.07227782362880456
Ni 5.131683759903108 0.5292033717880822 0.7392152283898875 0.48791259049026936 -0.1673021969255054 0.8111699347595772
Ni 5.161604646519305 7.431830180344642 2.8417538257390285 0.14921294352396236 -0.06733127825680663 1.286051145987185
Ni 6.553177579397869 7.787649839936148 10.053996367414609 -0.8885128316161149 0.42644651276498813 -0.22311287613722222
Ni 7.289035517726325 1.4332644711278075 4.731558488884756 -0.0628920115385304 0.6190460508047017 -0.08462271834740265
Ni 7.296385310309013 3.1607677743299076 12.851100432036741 0.3851463684646205 -0.19348451174782808 -0.21991288114268578
Ni 1.2161023555402044 1.205878546928919 12.774019139091408 0.39661605966711694 1.2789934678094554 2.396595190640569
Ni 7.763623432053763 7.663334917323368 12.119278930232527 0.24142118752810682 -0.7066679609897443 1.499072185106044
Ni 4.72671293447221 4.811523866067705 4.646425374600704 1.9903711755700433 1.6192884842873403 0.09211645562128652
Ni 8.334518342091089 2.833377075836568 10.55619405674289 -0.7890890437001378 0.6540410788226477 0.6752873897959338
Ni 1.7409580916162357 8.323351782999085 1.3477533413597393 0.11329926034648874 0.664788547147139 -0.7376780362180134
Ni 0.7040039555809224 4.631019184220655 10.037466198791527 0.16865022631296758 2.070535858146092 -1.454183809233786
Ni 8.89510706726153 3.2671338261398857 8.17529785410678 -0.749212262109858 0.03141270998332654 0.5579728376424647
Ni 0.45789024731797795 5.047019274984229 2.127681661140726 -0.3562677377570574 1.1862136675725572 -0.22375745169975658
Ni 3.920377533022092 7.253311681549202 8.949130330973606 1.3276302549805523 -0.5643170346929378 0.5161289050234853
Ni 7.0923667839477345 4.636126512067654 1.340184794053856 1.0378743849027998 0.6515959597162648 -1.0810195528317061
Ni 8.781977009575332 1.1407829991729115 6.947078866660023 0.7497251971905347 -0.6136778445142529 0.049082873569579986
Ni 2.5485565956521703 1.575509958708813 1.615142090568137 1.3762518726429978 -0.34333046087009905 -0.6465920787437702
Ni 4.875813957102323 2.9622226925071695 1.0616166716692508 0.0653489577194552 0.5353054779519362 0.2649166995468857
Ni 1.6258967683821568 7.382889531602886 9.51887105814085 0.3454531636400567 -0.6567602775260237 2.032339292471713
Ni 0.5599498515437037 4.290869319027108 12.35369887136765 -0.5863627016390676 0.9934896881398373 0.5663402357705536
Ni 3.525145411586187 5.258680487281428 6.648503382374426 -0.8060745225145408 1.4457835009852327 0.20050876558446112
Ni 4.440565281280975 7.247252450304197 0.6091412902191657 0.2688219481385628 -0.8952347237209807 -0.8781818820037521
Ni 2.893511742422194 0.2861705354844561 8.571959661223152 -1.5949815321108596 1.1869711145638717 0.4263696367804657
P 3.7021628319463082 3.2499904120584735 3.6464645843704324 0.010217306852634018 -0.3737011027421564 -0.9928476836804642
Ni 1.766192684580706 9.510155650298712 10.822953085241837 1.6999987549542144 -0.9246797684549753 -1.594228713105235
P 6.253428691115882 5.095868394553101 9.042220076256575 0.3729140880644868 0.3170823258068474 0.7680144824180256
Ni -0.3768869293145097 7.933684635274605 7.808107525367737 0.44409147954026096 -0.10746182772910526 -0.9225856049301078
P 3.6330491535006377 8.696131798326233 2.20876827069152 0.1676251274825629 1.6728337645036482 0.3775736983236852
P 6.632981865236541 2.1848013567715108 7.032412429832693 0.3322076114840601 -0.05976992096978093 -0.7760283538614376
P 2.6178533324436115 3.3346274382254872 13.0917773074303 -1.1252304430209652 -0.7298485128712656 0.25890520324548316
Ni 2.1502216352554537 6.179875847785276 13.480214303071204 0.6185161464431606 -0.004841901473333597 -1.2871320377561895
Ni 7.04876228598519 1.8371094877322172 1.6409963360330406 1.4504449110166437 -0.167685291296537 -1.189918370117654
Ni 2.7653983591346747 6.610035501594202 2.2500561652883384 0.8633885257446614 -0.8851200038844821 2.2995892681374657
Ni 2.9620121754095337 4.738099163579138 11.364267597186098 -1.241610656285623 0.46578027736760425 -2.285200603515961
Ni 5.013904020234336 5.235001890256007 2.1781581694034973 -0.47898417765238793 -0.4077648771950848 -0.30012718600974764
Ni 3.2574225808967583 -0.18094219129344213 12.854128217075786 -0.8814842069041077 0.4955775632346949 0.7275391480117986
Ni 6.75488041768515 9.061378962724921 6.658095639692802 -0.26384634930084233 0.11051526984344838 -0.29391540077208095
Ni 1.5156132679726892 3.1892882646009597 3.0223610202597104 -0.13802581655889132 -1.2913327061010988 2.7948654980816574
Ni 1.6816563405038663 2.8305671302289905 11.015536872034557 0.24474253859185593 -1.9568905273140942 -0.5737483553091667
Ni 8.25314890739608 5.743730186069653 8.372650310806822 -0.19258359720011348 -0.797255124450698 0.7541019861019915
Ni 8.958600854492047 8.871629834416458 0.57444898782046 -3.082977404798084 0.7089760402976306 -1.9210282661998463
Ni 4.179771208978962 2.0849887937401186 7.5654078552534125 -0.16962236041824982 0.4599608424723498 -0.9031894597916831
Ni 6.449072298158158 3.431044268942836 3.212989743919602 -0.7224020838955494 0.7969098252961372 1.024896741696209
Ni 4.197994667300419 4.900298010849133 13.066190327150222 2.173033399891387 0.9722323214229579 2.241365865719198
Ni 5.2254553975240725 -0.027935618856314737 4.63359206927046 0.05355582173926905 -0.6916298357096993 1.1993005826635024
Ni 6.242362814114053 1.0762183206196387 10.688053729076604 -0.41647011827856667 0.6387458432264741 2.2080597953679004
Ni 3.3039560123916316 7.426704546663067 4.83694609383659 2.0535948594163793 -0.714733254496382 0.36513624389128085
Ni 5.150538769517475 6.13049585901367 10.907282573387956 0.27459356051501743 -0.86298949053403 0.5048818713547564
Ni 2.704348400820196 4.367351095890044 1.6453906516232628 1.5677604916113774 -0.3238013896982359 -1.081189245640351
Ni 7.471425700534812 5.340297050743227 10.927041891230429 0.7541053285361012 -0.433980359248188 -0.08217657079975525
Ni 2.396435110316843 3.329364510784584 5.962965437423107 -0.1343031162916655 -1.0643922286876701 -0.6345960827241587
Ni 0.35996684641493776 3.0929355043046307 0.9463274407946876 -0.4067991708477059 -0.9601373379316368 -0.4927069265551192
Ni 4.238047833355016 8.536550685400755 6.936884347384061 -0.144197492587242 -0.4374384930001176 -2.6643275052593793
Ni 7.022859530058657 7.299579678442708 1.0276739931964756 -1.4177993570674807 -0.4778230674647513 0.03529224754339083
Ni 2.859609336785488 1.3362893124558586 4.481303085548753 2.300414335141922 -0.5924194493561088 -1.7957983158540427
P 5.506633016627637 7.159054939311946 5.678778339115075 0.06596730802974446 -0.3632799074088324 -0.18142603792139722
Ni 5.343912453072195 0.23053361245441292 8.641137410089843 0.47998999320908303 0.5426768307153428 0.7480622076658149
P 2.162285180241733 0.899171610924194 6.371630380271656 0.056823950967579556 -0.13700637415544145 1.7558001781945505
Ni 8.715407842135871 0.5299923532583533 11.235757892579985 -1.7042421036116002 -0.02256168735059985 0.6181199394460064
P 8.524139329557512 3.129574632210606 3.217517692102236 0.1143500702085063 -0.40396041584733006 0.12024149599227679
P 0.431658901660787 1.5177733564527816 9.355384395408358 0.8712103357819254 0.15142306380140372 -0.20368639198149435
P 8.971707832049217 7.877925063152896 2.5618658526814175 -0.8756398323081886 -0.4974256721870272 0.33928534426644796
Ni 0.9400595230355039 5.101762873286912 6.877632937316778 -0.05594309102452301 -0.04363830551524097 0.530980111103705
Ni 5.561651202448975 4.372266212473983 7.076311651731928 1.0704474337428147 -0.7105459558879117 0.4259487471929633
Ni 3.7044327554338636 1.9965441539810773 9.98274273690688 0.9798772395627253 0.5263384985666354 0.28564390479190804
Ni 3.2075757933434375 7.304302583763589 11.358225756483941 -0.260484631917461 -0.6113206571359859 0.0999511211743569
Ni 4.191148285168601 4.508278563381501 9.222908731741125 -0.674645899557193 -0.2770574486744777 -0.08122783373324075
Ni 9.229161089540918 5.19165367397754 4.342130232301506 -0.7310782715133086 -1.4289885409150809 0.7986854291393212
Ni 8.539873194376492 8.372475490086613 5.025217026002957 0.147258648011069 1.0642965836500702 -0.6189396071338245
Ni 6.063523963213514 2.7183432113543544 9.078738385654344 0.4841001587227147 1.0895404458185236 -0.5717572930210669
Ni 8.747022018450446 7.462062266148649 10.16522536417998 -0.2414458701184551 -0.5351193300830591 -0.671946755458475
Ni 4.081304124788983 1.9004842870379812 12.399406709723095 0.023596556373017427 0.49156869918561796 -0.2797823038048085
Ni 8.826963598048444 3.24429729750501 5.877135786133399 -0.5704709701094756 1.548290555812224 0.13072285513957485
Ni 6.992956949277038 -0.2771896930409529 2.923684334263825 1.1520784164517448 0.14276873056051542 0.0553782196599885
Ni 5.185493760642362 1.4565769514616869 2.944368096752439 -1.9985773655299195 0.3060407232807052 0.3080528686147275
Ni 1.5486644523015618 8.396300533788649 3.83536432195452 -0.5049582331186465 1.5492269515835642 -1.3668650321114588
Ni 0.6867699276183539 1.6915689499273416 4.819799018588262 -0.4887628543057066 -1.8715831241948413 -0.8193046480515696
Ni 2.1738727735290087 3.2544844944471407 8.33861061141079 -0.16259065038244902 0.23251462906709633 0.8930716546313909
Ni 2.0327714006090694 7.675700508580168 7.481279731287641 -0.2749298608085136 -0.46008271276219476 -4.317762553521441
Ni 7.722838032616085 6.518021224092635 6.122595060810213 0.10807195050927838 -0.2513255911260123 -0.9012927569896027
Ni 0.3101612469894155 1.0767674956569504 2.368599258258973 -0.575396432435551 0.27866387392964914 1.1696809600248566
Ni 7.257833222689735 6.191088171463721 3.303052619455254 0.2289827046544379 0.2786533324066878 0.22443442316212314
Ni 5.06224057643505 2.5562541990918217 5.345841888036617 0.5295696039094235 -0.6871972538596424 -0.05111738750110552
Ni 7.048432780962803 4.501404722497817 5.260252958471596 -0.33581409788839583 -0.07951702168972112 -0.5895691243915072
Ni 5.641556170377821 8.458522065516059 12.215945635591853 -1.1542103751930832 -0.1571303985988262 -0.04625388876121712
Ni 2.5479525031111274 5.1593530288663265 4.2073105065166825 -1.3285309124179507 -0.19453994959553592 -0.2554326713158504
Ni 9.0765544995893 6.382576354057006 0.3883326523838133 -0.6385267852371326 0.3575311778505133 -0.7431915098370748
P 1.0361468487304655 7.043316300198516 11.758639344396883 -0.6377073746596308 -0.4199228527138575 0.3276860694646227
Ni 7.698729248478103 0.4778591669663584 8.986746990445997 0.4410182399315759 0.19496006785209005 -0.5216994571327274
P 4.227595201811518 -0.12134388566092429 10.471262306639185 -0.03994363027247315 0.30822796074001113 0.7822601937037624
Ni 1.1703286161802784 6.799720559481645 5.317682937998462 -0.37850726588154815 0.370601123660594 1.2936235590178045
P 2.415949129975984 5.6430206371439855 8.502245551403355 -0.6466728113830348 -1.1918775507265538 0.2246074584048777
P 7.130799883642262 0.9365722615485749 12.951934460637533 0.23598484700388392 -0.3987552174973068 -0.1991280831868506
P 6.297802034130664 5.575023614607514 12.815721660841396 0.47864864868984014 0.12389734757730919 0.4950857111999409
Ni 5.5037223889298845 3.631438240057857 11.385527078172162 -0.15883658265665548 0.012357493124088395 -0.7283292480132617
