# total energy = -381179.48496658274 ev
CRYSTAL
PRIMVEC
9.12420766571547 0.00000000000000 0.00000000000000
0.00000000000000 9.12420766571547 0.00000000000000
0.00000000000000 0.00000000000000 13.35420020782215
PRIMCOORD
 96 1
Ni 8.102542913260711 7.99693933175015 0.010272945604176714 1.3738080390881955 -1.7646802542929996 -0.8602409812546153
Ni 2.3433702988904037 3.3494237034625085 3.9420400900836268 0.26198975570807786 1.7145542841708856 0.8962328259681919
Ni 0.9615181461175472 5.8382065026582355 9.976001909790279 -0.5563676979388741 -0.005862372318047968 0.25756103051276286
Ni 5.671917814820843 1.5731411700848426 10.990961453632512 0.42713274019873537 0.5050569634800398 -0.1602018384352983
Ni 6.924452569913624 7.288079624859228 6.6044802873662665 0.1303220201567304 -0.2979777437669126 -0.3459380736962752
Ni 4.442777528623266 1.3718611451908567 0.5047101186320606 -0.8449709424694222 -0.00937655611889353 0.9388480895355573
Ni 4.646831312699833 3.821190869697482 3.869646800259789 0.841449302469409 0.8470712766418766 0.3389449302078937
Ni 3.353137256052348 0.8187662648176214 11.758159520594473 2.0910949132443664 0.5673218829575326 -0.34925094011959207
Ni 1.7128419162839272 8.464673598120974 12.374683156591258 -0.5137339224287475 -1.5605385199416415 0.8074716599723836
Ni 3.791436827939582 2.287539271133092 5.728083701005789 0.10457936397498763 -1.411221189629331 0.3310547288265396
Ni 5.471650576996814 0.7613339385848386 6.921161468146659 -0.36761504444907656 -0.5179950116979466 -0.260214666085526
Ni 1.1502432610272117 2.044844466864954 2.326488689549567 -0.29237248176499325 0.42104591057470714 0.29511739149998206
Ni 6.371899667485934 8.470157247031276 10.144518729181573 0.28408993004122685 -0.607705943201534 -0.05502237898246652
Ni 7.813451512139177 6.582550253828973 9.040433010762417 -0.32915571203161376 0.46325056896721506 -0.2934526022030495
Ni 0.2153960868392931 5.282651735852027 7.48830124164407 -0.04747156321840212 0.6067569490247033 2.0202036855504435
Ni 7.996318885617203 1.472638020755411 3.217560651795787 -0.5125756404545881 -0.4511728118670746 0.6051430675703642
Ni 1.4562965645185513 6.957454829661654 1.256660721876873 1.9986413859986354 0.7589971094107638 -0.0015778860100811535
Ni 2.9364529325320152 8.273758673330324 2.826857510092573 0.8945924621512917 -0.3115799079313795 -0.15587287204264125
Ni 3.526488080755921 3.5308585763100564 1.3175410862514254 0.6281017332490667 -0.38735031809447484 -0.00840853577866939
Ni 5.537198886101002 5.632893577900101 7.719876373820717 -0.8433861144808056 1.0574924162440433 0.7611591500590891
Ni 0.35554209438084516 2.638675285549236 4.848977224917592 -1.508423287303641 -0.4186889803067563 0.6737161886540719
Ni 9.434157177680609 4.325394594794565 3.153527873613398 -1.492147947182385 -0.469014982254818 -0.6250241227650075
Ni 2.9578491999108185 0.10531616896368215 7.063062973276136 0.7212137200144031 0.4835746252365478 0.3955053431014415
Ni 4.972428669378975 4.087645111174321 9.484286487960302 -0.9445510534576056 -2.5521854984457852 -0.9098367899048717
P 8.442948859260023 4.356672379261318 10.61877954141852 0.17932544663862665 1.7680908226364451 0.23133346427480161
Ni 2.0927921790507154 2.357540193661952 -0.2824070064598234 0.6883077133150016 0.5614818792369879 0.7892901039673504
P 7.461676803174412 0.4103065022419599 11.794563285024303 0.5863786424786676 0.6621403108910145 0.1842845904161149
Ni 0.9747847443131887 7.6390057824951105 8.331271292592076 0.6068860184034 0.9290388167546193 0.9986342084552543
P 2.3459889465397494 4.983313849329044 2.421276435089624 -0.06107501293444965 0.33214796189071827 0.44594601625049646
P 6.129880054597766 1.6457789886787235 4.578287526162613 -0.8756475456176727 0.15453281307497901 -0.2090959930328399
P 1.8924701959796615 1.2080542418852482 4.736561509835595 1.7178373257975317 -0.34084651810598077 -0.019487933521282568
Ni 3.50958092363314 4.510716380180863 5.863669429470187 -0.30086380706545607 1.4500523035639157 0.6328035096001102
Ni 1.5647833957057449 3.109393167882904 6.98196336433381 1.9740043041762452 -0.22033634183334955 -0.7071302453381435
Ni 6.12925960846482 7.224839740337913 1.1209928755419378 0.01907732834642521 0.5718452247491829 0.1569733041956716
Ni 9.130229814615394 7.7718542486082764 6.226569285051147 0.113361738153308 -1.0707976179933816 0.27316685537081986
Ni 7.967258283654949 3.2361831599920077 1.5351853779018645 0.8115216616720412 -0.6011041216143003 0.1835795939292903
Ni 2.2753949505014557 0.4969253445051545 1.0933364891658655 1.0252641523379569 -1.0745061771932205 -0.46518815230956007
Ni 4.014523709565055 7.740211495828024 11.026937292714763 -1.1836744460904711 -0.09489916057274624 -0.05847768452091865
Ni 4.1170068119952115 3.290280588260205 11.646291257982723 -0.00150743778346192 0.17547007744827844 1.67881209357427
Ni 0.9491822171213246 6.456882539283875 3.5832123684605186 0.7093858741415395 1.6061324065213565 -1.3037552481351675
Ni 4.220593943573698 5.908809622904368 1.769765111719381 0.018251747121336308 0.382803836374373 0.19052311512665898
Ni 1.22528074628234 1.4231209448216098 11.23657144230471 -2.3919126975632357 -0.4788491947364204 -1.3695045266168349
Ni 3.2905360660796537 5.363939303475803 10.749663565584283 -0.48811467919874646 0.10298810822846778 -1.629751331491877
Ni 5.885086682527017 2.589824276787568 2.2919946218201153 -0.150045980948219 0.22994275457486205 -0.25611967008054604
Ni 5.159356315344663 6.046804142237851 12.744941685793114 0.03289906472086592 -0.23847341775369252 -0.4697873416444684
Ni 8.481115420644045 2.8758316956600463 7.228335224360436 -1.2294107717853213 -0.7245561541240747 -0.5558887014199265
Ni 2.0666148267650923 8.086648543207886 5.083756778886748 -0.17407088310790667 0.7343949945913675 0.39846185462660405
Ni 7.602682311094251 4.804406382052468 -0.13588044037754765 0.4252198394467387 2.1436721731204504 1.634691449105972
Ni 8.077880179476104 2.2946470290384595 10.224189487176554 -0.03966209447631234 -1.5417730664086804 0.8722583174304656
Ni 6.651574886119226 1.9845425772672953 8.55785274581929 -1.5082006297698736 -0.19896636079800573 -0.4053886636534244
Ni 8.713417752185336 2.925759360946533 12.49055785886443 -0.33313989349034234 0.04659378859913911 -0.1328437581373196
Ni 7.259238003885072 0.5724445879341001 0.9518884571659102 -2.837962586381448 1.2648552286358603 1.9193701617711334
Ni 0.7144866058642728 3.420993989739409 9.182842734268439 0.361109639230391 1.0847070289856222 -0.4447815636287501
Ni 2.9362886967909416 4.790300356735782 8.164918735299821 -0.4074182924889435 -0.3045152877751143 0.5817162040059917
Ni 7.34662054234426 7.734955952113658 3.0537984571085817 -1.0713858863966839 -0.06410402956876056 -0.8622029900769925
Ni 3.1784086759653207 6.200346311726336 4.166523887929013 1.2888819305677608 -0.9817063223516642 -0.32247932845270266
P 5.156682922448293 7.256400375247627 3.905008580154582 -0.15737028252377414 0.6798978919847517 -1.5394809279403936
Ni 7.549095838464951 0.4285248080309817 5.754725475470338 0.7271190297552445 0.5680569613513442 -0.879379501856279
P 9.018075051877547 8.294899462889678 4.174295888164947 0.2066519023677215 1.2753622988147713 0.9376268155339466
Ni 0.7514387351851319 0.8212088152557048 6.6657091964802095 -1.075962707134089 -0.17712175411908848 -2.505537973790575
P 2.156251044560129 8.7272500512669 10.186503771545565 -0.42492107725939726 -0.17324710165503068 -0.7997838044098226
P 2.165867959620794 6.465751269301869 6.844535458307032 -0.21366587179170943 -0.29939673560162633 -0.37300536222671243
P 8.697605500003048 6.135445821378607 1.6240177529864228 -1.9285582560283043 -0.5664595349572373 -0.3357007122389831
Ni 7.237303408243859 3.6560974530867942 4.26589289822425 -0.018717116793529057 -1.0567303412670381 0.6443315648443678
Ni 5.419697337570415 6.068200409616654 10.364581848329719 1.5654768377835233 1.087731931854875 -1.2952058159032598
Ni 1.2154448502335768 1.232160398991772 8.674140774707498 0.12957511468837685 -1.1753852094984854 2.3213569988318605
Ni 4.325248607469166 -0.07669170413605696 4.8221748643951035 0.162266691384127 0.8300189491452803 -0.12330419407800054
Ni 0.13890511527565988 1.0504244272855887 0.26789951599828954 1.2102737938455546 0.4907575161382322 -1.5326199391545023
Ni 8.113729192069416 6.194397328216323 4.608067115702458 -1.0007486836950958 -0.7214847142876026 0.5014113963076525
Ni 7.503721152889349 6.600378955943336 11.461817111504523 -0.28687417765458334 -0.9411345715768888 0.0330319907543044
Ni 5.580575370160205 0.32651160230445386 2.7144281086988205 0.026820719737269936 -1.1278275143241803 0.42846380030533304
Ni 1.0539463715108415 4.160346799223064 0.8530012050444902 -0.4237486542178509 0.4758965398659997 -0.5726484373767686
Ni 5.436431134744286 -0.32623696364854676 12.573460411275432 0.6564494311538243 -0.9153124683074623 0.6880449465719183
Ni 3.4955843888105025 7.13583309288366 8.516027377092453 0.010997893772400414 0.5661746567269668 1.5755524768519704
Ni 3.682156190670531 1.7986094699558883 3.068234778748984 -0.258449089544671 -2.130976579930653 -0.5430714950506002
Ni 2.8157761596739985 2.476611105940579 9.928073358440974 1.2289587718495671 0.3748573278337866 -1.3875711543105587
Ni 7.867475946744676 -0.1602776597140856 8.132481264016928 0.237924487228758 0.42710805760838694 0.20436722009860286
Ni 0.5035011610935994 6.2709494319724675 12.679399763634413 -0.030733424528114815 -1.1520228806234611 -1.429224311074971
Ni 8.937699905037514 8.260939161318717 10.56812741402974 0.4776461755672548 0.6629941742508775 -0.0037743794407676928
Ni 5.826792118653595 3.736180625276029 6.4485831598349375 0.022590997926638514 -2.0574090909561473 0.2650766221635177
Ni 6.340713125097555 2.347220714597804 13.1581204886623 0.48245336714791104 0.9385968927566998 -0.4875030137566766
Ni 7.197193390590462 4.307283042237241 8.590530183768307 0.8513945866075789 -0.06902306413693274 0.9546117801277173
Ni 5.785286097201069 5.714536989629538 5.179253475375775 0.0012184457881333855 -0.9868909518763972 -0.7687349055238181
Ni 2.9330860998399992 5.143042231731316 12.887217283443926 -0.8296055157569454 0.33207571389188617 1.5639197777090486
Ni 4.266096368059024 7.102766963680767 6.283672227380998 -0.48275984264473637 0.6908088824703006 -0.39296586450903936
Ni 0.165706563377364 8.92351176185029 2.1132887995367464 0.5512941400707086 -1.3513869910805176 0.7109095098749176
Ni 0.9629871435793754 4.957930303125279 5.400091239769319 1.1721145091670135 -0.11695665459341793 -0.3946082852084688
Ni 6.42907195379535 4.15308392978446 11.42170070690564 -0.23488621462306644 -0.3996399340951053 -0.9621417699561752
P 5.610803870725652 7.952002608150744 8.094194263089452 -0.5164227821148203 0.1865394478885626 0.8301068808733961
Ni 4.422850258706291 0.4791477379546812 9.290410757726402 -0.871341719153467 -0.6901316538976179 -0.3888970937563045
P 7.758943494518295 4.746832630598205 6.140381105397879 -0.4768825579283529 -0.4507958881436301 0.6410186984210509
Ni 1.4232030626921468 3.8647407137055962 11.387113572256245 0.5917062253391681 1.40697681253068 0.578317462737088
P 5.624517555105328 4.2380029321275385 0.6877280415394046 -0.3855780566854005 0.2947561515058214 0.36580370227195064
P 3.617337818193338 7.749518187822217 0.41048442429479004 0.23603986861153542 0.28129539801522524 -0.3679310330275986
P 4.159078534333659 2.250130018999577 8.104757358502859 0.2060204394313097 1.159025022972907 -0.8505900884284124
Ni 6.699403983603101 5.193535597903724 2.6855162313243155 -0.14563139682029114 0.9051743514321959 -1.5661494383705155
