# total energy = -340857.446778633 ev
CRYSTAL
PRIMVEC
9.39055763361712 0.00000000000000 0.00000000000000
0.00000000000000 9.39055763361712 0.00000000000000
0.00000000000000 0.00000000000000 13.74403030891144
PRIMCOORD
 96 1
Ni 3.2555372702502 4.973333180543578 5.788710596755523 -0.6424842272229838 -0.13372101853595036 -1.0801145245189334
Ni 1.5714158993073435 3.5793049132304713 4.73484588589341 -1.3732069151690867 1.216743717840614 -0.29534287724722685
Ni 8.022559901565964 9.172396110521307 4.008074953493431 0.49362121083927246 0.679646695205894 2.437011903894719
Ni 8.492895366683136 8.721677520112232 13.370110556435806 -1.5653505966183041 0.4496625458701352 1.9174336068700526
Ni 1.368392045219709 3.3449165969479853 11.212242130820274 0.05010925795156531 0.11443183128903518 -0.3191759751110826
Ni 4.332859593855648 5.2634262841733275 3.4231296116709498 -0.5917342503636259 -0.03359069147125182 0.2341508791189387
Ni 0.48958610808107844 0.8643745283059813 0.9627669121338915 -2.0063204998104482 -0.41650174284745045 0.5885746216887219
Ni 9.388463449036681 5.657510422038345 7.6054379088798 -1.5888273395840056 -0.4074049227525048 -1.0258197677311107
Ni 5.483033862882552 3.2589554331959865 1.5819239331983734 2.2283470848620266 0.5072804534939199 -1.0296543109858527
Ni 3.667303827969381 7.210173377931581 1.6506853517539375 -1.0474013505566284 0.34472528433509664 0.9716075433547653
Ni 8.335763167309945 2.1111663657850985 11.043108798906657 0.1744750605248608 -0.11118067134158917 0.43672346921096394
Ni 1.3692278048410689 4.90443465984788 13.251553828395021 -1.6512411259345368 -0.9487239538883726 1.4579242501128247
Ni 4.177013900865899 9.151689931138177 9.503130608143003 0.6656238985642408 0.83500123285122 1.2615634452584659
Ni 8.815921155617481 8.182368409839015 2.207717261278754 -0.7647828628546055 0.8026624115091983 -2.802208311599974
Ni 1.3487000460512646 4.7111863761628925 9.000800574419818 0.9845826154581948 -1.0090235221093784 2.1071491384937517
Ni 6.041255556048114 0.5310839209209797 6.738780536035026 -0.6726558657103576 -0.5828806566277381 -0.3499058000947716
Ni 1.7642416079028798 2.710340280397291 0.6266675889876683 1.6577925538998095 0.3353757247993966 0.49375362265207867
Ni 1.908245807830441 6.107017630524326 3.587109405604765 2.31065863857775 -1.6609136160272946 -1.0712149080364584
Ni 5.899965227250586 3.2032130836185493 11.344872487451306 0.9484077081995343 0.3743310230166714 0.4643168054482003
Ni 8.110887485818893 5.450307769843912 5.580969865613854 -1.056006575727136 0.3148470087184255 -0.3042692332025792
Ni 7.561934272948635 1.989793409537056 7.561786841195204 0.8125717002031103 0.4197845273637803 2.6070698091884905
Ni 6.005317892329641 0.8635190485137805 12.316671237830409 -0.7403977491420216 0.6464768933221448 -0.837898351893357
Ni 0.9073222432305789 7.388115052820877 8.865723977548738 -0.9733965169343881 -1.4623329207034814 2.78343771586069
Ni 8.441970373125447 3.4963581184498946 1.9573152272175605 -0.2120195944375381 -0.793944057799594 -1.306221707397789
P 7.0748366626165495 4.320924195218026 3.3894428645956225 -0.6139586089794652 0.05698027403978574 0.6832788926418426
P 0.9543623631325764 8.65301376335512 7.358842806846688 -0.03505210650812673 1.8176290385758889 -3.24744573181922
P 7.764056633512107 4.287033673044008 12.19663080169777 0.5507277260442772 -3.592325025233678 2.001950652877526
P 6.990828734833572 0.18435260852415428 10.590806021440017 0.03910930729663587 -0.6555063505142646 -1.0011466904644628
P 3.653452755592912 8.219940030570035 3.7693688588525025 0.05589115474066503 -0.7235451963610571 0.13012455943394363
P 7.154346513336254 0.470437822194395 2.06969954178509 1.522389776786062 1.0128709208799265 -1.1694331056801084
P 7.405262210895069 7.06354921244942 0.967481911076417 1.2686316649591571 0.6633623562235736 -1.6060249344092148
P 8.252356235209744 1.393699597799088 5.694935550071688 0.37642672920343556 -1.1075877902385378 -1.796213034793958
Ni 2.278618787898452 7.468178946435641 5.543723158173836 0.34271519588360333 0.5478475762830048 0.20190024661534908
Ni 9.409244752880156 4.707815166004823 3.6092927196894657 -1.1486781325209445 -0.2029292021004957 -0.054485275532073905
Ni 8.208577455942557 7.599956640441736 10.259245154754502 -0.28058114555702 0.6728111603412994 -0.7734181699321002
Ni 0.7216868845460004 1.5315811542083728 6.996577634161622 -0.15940788177909318 -0.010848255568413574 1.4938554167917948
Ni 8.932805425359794 0.3199672843424699 9.049221106280692 -0.9987457943324543 -0.3268725724243919 0.2663701441639606
Ni 7.221601686461861 2.2768533630802987 0.221386150307938 0.6676990359257147 -0.49397782284774283 -0.4902286402179557
Ni 9.230298288333719 5.858055168934531 1.426011567250066 0.19482637048770315 0.2648408520036278 -0.3087951460973908
Ni 2.3137019108804777 2.3040202460532644 9.061273886887605 0.025772480978413677 1.5802185148690722 0.1753070695078529
Ni 2.9666085957558272 0.6983015790957489 7.278192003385465 1.127479129845826 0.43193633223496575 -1.408942163787167
Ni 6.11246415389948 7.746327260870226 11.974445514942893 2.258623624358381 1.6369056831484712 -1.0571193491753408
Ni 2.1068185376425186 1.5826470061292126 3.4664369849494583 0.5165431097427684 0.22960465450915293 -0.5862763125728483
Ni 3.477567612805613 4.476046815276937 7.931404820436728 0.32476298228055683 -2.9190160993203533 1.4020690908164177
Ni 8.50438940911622 6.5271981278023645 12.479139151999744 0.9713074956158433 -0.22028877642486577 1.3746223074593744
Ni 6.843997977085457 4.305777225900572 7.356973146839803 -0.895440926194516 1.2846560654118715 -0.15918445291437747
Ni 3.565951540403801 2.9524570255379703 12.50424950287071 0.13334615169503486 -0.2544942186619811 0.13120030899662566
Ni 2.263828659767646 8.323151648529201 11.122961404976694 -1.2731038417978977 -0.6923119493783884 -0.5203951364990069
Ni 6.319723149439174 8.227771755561204 8.731939521395626 -0.5966280881208176 0.6785375213021153 0.6548571469660399
Ni 9.2501499269804 1.9175894125860928 3.774674523864506 -0.8458289195943433 0.5708404376337524 -0.009879463897241049
Ni 1.6219746611208414 8.297261881382132 2.8890087844404446 0.8026945502987143 1.2301103689555073 0.004177271306141193
Ni 6.11360980191977 1.2853137826335248 3.73707097523784 1.8316402652533164 -1.7116707919755039 0.6212476864417107
Ni 6.721714136755707 5.003674071966202 0.3142568863003473 0.4283406444639074 -0.8673223135814289 -1.7023878240116812
Ni 3.683699741440103 8.613826966726641 12.767942932078789 2.0818862501619044 -0.11785936891334542 -0.07328903850213829
Ni 1.5449251364775 0.953310620687719 11.990072341750812 -0.44398786408286117 0.03505442050097189 0.39248635376945956
Ni 7.181532177424306 5.646983607032229 10.922064512172632 -3.1051598544323946 1.4829359416658139 -1.9794105627934815
P 7.058215375764786 6.141114744964297 8.76087089013099 1.9247432531575885 -0.4281496114990239 -0.4697873416444684
P 2.2469444373046685 6.934175501174427 -0.18428499650984204 0.2016030270899044 1.2538416511341761 2.4574475460412515
P 5.655031314846895 2.4799899038584536 8.562929205785826 1.1931355915033708 -0.029241927584252866 3.059714320505085
P 7.201318082168185 7.299177082327631 4.950448391810387 -0.8820920156914356 0.5648808776162078 0.22162600717905057
P 2.636060970229244 6.609600270245426 9.997324662810612 0.659084040563194 -0.8120222554575435 -2.455750360844487
P 0.011926947135832778 2.5061895594044525 8.888291365436963 0.7223884570487945 0.8983616993857367 0.6692098161432861
P 0.5049011683785587 5.371718193763458 11.072039228586268 0.2957653094966261 -0.006513632748801686 0.15612946813813755
P 1.4289517508168947 4.267135081609609 1.8929654925958712 -0.6129959879558797 2.253660109705519 1.341350175669806
Ni 8.965221629999503 3.4677169179426195 6.358332426778735 0.6008542103870232 0.6731078656461117 -0.5516216986134564
Ni 4.744973602203934 6.689542086612126 10.633123629953452 -1.0293858878158142 -0.17434624825648037 -0.913432220565614
Ni 1.8927326067687955 0.12308955016697022 9.153304167979883 -0.7949568153348244 -0.21266365577944019 1.225127056808303
Ni 6.046692688865725 6.099298592223676 2.183884965289438 -0.781703292759028 -1.9035036270525214 1.5062910714519866
Ni 4.02582592441766 0.6527958762963377 2.5255068753269163 1.278620914961385 -1.2575306699499893 0.6587204865761882
Ni 5.328455895161158 7.248843693895174 0.1586393838589017 0.4869314575239227 -1.730436759729097 0.8287704214501598
Ni 5.629723762267516 0.06289232009095855 0.6613478570510838 -0.5515034278680373 0.5448357860398745 0.3268491753856242
Ni 3.8141064140448666 4.7110924705874595 0.9041904922898653 -1.0706148125586143 0.6281097036688666 -0.5883288242265029
Ni 4.044569477274225 4.078074986588964 10.274088809063304 -0.8211959515370115 0.45733960279941877 -0.45920108148818983
Ni 2.725984949264544 6.45459972743458 7.70832555260372 -1.318254213082291 1.0056571767403066 -0.2309488272418732
Ni 4.680817313067638 2.7720174623421383 3.5044114605990875 -3.2098988839136977 1.9000534637203925 2.403609417174873
Ni 8.18519496765957 7.736495347122319 7.346623813371257 0.03704753967160071 0.1645742564713811 -0.48006378386981186
Ni 9.315714799748202 7.011948098748608 4.045899180222365 -1.0866168444138256 0.8036062634797063 1.6352347232039515
Ni 2.7970714698678463 5.8414808348704845 11.914053900325733 2.0366587457826735 -1.1717141884048012 -1.3932810602111423
Ni 4.0870147973702515 0.5735085817904115 5.122729438612541 -0.44305403941468213 1.0750623068070064 -0.8512701452145727
Ni 2.6441274591589976 0.15736226803300354 0.6964262847543381 -0.23706033945624977 0.22091818247874856 0.7009523986622057
Ni 5.541349225226873 5.248730061617956 5.570813038574946 0.5372320055506877 0.3539725139649774 -0.5142216606984434
Ni 6.606914570788023 2.8506727723253955 5.451816832441131 0.37325630189525394 0.7859008757801432 -1.586128966816236
Ni 6.025789307774184 8.223508442436513 3.0104925492674988 -1.1470531953230114 0.17412976137030012 1.109691981065734
Ni 5.0561485075185475 6.052496053427526 8.348550289516751 -0.7412544407153621 0.32048800905428676 -1.1667344758020228
Ni 1.0675561437603445 0.23571801923062757 5.13971789626425 -0.271577656506829 -1.2791037681350745 -0.5277065825587557
Ni 4.7561671467956295 2.8879438952150265 6.88197996518112 -1.9332530904008125 0.24977624436102144 -2.83275173160447
Ni 7.643857496956985 3.9158531050272676 9.437833366265188 0.857749325181013 -1.2219206340558635 0.2961062377758126
Ni 5.029376027962403 7.927405381979007 5.628056938303569 0.47374272674779055 -1.6142578638419685 0.08767590335142965
P 0.03621656327751065 8.736843270544773 11.558468231221266 1.5990377044581041 0.010607600312517217 -0.9287444254426521
P 9.744393751602988 2.41118528873819 12.937750506024019 -2.7594740059562413 0.16797865416723973 -0.44694000473264966
P 3.7370287177288946 2.2116359409416018 1.126370144710218 0.5552590382557275 -0.1711431679381504 -0.5556729858646946
P 5.068159030616516 5.256965580583491 12.215597849823867 -0.017614370647653536 -0.9253852791624321 0.4271347970812644
P 4.0401465246712975 8.106051348684057 7.692038569600502 1.7903213518998715 0.5673761332342357 -1.2898283536414301
P 2.9564855747240757 2.4307739917736573 5.470825199020418 1.9837760388510286 -1.9376895289056113 1.3041632822068636
P 3.579755659992553 1.0337595271617601 11.33085332409481 0.997797828596888 0.05261788330603196 -0.5595090717813331
P 0.9583909123186816 5.596283986855581 5.686702848273415 0.5399488902612185 -0.032571506178118104 -0.542143326809376
