# total energy = -340891.8659446057 ev
CRYSTAL
PRIMVEC
9.04053872466836 0.00000000000000 0.00000000000000

0.00000000000000 9.04053872466836 0.00000000000000

0.00000000000000 0.00000000000000 13.23174225521455

PRIMCOORD
 96 1
Ni 6.534600724808518 1.9400091718812524 11.410115261119383 -0.8994582748840251 0.3024095542860211 0.9554070223355029
Ni 4.492505791387198 0.4319460842605899 6.090848601228483 -0.21140201545819723 -0.732102599012765 0.4945529786249225
Ni 2.713264516908268 1.3832747256219147 4.6179306073013215 -0.08269002010106405 0.6412863502601408 1.5303170020529386
Ni 3.4318969278912625 4.351030403294698 4.811074481432947 0.3589463130304851 0.06014993001701899 0.1889837956639971
Ni 5.056752925198768 4.660280106181794 2.679480928323511 0.3311012657937588 -0.030131015057425527 -0.5449337450703196
Ni 7.384818174687695 6.235178087347746 2.784077247424655 0.07437712935999448 -2.163889014387957 -0.25170662861451487
Ni 5.348997375034423 4.397543974240823 11.669245122224511 -0.06360292156262595 0.8859252733945969 -0.2477432730913927
Ni 5.920965128785349 8.032509479506599 12.521211012263256 -1.4439739585803197 -1.340092392003305 -2.0494972923082377
Ni 2.0051100901286865 6.256595123221676 0.4206580678012445 0.5943382636453765 0.9998961058868133 -0.8323722798688052
Ni 2.5497211741647483 1.5375334352533505 0.19255352696296008 0.6779448820234388 0.30014749772472177 0.16250708952970722
Ni 0.506709530132362 8.91936823221272 4.6796566925003225 1.2220684724876372 0.4493938655897809 0.47900886024273637
Ni 8.563306620606669 2.5498115795504552 1.3289564577277253 -0.10116236787363868 -0.5452679884812868 1.0763242042385657
Ni 6.700142026576157 0.5353797901015451 5.050040325310041 0.0021558700007382227 0.7792008380521483 -2.208976136534583
Ni 1.0057599159876478 7.415049735668034 2.284341588745712 -0.8427022010399035 -0.3589586543256592 1.0474016076669446
Ni 7.2816656295962865 3.6994787885061156 3.790788228069938 1.0325156916940477 0.9412387012549208 0.15874710826664273
Ni 7.6137426923743385 3.952478260406469 12.664179897327633 0.9083820597362161 -0.7307358005722254 -0.609427553878331
Ni 7.844511479929402 8.849159409672856 6.868742646596112 0.11160464625288521 0.2594222520912178 1.3176518036116018
Ni 6.7358883160846075 0.6769971146496054 0.4628583977953006 1.3499273758158556 0.7658874087726939 0.9056626039225241
Ni 1.7917714609378865 6.673861180951203 9.018954284837998 0.6428130713173124 -0.7888764134686995 0.7080887525966708
Ni 0.1729382704261655 5.007762246684277 1.316705623910603 -0.7939651408455165 -0.39070740749216587 0.7997300683537517
Ni 6.258312825550105 2.066694238872128 7.0755024758690315 -0.2381720844631898 0.1787991418215114 -0.3642463850871598
Ni 3.496093792281629 4.050658509284005 0.30067927232209596 -0.2816872341370052 0.4485052923372405 0.15653030312098204
Ni 5.923704411972263 5.657632321298713 4.8605614855149675 -1.176407994336045 2.1471596174484184 -1.5082826479607185
Ni 5.403819200927 3.2320377417093393 9.366697696905172 0.7698793035409064 0.5812706318281409 -0.35920702289103945
P 0.3142427923396804 5.679175924712633 12.265878177357811 0.39239842204134356 -1.0644662764587152 1.464199284488259
P 4.256837031926829 6.087528011411474 12.770390856617498 -1.2777074020081802 -0.44515205959429144 -0.21456652922910788
P 2.2772755037988723 8.625785782668606 1.102393328715741 0.9403758390339932 -1.0164175005806044 -0.19973460642259794
P 6.066083853921832 7.690225648682254 5.888204929166792 0.14958266815855528 -0.23759770001695857 0.25587104440484965
P 4.775953797193587 1.1481483984757865 12.713759114903073 -0.11039288533297116 -0.8848212416971406 -0.8216862609098687
P 3.9776109576329466 6.020040390981381 8.677151410665612 -0.009321020290609754 1.0041659369067608 -1.6947889286185005
P 4.823687840846753 0.9404872275073707 3.6896580514567905 -0.2883181091899615 0.04122738208090319 1.055940241265575
P 0.350748487088068 5.777491781668729 3.719509005763304 -0.8925965147671854 -0.9708302988691087 -1.468602555762277
Ni 1.3560265423698987 0.9621483579227093 2.5925480134817525 0.048065488048659157 0.8042608663445697 -0.37678514098411886
Ni 1.9980855916592717 6.385160622235253 4.834945119474959 0.7746083335854594 1.0658922102719643 0.47905873964406526
Ni 6.108538223049724 5.826898324957471 9.295206021942128 -0.3232246912591595 -0.8878636280678902 -0.17689215460678565
Ni 8.47098464072293 2.2940005001546218 10.215976738880714 1.9010117138686033 1.2281478459124977 -0.7857494378039436
Ni 2.1816175651825547 5.21204225622726 7.048284126394299 -0.4058527477740365 -0.6939566840706629 -0.5668639694845076
Ni 0.5793258480935987 8.97113435606841 9.057603491281494 -0.39149287950793865 2.007172049177466 0.08691331415379225
Ni 1.1923295104706777 1.0985339227999196 11.462552192937014 1.3627335264415885 0.603816892559773 -0.5051407814430978
Ni 4.087724717423773 7.098097493918721 1.5473858141876726 0.305426486735474 -0.6373492199892636 -0.1690286926983089
Ni 5.567751286829058 7.904206156111571 8.099678872979002 -0.2825233568850554 0.5979797170527057 -0.10416644480728511
Ni 5.337931755823916 2.7278649866999087 4.879627981360522 -0.932353225839833 -0.22361629813620199 -0.07973402279653365
Ni 0.7771518171509767 7.644408199206071 7.025221712500506 0.36562655326413807 -1.2553801992658897 -1.0313373551152303
Ni 4.669790752758145 4.46389248681101 7.14908341929576 1.915389322746514 0.7922432730584034 0.5274199045562723
Ni 8.377794769136406 7.14478283509769 8.88085372979393 -1.3976897308017993 -0.6425428483750611 0.9633761565839086
Ni 4.694525666287513 0.2886092492763871 10.40145875657369 -0.03910133687683589 -0.8857568661375327 0.255247808998554
Ni 8.210363994807496 7.167248573445818 4.951251648186699 -1.1504295679944123 -0.5669254188500623 0.3716498766400825
Ni 7.194532918852116 6.096125563592186 6.986015608881058 -0.21122280956785558 0.8651502456307745 -0.17178928616258154
Ni 2.3143236308615003 5.055559574107438 2.4984179258838792 0.5283539863347675 0.13577970083719196 0.7546565730538809
Ni 2.3842793183213873 5.276320485464763 11.483167333039725 0.6515540507347359 -0.8921586558988183 -0.5215403058470438
Ni 1.1457255341388457 3.1521645834374215 3.770530189240768 -1.2253258030826704 0.5310906685396402 -0.0934400595287165
Ni 3.7210043108428934 2.66203178482825 2.8279410365157154 -0.48173345826275105 0.4189548323736333 -1.0200473840237076
Ni 1.0518757032366635 3.1507180972661133 8.051660956414716 -0.8107025082048553 1.1240863021141931 -0.06418373376676043
Ni 3.539235242340893 2.6049317432158636 6.970243485290657 -0.5832439535044277 -1.2534189617744607 -0.005444053833706753
Ni 4.03735083650797 6.606373560521111 6.444069675615631 0.1777573308205584 1.420085067777864 -0.7426464359668823
Ni 1.0018905654793986 7.389347484511602 11.182277416168933 -1.2319546212530976 0.014258052580910929 0.8409008861651066
P 0.18092649030721436 5.404587646705507 7.918628527293371 0.23924063493702022 0.2844550266901295 -0.9095663098523045
P 8.441774660601077 1.7104698975718018 7.9730905397508325 0.28783499890595593 -0.39228889304667275 -0.7594910183280469
P 1.806019349725271 3.2248414730070816 10.49680750877089 0.12613806398236985 -1.5245680153843035 0.9497238559077966
P 3.9583636510159788 6.28341840116087 3.7397932621543286 -0.16659308667362277 -0.3068598767478909 -0.2428142112208915
P 7.208310699633826 4.080673097338647 10.437026043418442 -0.8124362030665104 0.2473884608551352 -0.6952566338290092
P 6.590751509870983 7.86457243501773 10.039663635406113 -0.407349386924221 0.19550051373659233 1.1633519324830353
P 2.4728042720054413 8.338387061506833 5.869428634609356 0.3414661539678506 0.8159007645763433 -0.6467869683633957
P 7.022012321307916 4.14428232672192 1.5916989180456955 -0.09437259864531489 0.23318980075725002 1.2189870053488363
Ni 5.4976871129063225 2.832500180116907 0.6965599360626902 -0.5521269203846492 0.5749413471760033 -0.6007274550011719
Ni 1.4909294589215183 1.0789340351786951 6.898355834738218 -0.6008372411061588 -0.18809985039714702 -0.6381773723175138
Ni 6.819468095170503 0.9753204226201835 9.152330254425031 -0.5284506598136318 -1.408626432318961 0.32458609038306035
Ni 2.547253107134954 1.573370130147508 9.095009623671519 0.6767719447612602 0.026398544598186795 1.1985881299775099
Ni 6.509431865427757 1.871653659748375 2.5645096871586595 0.0017087551609906053 -0.9702875389917612 0.9816466727583224
Ni 4.193110275542138 6.7689766872532795 10.707323681819926 0.8038304636753704 0.25177604839986967 -0.8698543359746632
Ni 8.266541901485674 7.068851351642586 0.44510097193477977 0.3301453296383927 0.5397995091675478 -0.5979018126269187
Ni 7.471788155737593 4.003367452020801 8.023556634160059 0.9736934793495167 -1.081797568648311 0.8048218810543623
Ni 3.2004139377891168 8.26382973991447 12.184753808547711 -0.15300300669401393 0.7354172652082946 1.7798952714705412
Ni 0.4231767618470346 4.804404372075503 10.035588160618454 -1.0075795905740002 0.01891920550200613 0.17391815958012627
Ni 8.4349852161345 2.292662500446162 5.660658189558319 0.4463234541945733 0.0710776326731163 0.5673763903445519
Ni 4.130441262170216 2.54907025538766 11.221430180610813 -2.6337419191630382 -0.17064154571138354 0.16362654784613112
Ni 1.0604551743402344 3.492007468847684 12.803099525166203 0.21046844790033428 0.010618398945794616 -1.5247423361786387
Ni 3.0804007882633995 8.354099517542666 8.030476262382052 0.774983200426375 0.6912344000434935 0.32116395207538884
Ni 5.612321141982488 7.880655553134962 3.515739786649564 -0.8106444012734104 -0.3133807085855442 0.34280955536962254
Ni 3.123804413941212 8.473968018451252 3.484539983988306 -0.08449801984408027 -1.544228212817392 -0.003321351063749119
Ni 3.155880244789969 4.163448268491752 9.149405640197417 -0.1125163594338772 -0.6991986491958926 0.1618843683440438
Ni 7.51899784815366 6.13525301452607 11.265942176317393 -0.018343535504194215 0.5288139566903215 0.12194690871915773
Ni 0.21758225799587516 0.18108560378605823 0.563578133957339 0.384703367389931 -0.16851267229383882 -0.24489989010532662
Ni 4.345597039613722 0.4988578223837304 1.6091652385642405 0.41029484270579014 0.171874132566904 -0.7995698886268036
Ni 6.282631874305221 5.702437230454981 0.24644236927504254 -1.0083231536082442 0.6484391592548381 1.1959483783618179
Ni 8.076482659114363 8.985743866398622 11.221866838623777 -0.3148668062127674 -0.8476991400338626 0.18520633089943586
Ni -0.219199610346169 4.772807689770992 5.605826419073314 0.6607146341880814 -0.19055808212965247 0.4815879338238222
Ni 7.828130024039337 8.49680441888078 2.7778980393115984 1.0308457601907923 1.9574338014120738 -0.2055820663423105
P 8.490358514879887 1.4574342635171655 3.6277068568473796 -0.8607893975589176 0.5023724746693413 -0.2694554679575037
P 1.6571849632362405 3.057564387833873 1.6395586251849945 1.6838475991156485 0.5351388704670849 -0.3520626985367743
P 4.705265826109475 1.3840250903232807 8.562842840977991 -0.35602862516305783 -0.4167740226722306 -1.8088744323117105
P 8.473642559062707 1.7243290432006475 12.527033119102772 -0.9133291193288464 0.33738247081678024 -0.1896826215032346
P 6.361103749098685 7.653421616161033 1.401280766293129 -0.29122654108600815 0.5461984707153561 -0.045557634025140896
P 1.7927930417963729 3.2031441804374605 5.792711528352462 -0.364912557916249 -0.19315309655033833 1.147551475115669
P 6.560565151583498 4.160012863834895 5.997921809314367 1.503007001384076 -2.3942256619671287 1.3137447552477117
P 2.3362017342025347 8.671440502450517 10.202360783739419 1.7974237672726077 0.13064186538999437 -0.4396280444522686
