# total energy = -340857.5860202366 ev
CRYSTAL
PRIMVEC
9.38565650909618 0.00000000000000 0.00000000000000

0.00000000000000 9.38565650909618 0.00000000000000

0.00000000000000 0.00000000000000 13.73685701775858

PRIMCOORD
 96 1
Ni 6.084354941329534 7.8553250436872695 1.5880220739820083 2.5448385711624106 0.7887712553494028 1.4229798728271559
Ni 1.4418902210246065 4.407795155734388 11.12289811192853 1.3602416132576702 -0.9887673429635035 0.7175383280453449
Ni 4.3760810230829525 5.347702934992378 6.759316905911331 0.1754667350141688 1.8404447509188238 -1.8693488355476837
Ni 8.089816280788032 3.2399848701010905 12.705850992940713 -2.0011420409333023 1.7542235777360498 -0.5259710879248877
Ni 8.202584941281374 8.697293499412341 4.525208777532612 -0.18806771160763094 -0.9238572725536798 -1.0128593509157007
Ni 8.555983058098336 1.4687425837105363 4.018772841849716 -0.6783518876538704 0.612848406634422 -2.0667478518585694
Ni 4.531028823006763 9.25397554611905 8.77062550924726 -2.6679159939415857 0.12572823013846088 -1.2177459338528833
Ni 0.4919942263278308 7.250044068638113 11.246968979743226 0.3002917366120699 2.0430795617073523 -0.47195838115385813
Ni 5.469660153007399 9.16354474762938 10.752881752059588 0.3265887226353859 0.24091750841881088 1.15901885232532
Ni 2.7587541144227616 3.7909135094934068 0.16337424215360005 -0.4659188598279976 -0.4558337076778537 -0.4880475734062369
Ni 2.3961955970530315 2.291742628045091 1.9730658081593873 -1.068848721797127 0.5161335330091756 1.751892101389396
Ni 2.896507391997525 9.256453359383322 10.70705534658936 -0.4401358373266227 1.124985931110327 0.3441035915906977
Ni 7.260208734415415 1.3298911843481975 11.463077470406848 -0.2676474682144875 0.03501122596786228 -0.8008767803636853
Ni 0.28252327180244546 1.7136331279962025 10.823091154042148 -1.2040476104301843 1.457429312754277 0.36216713396062783
Ni 5.292027221796663 3.5433198961921697 0.36707771088013735 0.20596233249986462 -0.2525391518181393 0.17273596634656702
Ni 8.53754024346085 6.191952105199336 0.31984345696429944 -0.6618883427812084 -0.18363847219168375 -0.9490705385945138
Ni 1.1003461881196779 7.667564989324449 13.678007887259469 -0.6008804356392684 -0.39573494261374426 0.8123541848756655
Ni 8.159570478439843 0.6668677745851713 13.518564357966012 -0.36538846911140294 -1.3379540055040635 -0.030717740798830967
Ni 2.089519277317705 4.703321315780485 2.4985696431896214 -0.681853987269858 -0.10148478421006393 2.5746050037915658
Ni 8.816369320942014 9.227113797776815 9.869066409137215 -0.37876669019052184 -0.6220938364920899 -0.9024376692273232
Ni 0.9996380959770597 0.7462760583113444 0.9489818317727596 1.0127066273879204 -0.504663327586047 0.5750421344199257
Ni 4.904352688157256 1.7196868763123245 11.936133319444334 -1.5287535142205606 0.025194496987756613 -0.0128287763335521
Ni 4.033776752017395 8.079595301072905 0.7570629931016064 -2.8940895112820026 1.28998776203743 -2.5186886522399203
Ni 2.516801280560268 6.064222708557314 0.8326513147120249 0.17019108843752626 1.182632635089518 -0.4369507547304217
P 4.101559961845353 7.64360340878017 2.785751954781405 -0.9577660094859829 -0.5767891990180196 0.22517464376225738
P 1.0882856197689543 5.351278870044227 13.036716964668507 -0.6516759210245809 0.5117063504757575 -0.3299185583395673
P 0.8324420145764442 4.4879580462274085 7.245903117076759 2.166812101572023 -2.0798285963019274 -0.408638795159606
P 4.121814208149526 4.811932130531127 12.613992636127197 1.3147482568115614 1.2333579293585275 -1.1734003178579726
P 5.121320904938328 5.801274161542627 4.664019818572843 -1.0034614546405687 0.4288512655517388 2.8835161066415305
P 8.731156947357407 7.047905188817463 9.315732226034166 -0.3695207461122217 -0.5825384427969709 -1.151079028652953
P 0.9620203855103668 8.72569449538844 5.818012540995296 0.1259917682124927 0.17895135112865956 -0.8987314240203297
P 7.681512074592289 1.6176084783493128 8.308847464824739 0.21909629877866135 -2.342740092493327 -0.10521982577246396
Ni 8.714722663168988 5.406738713144947 11.236350048200807 -0.31831722665521306 -0.9019622722528015 -0.21546872932840308
Ni 8.886846214129239 8.530763799609314 1.6373643463037393 -2.0872431435984438 0.8143714724160105 0.8515545092242109
Ni 0.3552752480777755 1.3359073900391032 6.828001138744479 0.09906383347339713 -1.2327701751758575 1.1262264883856477
Ni 2.0106985356761666 6.498891223311177 4.3953816867066315 -0.33428969082406945 0.39296715006062 -1.365377134712023
Ni 2.8596217627225493 7.093022038671104 9.65137831251762 -0.5757000797188987 -0.009932685732679669 -2.020193144027482
Ni 5.842411493123344 0.8421148719634137 4.353141540510187 1.6858959970042449 -0.3733977125691247 0.04667940633440993
Ni 1.4790011060508796 0.7486525064875337 3.7859184632083833 -2.4103709042684227 0.5347984564085305 1.377618671083537
Ni 5.888635850420864 1.7802619020987605 9.480903821369994 0.20457136568960896 0.48733383516866396 0.026826633274540893
Ni 8.002529677160227 2.384876495550329 1.4618347406707446 0.3472056275547891 1.0223482642427426 -0.886769366562447
Ni 4.654741158750644 6.356951943024801 10.843586611713334 1.214529998018747 -0.45505620608188074 0.37674991687080917
Ni 2.543616100620982 1.7482286571329864 6.406485682735134 0.8270668084954917 0.6130515237841635 -0.5857944878404233
Ni 2.57425088279745 6.711316782441081 12.015188702493475 1.7271724871555287 -0.3316507105393256 0.795237836910353
Ni 1.0697114059432096 0.07511153027017203 12.447281793157503 -0.531811862976381 0.8689433941246195 -1.6420640874209589
Ni 4.4751841679975755 0.4230500108150599 2.254424320014498 0.7933768724422142 0.25143871966510895 0.37810668800901975
Ni 4.4909520705884045 3.175345855134994 5.580776937991226 0.26335783970019805 -0.7220429007839179 -0.5073195342619714
Ni 2.5483464713982307 8.830372720147679 7.284229444594409 0.1890799549222292 0.06489258690832694 -0.21561245399511897
Ni 5.997134037295857 8.534499290818331 6.355535647488517 -1.5680440842900671 -0.09125410762099123 -2.4044123726921427
Ni 5.7173382372153725 7.863049438825516 4.091495722590504 1.1280002924566186 -1.1019365054900314 -0.002242516177273557
Ni 2.0043819889835306 8.460437076922954 2.452358425810927 0.7279826633071205 -1.3731002143878932 -0.8714479057140282
Ni 3.337680166570104 8.519867052640294 4.633482647221937 -0.11362501911702366 0.17581383394094238 1.1889516353290104
Ni 6.6797340489779025 5.106172455663566 9.405365243737988 0.1575183780658642 -0.06508310565257824 0.9956319312938208
Ni 3.509418905621887 1.4097349625268794 3.9582475600416918 1.2558944198981465 2.4551281538794556 1.5322229608264
Ni 2.2780207985285483 4.152946430110109 5.140126005909153 -0.9412916659800433 -0.21871011908383625 0.44420537941030597
Ni 9.284544628701388 6.191154324413491 6.675246766698929 0.15139709565947476 1.1765558327678187 1.5175162507438447
P 7.05616456636504 4.676497110063467 1.147594520519972 0.7861487301248913 -0.16984501795201717 0.014922168527471077
P 4.117966089064859 8.743395843177908 12.355011406032238 0.05639637651185771 -0.5099050356009605 0.7411374555215237
P 7.2342292377657635 0.6320995493723927 2.193528304782463 -1.1199938772123743 -1.9337601119442178 0.5712582418974613
P 5.10754276148396 7.196883711331888 8.690718847171343 -0.07674408693027429 -1.5695875175177871 0.11896442905206608
P 7.8948386567273845 3.5359990842749993 10.514643760962246 -0.5244415386542387 -0.7196499750717089 -0.27841679091584953
P 0.1942370957782573 2.3125600137275075 13.619447961881518 2.5155580770307386 -0.3191042413328827 -0.23877757925767265
P 1.5187305891859872 8.858567231685091 9.144707735427122 -0.3673841593851931 0.07149543693682525 0.27403923067344416
P 8.036721623075936 8.162846072489963 12.314281411935118 0.7072518585176722 0.09415791153134752 -0.1018164565178698
Ni 7.562361167812183 1.4644157961543625 6.0971316352562575 -1.8209552747356446 -0.8642727281218278 0.6866010150365401
Ni 5.69257887588525 5.132874647848632 2.8796714017192926 -0.3122759055571396 -1.3399939187522276 -2.0037499108697943
Ni 0.9451168185067456 5.5329382478094065 9.22384571225174 -0.10881499932289002 0.4053894349843728 -1.264854200194596
Ni 6.682052306085006 5.49882138714413 12.066509471164103 -1.6946901982571074 -0.0803909396542422 1.3062659303721633
Ni 5.358440125804228 3.7052318530935966 10.896720689181908 -0.025399413909711094 1.2467148102814078 0.08469162391212512
Ni 5.647893766221595 0.7765288442762374 0.18227132255620468 0.6581952102003374 -0.24653331194369157 0.4339752170418655
Ni 9.037373369933833 3.1765472191419146 5.522491073777352 0.3637743305467477 0.04831488505530389 1.3816874418362721
Ni 3.7333137367553593 2.0465892853829115 8.432273538051346 -0.05045918509181632 -0.2884312377290581 -0.9257771152842119
Ni 6.6391316998065175 8.858454603809442 8.326554444007987 2.4262826904026733 1.186327824552918 2.617897495931614
Ni 4.877866366067185 6.071346421692099 0.6041734676052775 1.0216039298775503 -2.7472185856276554 -0.5440217747790115
Ni 2.2205242680098456 2.142276051402855 11.913192898305939 0.5453142683381897 -0.4045486842506323 1.8385429059104208
Ni 8.48441742877984 3.5252712791194525 8.230520408704793 0.03913450410761647 0.8021168234183734 0.37053761741251023
Ni 9.294221240350879 5.057845711353936 4.536500660632033 0.5445082274971268 1.8875514745986395 -1.5819429537593466
Ni 6.761576971949349 6.198465750674357 7.35490531369528 -0.4242955278602564 0.6817609133354194 -0.6250560044442074
Ni 6.83144379747681 7.503710201568079 10.298081943099138 1.4436137470274235 -1.669600602278331 0.7682934471110252
Ni 8.32838089272476 8.390664107958534 6.815705928986154 1.0916937447161006 0.4647292103952706 0.5550798323653859
Ni 5.62310624792256 3.7644271874033355 7.644327042881213 1.7777360590356934 -1.4161710774354384 1.0818968132303368
Ni 1.4312468867757964 2.8514186991127963 9.09614822684115 0.26788220993311285 0.7005379368326065 -1.056875865705967
Ni 7.776391674170084 6.266962270381424 2.870907075862557 0.9726745511666991 0.8263057619597511 0.06665662078728521
Ni 2.333396170722532 6.424106313880385 6.636975814553473 -0.44871817967899497 -0.3897015919354708 0.8304598933374409
Ni 5.989878924972814 7.753434358850339 12.974914295037497 0.682543814248031 0.1144482863492674 -0.8663080133843015
Ni 9.289547183511456 4.250116129826095 1.7674523583749724 -0.1614357108423994 1.359075617974027 -0.5134372171239351
Ni 6.195565582876401 2.529406216976627 2.9116642883629598 -1.5740193280368957 1.0554913266536143 -0.24371204044481254
Ni 3.6206858611065784 4.413445320829435 8.690443847441633 -1.239093546290724 0.6407119658139094 1.416773486906128
P 7.7387927350159975 6.741716923209949 5.41478034346627 -1.1857231010893836 -0.20993494399436746 -1.9458298986245584
P 3.527007625535705 1.4312468867757964 0.5365282269249891 0.9113959068618755 -0.5301331897223773 -2.22408650981346
P 3.916287106403108 3.6917165080157432 2.616033008966257 1.7799762612201213 -0.20738672365121702 0.6180633751764582
P 0.6036272224083808 6.858530801570343 1.9986989740914192 0.5058784309400706 -2.5800274603587177 1.4288959812012747
P 3.3738055576844506 2.8501140928865314 10.35206729959449 0.3878637673957836 0.4030481884457058 -0.3336942233319156
P 4.530766024630249 0.7821874564619582 5.93819586996885 -1.7948773467016703 -0.03980993290808627 1.0922948686352094
P 0.6435350330132655 2.9282966098993937 3.3151020317650453 -0.154424826742205 0.4091460738133276 1.1112230729982797
P 6.675820230299107 3.480482927236454 5.778394747170207 0.8600849152927252 -0.18385547329849627 -0.23251822861152213
