# total energy = -340891.7227672836 ev
CRYSTAL
PRIMVEC
9.06380946356533 0.00000000000000 0.00000000000000
0.00000000000000 9.06380946356533 0.00000000000000
0.00000000000000 0.00000000000000 13.26580133382843
PRIMCOORD
 96 1
Ni 6.412491255055604 2.0694852785428286 11.644030650710933 -0.0033966843863747955 -0.13426352130298166 -1.6144380981735746
Ni 4.673943795095824 0.5350267144872058 5.899673593396895 -0.4783789399682213 -0.6392191833184668 -0.190589192477904
Ni 2.6296105883805576 1.4973322932762072 4.734551677581065 -0.10212447467659186 -0.1507059831297211 0.16104670293409684
Ni 3.4601909148895067 4.1978762561153244 4.637605169376522 0.18964791161055725 -0.6514758891986329 1.1767466086223863
Ni 5.153047710314966 4.731245199814329 2.44590891956171 0.3496636021769785 0.2315324676594851 0.9011338628142351
Ni 7.452001458212171 6.124479639058263 2.592614836460356 -0.09004208959076106 0.029804227845626093 0.030301993417651035
Ni 5.223962957154191 4.6720766503043 11.578298996620605 -0.5175044452147733 0.0773017592059572 0.7875060154837341
Ni 5.473480573493276 7.846141221607325 12.592549268614565 0.9029246361660708 1.5088567752966338 -0.5923744550507862
Ni 1.998860073612967 6.4125456379136105 0.5366736087038069 -0.38452647549243457 0.41116284713304024 -0.331677450012203
Ni 2.705293399104935 1.6270263458097531 0.5018323243415908 0.2260030532008237 -0.6904864661338753 -0.3538154195618229
Ni 0.4021530775222693 0.2105223880062136 4.755020478953384 -0.16752819689338244 -0.9369881535086831 0.1356359761704761
Ni 8.687271822569349 2.485940141339588 1.3759289074456058 -0.5334725385082554 -0.8283330768024251 -0.014097101523014431
Ni 6.947573258781784 0.7261208264709402 4.760605598470552 0.0585149655167573 0.2912211417693694 0.4571508838273804
Ni 0.840778925146921 7.2022935018700665 2.7265861007760375 -0.17054101557777726 1.2464404735740986 -0.8174416267009019
Ni 7.469766525160647 3.8498803477378725 3.7422956461264794 0.46755510987983995 0.031103149162707722 0.40907382581449553
Ni 7.548957030226383 3.8645727832090357 12.630529350264666 1.2322222730921875 0.6642535005792753 0.6588410713144524
Ni 7.962493346310177 9.05072152643004 7.042787672958849 0.007933395914463756 -0.8695411756096185 -0.14683570154103745
Ni 6.7287094467384865 0.8042698998058682 0.3439996746950116 1.232047180966904 -0.5794587754303827 0.10300302062680325
Ni 2.1896260756867343 6.431933126792586 9.153973727020325 -1.3010926137013399 0.20901731727610454 -0.005551783056164632
Ni 9.11402317314849 4.820913468855796 1.2631506428946835 0.3130117552818996 0.8914726855753873 0.4589457709442741
Ni 6.1962740754352446 1.885372112765072 7.052524923684742 1.2626337955045095 0.665220749588551 0.3190901002654956
Ni 3.347491505482692 4.325911631479702 0.4171554952840643 -0.04800198180057539 0.7922335028663904 0.032276086424886344
Ni 6.052476735058929 5.653641918255964 5.0387494448827885 -1.6098972728804273 -0.38752052512375196 -1.6238771320992873
Ni 5.107275471493637 2.697725118032497 9.46013471549605 1.5244877969656712 -0.3853402296429815 0.07082592167362642
P 0.3468266769303329 5.725898608925991 12.552751893126109 0.25217636916208186 -0.6355980416261118 -1.1027011515701977
P 4.18002961487984 6.215280884308181 12.780578000168719 -1.4894783707700219 -0.7526097178271812 -0.707295310161098
P 2.213617979876845 8.574889646500898 1.2834291042639825 0.46221981370985554 -0.37471026073296115 1.2984423205626865
P 6.405910929236934 7.965339382545801 5.903467704123748 -0.7986419774958956 -0.6078033880113468 0.2670877390562755
P 4.6231230142896464 1.1298582579231042 12.751101584748751 0.295906977280813 -0.7028874109013894 -0.5404289152214306
P 4.177074812928206 6.11881475801602 8.107129089080747 -0.7437021309249062 0.3084069095200366 -0.44263494959939254
P 4.456258278309313 1.021572923824406 3.6856640569424095 0.50873621210384 -0.6065301777258779 -0.7988420093218436
P 0.3024121967972082 5.45139206933336 3.7255547896704404 -0.5021652437545416 -0.3724394624209134 0.37145755812361836
Ni 1.3951740945128 1.1189363672736583 2.679280265358951 0.033505587956613264 -0.39075882955539154 -1.2055087683567431
Ni 1.9722034093805847 6.589063331189927 4.911317719242273 -0.795001809640147 -2.294269141476133 -0.5418389081950797
Ni 5.867611273078762 5.445618422575105 9.429000529287878 0.07736423701277644 1.98051973669726 -0.9611362115097963
Ni 8.60614166223475 2.250888365229976 10.116672675148902 -0.03623609951389888 1.832535009153444 0.48169489171533175
Ni 2.1237865622613605 5.195294127175603 6.987455834081112 2.188559520551444 0.275096468293365 0.5812618900773925
Ni 0.4446197449578289 0.2518134793278868 9.246728223253609 0.6057146238031181 -1.374579627146897 0.025430267147646526
Ni 1.3858927534131877 1.2319711376381735 11.439976197283514 0.31461792342675493 -0.014559900092045892 0.2016318234453108
Ni 4.14452667241189 6.837946480852281 1.6256042340729084 0.30975802423129234 0.18053875022043747 0.2871066053803636
Ni 5.535377329713249 8.029746814043696 8.121111828254937 1.910046827487678 -1.4411701705829374 0.12335355925869726
Ni 5.442618301575132 2.69974634758837 4.626780261490519 -0.3636401189617286 0.8119062987049696 0.601373573225603
Ni 0.7581033852639983 7.401914845989069 7.0213236652850295 0.16534121654439266 0.36326370945891634 -0.25816549686598117
Ni 5.085477009243082 4.084469869554439 7.477985587767219 -0.1811028502540236 1.4194795729833811 -0.6749770576443666
Ni 8.263665613944859 7.198096957993972 9.005940868386347 -1.1539815470117287 1.3522359693443744 0.3128469475692612
Ni 4.7480041838897025 0.49672305483197027 10.595024294165633 -0.08197602475317495 -1.2768787354592979 0.43492086878458647
Ni 7.978744757044167 7.009624099766105 4.824533554437032 1.8127562838646198 0.7402591666816284 -0.19495749674892876
Ni 7.17557339097001 6.02223080219818 7.047789083133425 -0.13131883685236095 0.46994135072382937 0.3091813257922159
Ni 2.5486707680489786 5.171556009656185 2.6544871203942253 -1.8932091871050492 -0.2624646384619674 -0.5516643789259338
Ni 2.586584683888508 5.217763311341559 11.415447715561081 -1.4241939477399148 -0.15583636237775098 0.4027710235249192
Ni 0.9403339977737964 3.2437199485984536 3.757856394563798 0.3596898760647289 1.2964785119680962 -0.45021250483633424
Ni 3.832060897931391 2.874795703698536 2.518684966525691 -1.214767310840534 -1.3112435860924125 0.2297812892963333
Ni 1.4310214617481185 3.1928085296956 8.21888042399633 -1.5767588384552456 0.3814529787734333 0.5101294929069409
Ni 3.4366159459441046 2.4615584933337713 7.248063021548495 0.7190102846051811 -0.1623865047914429 -0.89582916277187
Ni 4.175497710046045 7.210305909616216 5.914252731247213 0.793172469740892 -1.255283268676709 -0.2858506214860755
Ni 0.6119195438022059 7.299502860554969 10.941168466227996 0.7929660101570407 -0.16666224934866136 1.1220597586024676
P 0.05655635956382834 5.603890666990562 8.018872055204522 1.45124478121012 -0.9569761665948358 -0.7701731806322414
P 8.71532431349054 1.7541009573493656 7.9370349177158515 -1.069720582879119 0.7908715895218573 0.23689810284677268
P 1.8038522086147672 3.2721440557160157 10.44252025822263 0.17647692144623803 0.17607222980865161 -0.10889547485183826
P 4.045731147035158 6.103750706348485 3.859592219796695 1.084390526186468 1.2179763046961347 0.49569531975948183
P 6.969072615313307 3.9903965890145208 10.534545117777673 0.5590059068926695 -0.7571410300386315 -0.726188290410859
P 6.49878778690073 7.944501684120011 10.274602307558924 -1.5920846701790388 -1.4248891740347267 0.15494238980857186
P 2.354795879259228 8.470266091507908 5.612920034181416 -0.1871598550813809 1.5240080291157752 1.4700819685212811
P 6.964993900962892 3.9749609211506156 1.5664655951347835 -0.2942193051657449 0.26498406244971134 -0.28420357280095565
Ni 5.15645570274998 3.02243609937391 0.3566881018486709 1.6787388171341735 -0.24212361291177012 0.6085760045113132
Ni 1.5057978915057364 0.8121807928837409 7.0612270873465945 -0.07362765278847966 0.5735285259888767 -0.28094829908845165
Ni 6.915985882090231 0.7421701142493419 9.32477034363446 -0.3518773219988456 0.5583096521565933 -1.0537164941413788
Ni 2.81787497898607 1.4830205378110823 9.420841287825112 -0.6227805781464694 -0.5297156425689845 -0.24756715252484462
Ni 6.14502729557469 1.7125161985944624 2.4696941688914 1.2654776927112075 1.1583531937168632 0.40214110325040414
Ni 4.055936996720865 6.889873046437906 10.559710785319735 1.1481870518171386 1.031579038812391 -0.028157436270822477
Ni 8.074041651889209 7.32266995806533 -0.05168728101039897 -0.04979301226272716 0.21457244276637885 0.8845062815598831
Ni 7.488519547362892 4.000502736793884 8.334929817456286 0.7737691255136158 -1.7955280929117916 -0.6999774363434461
Ni 2.896612293568425 8.339783487533282 12.434208139245634 0.6263114741178633 0.16297477319474513 0.13711667448106063
Ni -0.04217118724039619 4.899487634864134 10.038855337247806 1.7063203262968678 -0.879167642955789 0.6683886057935715
Ni 8.840631482144971 2.4163935297601697 5.792684384080663 -0.9584902892465169 -0.823654440379833 0.3556681564998455
Ni 3.7838414304998116 2.809327806469533 11.49965957118266 -1.0305817078961284 -0.41605565644896736 0.27211116041279587
Ni 1.281813027000251 3.3688005220111963 12.721267148846911 -1.1737993530686042 0.8237092048771685 -1.0896463752687686
Ni 3.2549046897282596 8.25930592149475 7.8705074611367065 -1.7364541695677707 0.4410148974974663 0.4530342905558456
Ni 5.813935392227294 7.956946294793613 3.591224598491922 -1.1360630148600952 -0.4035040450362018 0.013662070868124859
Ni 3.081749669838619 8.18799186703015 3.5085526841328667 0.5879462440761036 0.9533123445900034 -0.6849094862667301
Ni 3.578228908190532 4.3546892271743 9.300839166969121 -1.325512694416917 0.13656363019106804 0.4215668160751836
Ni 7.540518623425856 6.212869910936602 11.262625539898744 -1.634778095282507 -0.5287951876372441 0.09132172763413306
Ni 0.3822498578732083 9.13677333541414 0.24344305109986739 0.4616641983167017 0.6365946012114263 0.43944498190718506
Ni 4.675901577984023 0.13427852746341293 1.4914344723255064 -1.161105816761336 -0.1971604179375185 0.23758510161146826
Ni 6.1899566000969335 5.783064056499482 0.4151732401097624 0.1586200957704752 -0.36539618242088684 0.1367603195829064
Ni 7.965266872068461 8.975872586195083 11.365674711152476 0.7496192677402895 0.718706123101201 0.9968706887969283
Ni 0.17975075418474543 4.725680020678428 5.959555464727762 -1.7380053161049744 0.8236359284370719 -1.2613443872691246
Ni 7.976687272249624 8.912289961376938 2.5749449395133888 1.282163895117637 0.0003509555815155246 0.3334461118768515
P 8.379627994832006 1.7860508864276203 3.4429134809011464 -0.22396108307013043 -0.7522842161669624 1.1927764083917392
P 1.7134407071805564 3.2980121685073183 1.5656036268353957 1.2281226491015171 -0.35760831094535184 1.3318895444775385
P 4.647658747059813 0.8766290115251397 8.320244633032857 0.2726788599908078 1.133990962822415 -0.3843670670964348
P 8.59722287352184 1.8557153275327174 12.488398844486222 -0.9144051260018445 -0.8029202931562752 -0.2007627905767962
P 6.593830895075079 7.858513321803585 1.4603791412614424 -1.703047826193183 -0.7031146964208471 -0.8157063891773499
P 1.8749215402183406 3.207229050876736 5.851784048637216 0.06383972016378038 0.6139812346872845 0.7485805420631301
P 6.668507622926353 3.859778027894881 6.085978388352276 1.3449695175899483 0.20627035065858668 -0.34703953429057005
P 2.2959354992778978 8.538081515440815 10.338636310098515 0.7824136885624912 -0.2750537879808876 -1.0588283614466474
