# total energy = -381160.0223675445 ev
CRYSTAL
PRIMVEC
9.33280216637655 0.00000000000000 0.00000000000000
0.00000000000000 9.33280216637655 0.00000000000000
0.00000000000000 0.00000000000000 13.65949934460003
PRIMCOORD
 96 1
Ni 2.5272761404707507 4.694212792459159 9.607517780252875 -0.878351831922713 -0.5062183307779927 -2.0917253477395135
Ni 0.6620185827427999 5.93691272121797 10.403566600291521 -0.11531371967335625 0.5529239623646478 0.5153334057053834
Ni 1.7616690542713098 1.7688739774805398 4.685112377146568 -0.7189663187411232 0.6784400764923025 0.19350070969774416
Ni 5.077781625329808 2.8543255239176992 2.375933555308167 0.34600055150309444 0.10861496749694198 2.3913601674938754
Ni 4.310802617223946 3.3698228470547655 0.11251719521087691 -0.1517321104013903 1.607977430149895 -0.21989694030308582
Ni 8.694149105050672 0.8854085334372658 4.445005511358356 1.7001630484462202 -3.171819817653789 -0.03077533350964377
Ni 0.9881757503104711 2.832776083904601 12.47486536291907 1.3564052702307157 -1.6570955278327846 0.8859710390308678
Ni 7.747578986432878 2.6484625755379145 2.408989407011239 -2.684740778808408 0.9584419525070847 3.095116097043147
Ni 2.061755972496153 0.30653121806418715 13.442340958206131 -4.315837054363954 -0.4595021576683764 -0.3078142702413602
Ni 6.068103920119713 4.435712840322824 12.127477003889382 -1.565128967525801 -1.3041661104203408 2.4723337191244648
Ni 7.903268790806419 3.1025033969485833 12.171515697085486 1.0313813209792884 -0.944156132012032 0.4540002540135407
Ni 2.11639952870087 4.789398040918922 6.8865188003538504 0.48130511247608077 -0.7740568319573637 0.606446102652504
Ni 2.233703518100884 6.804228684534235 8.152727124283295 0.18753240792945122 0.1902138114163563 0.12290464464673671
Ni 2.6544075704657373 0.5893953833223042 10.741734150861728 0.7557873442242146 -1.0728992377174167 1.2170386233732136
Ni 5.876734813377149 8.915952479390773 1.911879570541044 -1.8528276979642089 -0.8036869961189708 -0.05006246387402991
Ni 7.4267452491742025 7.887104377596074 5.165886076848064 -0.13020554918352414 0.5454273968772865 0.4714485313969752
Ni 3.537243983648517 8.576107824285982 0.8941123046612656 1.101426141512516 -0.98975978878376 -0.2450551847362683
Ni 4.534397889564271 3.5966846001246635 8.781131753758372 -1.2998739108028905 -1.8126675808055557 0.23568197105148442
Ni 7.7389554773068046 5.298129082544729 2.2793063889263507 0.10602740927542385 -0.8071929523897002 -0.9306095036758488
Ni 0.39977337712995714 3.6145102521060486 10.467875206334941 -0.3494322028924627 -0.15400213738248963 -1.7640619039827103
Ni 3.0759329094140266 8.1117822549782 3.1294593292092294 2.1085858709402783 0.7428032732597207 0.5362786404984828
Ni 1.728061633965044 6.8582749414055435 13.43869369915151 1.070132216495241 0.7131263150205783 0.006807766950452792
Ni 3.278958685960125 4.9689238218162615 2.5921633802434085 -2.203141789240993 -0.7004548902004969 -2.355305330752847
Ni 8.951053148030557 3.1444356767142176 0.7819917535389798 1.6356224455606734 0.6731006665572601 -2.48311409756942
P 8.396619374596979 8.509228964548493 8.570475478227989 -0.3804872724260544 0.22842837481286468 0.768621262764089
Ni 3.6553785924340514 8.117437933041403 12.262856764366646 0.144297508500216 0.21858747746304288 -0.8629473244421847
P 4.8913215724836885 2.250623888280073 10.792820976192044 1.2333473878355663 1.7780749304323509 -1.374975577033735
Ni 7.056774308940662 1.060766284923671 5.720967546746307 -3.032028938774675 -1.2641862275932938 3.6730396667759253
P 0.020142053458756526 2.710264390941439 3.890007103398666 1.197222359978235 2.6522368926434323 0.1661462289441913
P 4.46294595680538 3.183801435906617 4.619956352673877 -0.5457775811278536 1.9781664059737352 -3.3578522439989458
P 4.494705482298916 7.025565418770111 1.8785362685337696 1.221639869590651 -1.6258648519532775 0.5292669850673402
Ni 7.609789496457398 -0.14728468281624515 11.107221612973877 1.147883404533791 1.2212274646435808 0.020152820798791098
Ni 4.321535339621116 5.799347218492518 13.50664956424955 -0.19886943020882525 2.207524234579405 -1.182676600953576
Ni 2.099815139396723 9.09912738590315 8.869317400654761 -1.5106694030253403 -0.3301540713891411 -2.129645005603422
Ni 1.033262517180665 8.167601744245562 1.8553283895902566 1.011046208966362 0.5479298515841661 0.5307237721185247
Ni 8.166752459255875 7.112929779083068 12.06135130128011 -1.0494875436616957 -1.7937283206988914 -1.1294354822412485
Ni 1.6282566484734577 6.621641744553179 3.8863869094700902 0.4199228527138575 -2.605825909479061 0.41322024388270123
Ni 5.70815640932492 6.410776414256106 11.49849840708611 -0.2489979714341002 2.495606830719792 0.051813642237181726
Ni 2.973710728182556 2.8231166337471487 10.773097032266673 -2.0210369800850163 1.3088925693617328 -0.22168154300733434
Ni 9.277747884998297 5.088047707622752 12.926871633475319 0.6502556436382866 -0.9603733652018429 -1.642111909939759
Ni 6.4916358115161685 7.64826863945177 9.707587817323661 0.6787159558615085 1.0678717025958382 1.0266049826365673
Ni 2.6318968518379364 2.430000344344062 8.100315041056982 -1.568277283346796 0.373646338244821 0.4422616254203738
Ni 7.780075803291089 3.162830629622757 5.226889004393156 -2.2439400542042773 0.21375123241666416 -1.374595567986497
Ni 0.2829808252841732 1.1929560936484545 2.371193425129452 0.9418092290464103 -0.879241433616518 -1.6735176779445502
Ni 7.568146533556382 0.9726739660481253 0.8296067764938633 -0.5336499446263842 -0.12711456896302623 -1.2681223294229063
Ni 0.5846365875394203 6.615892738469132 6.255108075327359 0.21103126238233977 0.2715843413750484 0.2542929012844524
Ni 4.076969260996932 8.127545357698912 9.242536156013706 0.6013280646996483 -1.7417506420800197 0.24633662255185315
Ni 9.151923047295139 4.319146142287485 6.34643514340539 0.971630426172901 1.6201624022518615 0.7130304128726623
Ni 2.408460237133048 0.6219192653065598 6.668690266421535 1.1668581458640808 -0.37030544679704613 0.05511571002722121
Ni 6.540997001741061 6.795987820293626 7.746971421017177 0.7798526127035343 0.8564432047750798 -1.4284753487240882
Ni 6.596480510133383 0.9423890232839398 3.476287720113848 -1.048096319741124 0.16599119142356575 0.16406646359702712
Ni 6.16570636431936 2.194095106054289 7.961179761020917 2.523628512743699 1.277383185899542 -0.6958909249788983
Ni 8.260080480100822 2.1442952741314247 8.701620013119308 0.7238920381775146 -0.11752126884763632 0.38271976130099894
Ni 8.66804525762034 5.255142196143546 8.601359586886 -0.9936688940301789 0.030173695369902876 -0.0026235536657761268
Ni 6.601118912769376 7.011164905153737 0.8589752380933514 0.15546175264715162 -0.9262226874620629 -0.728305593864178
Ni 4.632840285951522 1.3278990789881637 0.9643920374783447 -0.28336127940531847 -1.9299533366036181 -0.23286224221450216
P 8.860515635008875 1.135559360828812 12.498209500773017 0.4015363797868698 -0.5326387297530505 -0.24065911255110167
Ni 4.654548383600057 2.228402486516891 6.3019055448196415 -0.9658912096962784 -1.5095548298049228 1.3593388989377428
P 1.603832705418335 4.936203017708023 0.8634260514074469 0.6967648429434193 -0.0052123974388748944 -0.8258391067359778
Ni 3.7801768219079146 0.9715260313917324 4.250303660991418 0.9041140284884817 0.9589754564130516 -1.1970801779734157
P 5.916809865527969 8.953199692509992 7.2739840780947755 0.12501783433499758 -0.03581058194070606 -0.974675897867444
P 6.812712201629041 3.6350704150981907 0.5812543800639994 -0.7121297554352639 -0.2973570794637782 -0.47521828285205253
P 9.229095987731824 7.7858061437709685 4.026997705515713 -1.7521214437913823 -0.10183959644632137 -0.8475654426694759
Ni 5.25699942375836 0.27478009209252763 10.596315095182174 0.0530184611785603 -1.5833287783632797 0.8074104677171449
Ni 4.946917074501023 8.51462332415333 4.97401113223252 0.41251370473397986 -0.9377116619382689 1.2119036161394934
Ni 8.710145527823496 5.652215593630459 4.434338118575779 -0.3296987290192773 0.025547509451801165 -0.837916606725802
Ni 6.154553665828388 6.61213161922908 3.4450349657735004 -0.15273895439934984 2.2682369790784294 -0.33226906084961483
Ni 9.50125916211986 8.94989588057208 6.789140343404232 -0.67069719932209 -0.12559684676691918 0.5641486274358736
Ni 3.4943784236744326 1.5681720686534806 12.64362855645257 1.392378345891215 1.2127050289948664 -0.7353445029888304
Ni 9.004362113537193 8.469153912397672 13.57587562371129 0.22524740598172174 3.083320904180432 -0.5654328934649359
Ni 1.8901817389748021 4.187301647239828 4.521635282713725 0.48793444486714027 0.10236538704280435 0.9243051587243759
Ni 0.6433781771394387 4.368516665314463 2.621080134222007 -0.2943820559958543 0.8652500044334325 0.32770483851770016
Ni 5.897518963619318 1.8367607798431544 12.542726033435848 0.9811679333496909 -0.5552271565765277 1.028885294030312
Ni -0.010208218920020336 1.9544287485244638 6.587648879520825 0.9745748535132055 -0.29258845443054127 0.11110199558485383
Ni 6.658739632839047 3.6897139713029072 10.058813824570493 0.08902753228331764 -0.7570032189091865 -1.612324137154365
Ni 0.4296766082888867 1.0385542159625736 10.087799641284516 -0.4099158620998166 -0.45079383126110106 0.9054875117972405
Ni 4.53572314746027 0.8931930236559429 8.36453133447007 -2.111569893269267 -0.9725665648339249 0.3411733053177802
Ni 6.252249438048879 4.436972768604231 3.798788295824814 -0.5691987882652714 -2.1742271630891716 0.9352182060924539
Ni 1.9823991563716945 2.6706279804885895 1.2887955715343393 0.9138076016271617 0.3965564100737751 -0.5842281717945681
Ni 5.153078672547513 5.608603409489616 9.306162534224748 0.1885143122267463 1.865845964600748 0.3681575472161079
Ni 1.1063663559085124 7.859245963373858 11.434954157533411 0.7406312053090665 1.8351639621358586 -0.12284705193592392
Ni 6.795978487491542 5.66197770461084 5.782816959440462 -0.36299220096508455 -1.2802533083584853 -0.0014783843177393894
Ni 5.355339159322681 4.9588070643566695 1.5767703792139256 1.6931164260120841 0.437889207384291 0.8339506800995187
Ni 9.04187997791686 6.536890568823883 0.8501389410797517 -0.5851365425414503 -1.0642276780853477 1.9593343608688965
Ni 1.5378124634726194 8.788233082864462 4.815451491217996 -1.5070927414176754 2.4186652830667312 -1.1608870158823104
Ni 6.092247879112301 8.431430726372145 12.759980600039967 -0.38350034822076534 0.8329080977676173 0.1601956677877112
Ni 4.409067690371592 6.017865446498878 6.877776764641304 -0.7896487728583497 0.31929013209144363 -0.13034233187170455
Ni 3.4057354694759017 6.207759970512093 10.82311805159894 -0.02975640532682617 1.5713122135183777 0.8446300141902356
P 2.8448247313956836 7.716155441814385 5.78956550862776 2.6691118140218997 -2.5590007215954063 2.1480070530503776
Ni 4.175057010904971 5.609788675354347 4.396624265352335 0.5000255717037195 0.5189769159952416 2.4821661318338544
P 6.023670449395433 4.478951712380288 7.4830015135791195 0.3882486615390281 0.13784686777886582 -0.05533476801656277
Ni 2.5514854290779296 4.809818211879796 12.525938189046258 -0.8119798322553824 -1.588104088264736 -0.8806406279568898
P 2.470280718140741 0.7376609436376297 2.1589524398051236 0.3950384307673519 -0.28207212828024975 0.3270921446343657
P 7.948859528989176 5.0761017209545995 11.104284580157886 0.7718035171468127 0.9519344904058703 -0.6298655100177089
P 0.5789687768335067 3.498335531758258 8.153929189191778 1.22776449443115 -0.27947685674924766 0.6782480150861545
Ni 8.054973488689882 8.351504609320532 2.2329596937747502 0.4708021560622279 0.12696955874472973 1.033994076011787
