# total energy = -340860.3380662654 ev
CRYSTAL
PRIMVEC
9.37023305437656 0.00000000000000 0.00000000000000
0.00000000000000 9.37023305437656 0.00000000000000
0.00000000000000 0.00000000000000 13.71428323275506
PRIMCOORD
 96 1
Ni 3.4876381682286026 3.995373608427083 6.438225185591672 -0.6832801781934232 -0.08132450721210509 -0.510309727238547
Ni 7.5874898735481136 6.746183512159184 12.088728623685808 -1.9304400464320495 0.8928543964142623 1.2077777668965781
Ni 2.803311318699658 4.230219755728868 11.833876092108238 -0.4474732515283003 0.05317889801582455 2.1202555939687224
Ni 7.645322951038701 6.029716763765573 9.51817857546654 -0.2246689077704324 0.017128946370802756 0.2682282804186219
Ni 6.062090918452867 0.9780274297079791 3.442696657168921 -1.3378053957413412 0.4039519312068978 0.11105057352162809
Ni 4.769026888240827 7.430679025880421 6.394819455705145 2.203218922335832 -0.16606421075334626 0.9787600952391466
Ni 0.5001661660576996 5.695330632312375 2.3575534100057145 0.18713080161565837 -0.25121066281470283 -0.4134130766197977
Ni 8.045244491430521 5.733373777907286 5.017493606093538 -1.5153051020251387 0.17916166736725275 1.1928885084895715
Ni 5.889078938092171 7.089743101626523 10.409950200212736 -2.5885588948684966 0.43508104851153456 0.5752035996984546
Ni 4.667031903068264 8.086810844597768 3.8424682738342577 0.9187019536049854 0.31856276700711583 -0.16900478143890893
Ni 5.391425868499632 1.5715567223860165 0.008976683123134092 -0.7334799389762658 -0.27425957421436636 -0.8670083818854359
Ni 5.101370308920702 7.010611484742529 1.7100065986760662 -0.4377783928380396 0.7147931612000399 -0.3261940583001286
Ni 9.093932847476239 4.3405823588857295 9.659408599859548 -0.1752134813527821 -0.8265764991226344 0.3406899379234584
Ni 8.19659249331451 2.1805281588917413 10.521049303675943 -0.21209698464269278 -0.17658465066869589 0.2476062332928961
Ni 7.953378728028426 0.2636568024152507 4.118248283582192 2.390674197170444 -0.7684227736000379 0.687992496067428
Ni 1.1492871765154131 2.337723186108545 9.780917095057086 0.3549366776504597 -0.2998687901420384 0.5115037475466482
Ni 3.0755540655258984 7.16025410423778 10.827824169827533 0.72260725792782 -0.17542534025327208 -1.2704877443312892
Ni 1.9517820332112097 5.19782748644632 9.93280294830983 -4.139664551532013 0.2718676769434221 -0.6962724766880332
Ni 7.172276113055088 8.985181924379063 9.456272257732081 -1.628417700282118 0.7287606791237256 1.6673462590265158
Ni 7.08236872833017 0.6998758140117514 7.32264586262378 0.25211646245842384 1.0093909327511261 -0.6365773748202457
Ni 2.772764359428868 1.715127430958731 5.926915001539877 1.1453056165042856 -0.26763564113994553 1.6867346908554564
Ni 0.321458958137252 8.749886005897832 6.877232778500746 1.1138533115322753 1.3357521127567382 -2.3123416827071273
Ni 8.79995116031005 7.701281981948259 8.548675246632374 -0.2112148391480556 -2.9049297964306167 -0.23392462204074552
Ni 6.304939244655651 4.197920562904814 5.9192904430249556 -1.1398211963509466 -0.16919504307284408 1.1996366258466824
P 9.115137684540594 1.552413336560794 6.409904593659146 -0.23786535185604837 -0.9152795581869978 1.1239970848344967
P 8.351772920456707 0.6425908951461142 1.8270164450558415 -0.560116623458345 -0.10595310439406269 -0.39459748657519145
P 2.8195405620913787 7.155456544990344 0.6658009620521719 -0.8142156635644364 -0.5912174586282076 1.0582609189789516
P 6.485878442054105 6.250713706833545 7.664843957250001 0.3514793152294785 1.0599025683474328 -0.9562418595319725
P 5.168686062111301 4.911501279563638 2.1620294450903934 0.11343681436561755 -1.240925200182824 0.24437461372947591
P 3.65189835105589 1.438227678378631 12.177432870505706 0.21091144897502384 -0.546254263653956 0.9075024853447403
P 2.082712297594876 0.7549409247021582 8.073859308676269 -0.08758154386541045 -0.7066381361930734 0.09884400415310719
P 1.8666722077337286 2.7752381009158276 1.8912409584110328 -0.0551704745245566 0.571207591165184 0.5770090283383095
Ni 3.2110195226356577 0.203248784922327 9.98632946675721 -0.11173577251411079 0.5120539636231632 0.5227770064676223
Ni 4.445753853013137 4.1633444034848095 13.586699033021096 -0.7240938697756755 -0.8466509012750063 0.5922181319785801
Ni 7.54463979847286 8.215192405631234 6.22716256344974 -1.1127407951943868 -2.3705177768272274 -0.7393109438357461
Ni 2.8973603463686532 5.510015536147216 2.3275199394981265 2.203809247621663 0.09072060371502441 0.12683483293907835
Ni 8.854579618147076 2.8810748815795013 3.1945504012815653 -0.5704691703372626 0.35714885481043007 -1.167367995620964
Ni 6.140210550183107 1.460097801979252 11.640751843839926 -0.22184275117554697 0.26747314742015227 -2.246381059545602
Ni 8.886653925381408 3.617116046511971 0.7153798013766132 -0.1523041808547764 0.7382246527501028 0.021135753537350695
Ni 0.6979118131948318 3.6348538974014213 7.424858237199741 1.5622264491670257 -1.1553069506913718 0.6097065185713306
Ni 7.372836578156927 2.82400079295423 8.323801838211542 0.10004368088816318 0.1791560109402979 -0.09027143199274776
Ni 6.201257617560161 4.005540311129171 10.07669318182461 -0.05908575041856276 -0.128591667729185 0.41713449133544295
Ni 0.5335944719468236 8.24294703549629 10.67683036274736 -0.14883961934494366 -0.11531706210746592 1.2902304741758555
Ni 0.9771372575819899 0.7861625407421193 2.6757796377906895 0.37093228174776766 -0.6586798631462398 -2.196191840285721
Ni 4.629063719336595 2.018507461728786 2.038065948871706 -2.1247198003876635 2.0859239105663883 0.7823316703716462
Ni 4.7081765957547805 9.35749875863231 7.983865717808623 -1.033020399244608 -1.5071449348118495 -1.3444257292713362
Ni 7.4144966336532265 5.85167296833481 2.835318160257071 -0.8556502765601391 -0.1073389289979958 -1.712049515471161
Ni 2.604812304836952 8.297809749155945 6.5379413301217015 0.32724306838993317 0.5699312955559217 -0.4994193055782882
Ni 2.3564823923846556 9.262287822083078 0.8808740438775081 0.7402553100268865 0.12947921254046088 1.3528031547017543
Ni 3.851418720305257 2.744775473741184 10.521666802024393 1.0505324399864424 -1.222672167509907 -1.4593501839260739
Ni 4.327520254215949 8.856416183796487 12.982393035478847 2.794659552718439 2.0811714834830677 0.42709494498226447
Ni 8.857465649881863 8.71153364261705 12.948148582303684 -0.003160914226484879 1.7659557785713136 -1.1031924893843192
Ni 2.2919589685997903 3.9311219213964668 3.9781707978365173 0.9803932599671955 -1.1050498543080323 -0.15934231864848042
Ni 4.573741864264587 5.432476858857097 7.892062734966993 0.15518664460889403 -0.011570735556734912 0.1683092980337811
Ni 8.069119844872844 4.964433725244833 7.277237713965421 1.0473954370193574 0.9363564334619552 1.4332681421270412
Ni 6.3839584187447835 5.338896342833358 0.37519162170854653 1.6108907471419482 0.8356640632461996 0.5902741208783319
P 1.6274501616652386 9.195168843783485 4.756566352523557 -0.14807394482351274 -1.7265289400342587 -0.5078900620534607
P 4.297713543344666 2.8342799384511803 4.370316918963643 -0.7246543702648358 -0.19589003586552714 0.43313575185970565
P 0.5878134506058954 1.1390080310184632 11.614666989478568 -0.45238791522109834 -0.8648730807099879 -0.13020657762478866
P -0.2844456011386174 5.630816578760415 11.539115738587629 3.3364005018830736 -2.6038289336536895 -1.4362256820934682
P 5.577387510735247 1.3804133413538533 9.090087303891966 1.8029436686495723 2.545178985220965 2.227019624299855
P 5.016054338319306 9.304022839442617 1.771282299736007 -0.34021325539735603 -0.6618459195790473 -0.6378973791832498
P 2.6861084455220365 3.2575989504071607 8.699271755837371 1.2928519709591024 2.059659320442904 -1.641639855399347
P 6.975979103925092 7.594751804049604 4.079162231064938 -0.0694012734119579 0.3693957904985832 1.079785423314289
Ni 9.436667856447926 7.295279160400997 4.12750513666919 0.6855466056300967 1.6870555645299847 0.5270866895865697
Ni 4.972679530201365 0.3386102324468393 5.5472631489684785 0.6876711081722673 0.6724923435493 0.9566897457026685
Ni 5.1452136286839 5.847334550499725 4.478111141281203 0.9045876256907905 -1.2134406216093103 -1.033109873634621
Ni 1.1726003159834275 1.8185279510670658 0.07993933096041916 0.21138453195670046 -0.20156857430754316 -0.6560575950320444
Ni 6.912158447608113 2.267277775127624 1.519652191254517 1.8495019760250857 0.5486471893661647 0.12041016035965715
Ni 0.7564729577821503 7.022108760517148 13.411814880125952 0.1913571809921801 -3.2625293656252206 0.34018085949752386
Ni 2.325635585660901 7.647496845072697 2.9552908742814545 -0.08130805215187287 1.0644148543954894 0.5193314711211829
Ni 4.259014481446395 6.66931012140533 12.907938101837813 0.23784324036886131 -1.8063652927366116 -0.3628770155434589
Ni 8.261181508729711 1.5988053596741938 12.952893668246853 -1.1882222133621536 1.102603706760385 0.8631365576348553
Ni 7.086032489396084 8.060077570119374 0.48632726908008295 -1.1159112225025685 0.3249918104619112 0.5905410013864734
Ni 5.02561197588256 2.2799650704811976 7.100350205275154 0.6366930744625036 0.1768924117171018 -0.015081062702838544
Ni 1.0429631437406715 6.00244001577868 5.955948668196486 1.0164414118400042 -0.0432806650655061 -0.08199170848245879
Ni 7.482027902200645 4.086939524376213 12.269332366746259 0.2610633872390665 -0.432020664418656 -0.16246055256248795
Ni 0.06301106819397444 8.047184129641886 1.894175715356926 -0.7339036567772457 0.5759939568102339 -1.06613157997628
Ni 6.360204878330228 3.5079622033998743 3.6703127327610914 -0.5043303697266605 0.4688074942297023 -0.8541333256949806
Ni 0.9860858300064085 1.7936687231697017 4.5534984130963 -1.0685746422001339 1.8495336005939698 2.4127933976669866
Ni 3.399492387289853 0.7538099375905065 3.791189674260822 -0.7115589705334584 0.1250728559426491 -0.7784130520435303
Ni 1.8992056563804107 7.838837000995867 8.79036166395492 -0.7927760056334218 -0.3518451832093295 -0.3299051886031286
Ni 3.9659323366391006 5.106102276537802 10.061772022946448 4.450705299130471 -0.03137080100179759 0.4758613157526901
Ni 1.7521211104682646 4.723365743294029 0.5251200333074056 -0.11527695289814986 -1.0904598723089995 -1.1739875578200103
Ni 2.273780716763798 8.312530385049937 12.513652756538441 -1.286784938829416 1.6135718935185372 -1.5438471753288896
Ni -0.05796332372796992 0.3997875460612758 9.020116963719335 0.7311631179176311 2.294337018599591 -0.18776714964807661
Ni 8.665909978601874 3.468316747978183 5.644935645701896 -0.910709165207496 -0.431203053613367 -1.5264539195531066
Ni 0.5670874324429933 3.4848458388228685 12.15573703323712 -0.4387266156839218 0.9403061621383225 -0.48189312376906696
P 8.449701224548432 6.246984354137296 0.7866741554587406 -1.3257731471671552 -0.3617120487010803 0.08414500738003572
P 4.001295595623138 7.462472226127597 8.674187642350283 0.09036476303750245 -0.9974684702819273 0.825859418450952
P 5.545500608159021 5.194463572833371 11.996487113944216 0.5061859348781604 -0.5772558542417929 -1.5602428430780935
P 6.736016809457095 2.0915671676902434 5.432543387510722 -0.1787801156581179 -0.9982171755224938 0.14496239577772455
P 0.37009890012459723 4.705908999391733 4.196995720917076 -0.8120477093788403 0.17940746482947167 0.22321777714620267
P 0.8572544977934955 5.691395134492212 8.071253446905347 -0.6861549286380569 1.149825101641194 0.9479503089471415
P 6.6417991175958075 8.774913897987489 11.79904225128334 0.21860367541295903 -0.32567315279965203 0.3736715350558016
P 3.31083124354132 6.711532390875938 5.066069830497128 -2.0558471457856657 -0.41505703998112387 -0.613670388315085
