# total energy = -340864.1383690877 ev
CRYSTAL
PRIMVEC
9.29280788305970 0.00000000000000 0.00000000000000
0.00000000000000 9.29280788305970 0.00000000000000
0.00000000000000 0.00000000000000 13.60096366827563
PRIMCOORD
 96 1
Ni 0.04020997991069461 4.2169554318776 4.197950710381098 2.2772528094237945 -0.22746369690675017 -2.158586114117805
Ni 6.9392928076155 7.579985450310865 6.042839787962868 -1.5109103153915528 -0.14601551963258727 2.4366470643561327
Ni 0.8436252651353419 1.7113913867097874 6.356954352313066 1.4594419723089318 0.9549362533466715 -1.359535331219265
Ni 7.806544107630654 0.6947870069334375 10.004800570256585 -0.7110478352249948 -0.6739768985146263 -0.35486005877625343
Ni 8.544495278115557 1.4802234966569938 7.775739378625348 -1.2156088329052226 -0.3023056817183052 1.766129070924384
Ni 8.642292788765001 6.089047346111224 11.710402537626331 1.8574024618190847 1.5604361900358223 0.6261734058781022
Ni 5.096250210969311 8.944225411200495 4.454505622416334 -0.10103227005367761 0.21923745234221598 1.797054813968963
Ni 5.348224697976125 4.347314941511809 5.710786387185674 -0.26778630778519685 0.9719417867657326 1.7742532426934152
Ni 4.436117014085554 6.5595422115788615 5.767706694315092 0.37209956258299137 0.8719400148590983 -1.3018037808357517
Ni 0.30850449620319426 2.3076272362707018 13.186705398617892 -1.6738827745934526 1.1842115495408638 2.1328987366540297
Ni 5.520299622405599 0.3363736271835902 8.899164585550633 1.3783306095488972 -1.061444458913256 0.04895380419088343
Ni 0.18954354477523822 8.32503632605386 9.106239941765555 1.8643930342043054 0.152399311671744 0.5034744494842683
Ni 2.54222417244946 9.333603356252034 11.358368670520044 -0.9123670125258933 0.39216625142587946 0.20230673802514837
Ni 2.5248187431976152 2.923814744456128 0.9762717348009868 -0.42705380733168385 -0.8524361404982159 -0.24354954672501927
Ni 3.2836880243316906 3.5629461954193458 10.792405072070078 -1.5802480825554268 0.8945389832055369 -0.07440952525982669
Ni 1.7588032927657995 -0.06921097489689654 4.935871214599833 0.7855578906184276 0.9027374598559291 -0.08866192141378279
Ni 3.1980083352222373 3.4991975330233753 6.119835348062257 -1.0451817171974902 0.3115413413839602 -1.9655841984333502
Ni 3.853662398684002 5.284039273607471 12.148557502218718 0.7770650226560682 0.8521312076632873 0.5296799042350426
Ni 7.5951884840834305 5.145446336147776 5.182647304850917 -1.1838785916814771 0.7299076482439751 0.8611092427921815
Ni 3.332150017683729 1.2787461279387664 6.682302992169166 -0.4628332789241384 -0.4977745708860137 -1.2735890089644324
Ni 8.507797979602191 6.524192370215266 0.7636848142031117 0.8105685537301525 -1.1255106932655454 -0.9774359771110845
Ni 1.2529585859345655 0.25999418024992227 -0.0286302119498172 1.5410338742498104 -0.23412105432226776 0.43229165869185554
Ni 1.7086593011785318 1.6242062627157647 9.04897951786592 -1.1313656093844258 -0.4892120260279833 -0.8291080072952365
Ni 7.920799181123141 6.265341205340664 9.338217235389003 -0.2897509849817461 1.290245643684507 -0.9438288305796003
P 0.0794795276589297 8.143138903642965 11.367277685482001 0.9736109469380395 0.7568283838942192 -0.4135179776287781
P 3.5605765293973377 1.9131568324738277 4.429357425597678 -1.9592862812397809 -1.326936057127005 -0.27993579866353724
P 1.7298561960655885 6.098405203696172 11.227132849098089 0.2671957253890495 -0.4707872436638924 -0.4702359991461127
P 5.798898004130264 4.087395103725322 11.081521053809288 -2.4193517676107947 -0.0324645482866086 0.9137127279205103
P 2.106326430903134 2.0906215855023773 12.25280886797516 2.2742836994931412 0.26375636069019737 -0.6800709272275062
P 7.575199654227202 8.25412290874429 8.313942571947692 -1.4970158167976477 0.30380489197165095 -0.5003739561820738
P 2.0563961738982433 9.17653631662861 7.580266093110334 -1.677004093831254 0.7740190367408928 -0.07516028738292216
P 0.6769262300930503 5.632556742193255 2.391498544957086 -2.5827278900090165 -1.4206437684948114 0.6912318289403322
Ni 9.033408488899347 8.751817823021403 6.45114067780113 1.7885202941353906 -1.7096223940869073 1.10976397195425
Ni 1.1935310792257852 7.561028122134803 3.3853067376017223 -0.41609088056227694 -0.530034459360984 0.463784329983498
Ni 7.5725047399276635 5.212085061809802 2.8237228395289034 0.012702020947700706 0.16082404540032946 -1.5317686468978007
Ni 4.518060994407372 2.0973309928274344 11.849961927110687 1.593652785997107 -0.7787899757669748 -0.2767054646516976
Ni 2.0166880056157384 2.947613625563428 3.4314009234933396 -0.09638345842775659 1.3852401921845368 0.8921771678415797
Ni 1.2517505209037378 5.717437249820776 8.995596053434449 -0.6722578589409907 0.3556735558164842 0.4334543115413889
Ni 7.142545102648251 0.14676224491046708 2.9949865018261366 -1.273511875869594 0.8564761148955443 2.3269776874527475
Ni 5.475610509072912 2.221854619081954 4.844146553932277 2.468677096208484 -0.8168908964037546 0.45513488183861617
Ni 9.01137524129864 9.223074698739255 1.9714729193542464 2.9146066573987484 -0.2618136351415297 -1.3691548565869
Ni 7.528577636845192 0.7196536316718307 5.437679125666517 -0.5257957386892881 1.0458635737558633 -1.3277621525727261
Ni 0.9077772353954502 3.809558732250872 10.711017730943237 0.25684934915771895 1.1275395507701163 -0.8045336603899822
Ni 4.658874912962204 2.736276587632063 7.665774794553884 1.5913691321692527 -0.3522169647264515 -0.04544321993446367
Ni 7.018597630485357 3.1377816470315247 7.06274961951972 -0.09735225009892912 0.1204988634187215 -0.29121857066620815
Ni 2.6941151180561858 3.787962246622849 8.40264799931897 -0.28754240736620157 0.1613668052776769 0.6088552263146289
Ni 6.981036100834552 5.055845082092098 12.955761465236197 -3.1571431894782207 0.3460427175949395 -0.7070451418235049
Ni 2.0989107701754395 5.3389133044308235 5.160110387060435 -1.3347995190354818 0.4421803785604772 -0.094318862589244
Ni 4.458587023658945 8.536949518076849 7.045041244729376 -0.5169897103618838 -0.1650378263713609 -0.7167212314606883
Ni 5.398935550847089 6.916562599420085 3.1727374733389135 0.40777593293867836 -0.15178250402335147 -0.40578229954741724
Ni 1.5508674225366101 4.729760451847986 12.897658183657363 0.20935541734181362 -0.27009798663750906 1.025280607398189
Ni 4.699614582924877 2.973103797713887 2.559374978764038 -0.4882386063711204 -0.2737759497097285 -0.2110091508951527
Ni 5.448977321547133 4.725411417737007 8.665935550699087 -0.06473652094643689 -0.796257536424119 0.5169740266326
Ni 6.966567198888412 2.039669119625248 12.341188117788116 0.2492165152028095 1.0879813288615197 0.0503195741901585
Ni 5.773091876510203 9.04001567533718 0.2137540972738129 2.2049248492833446 0.909019436209899 1.3610443116646238
Ni 5.98223581177022 0.11859202695315724 11.40186458731459 -0.9472170303255429 -1.2212053531563936 -0.3185018318621934
P 3.3694885199442264 7.8452858238884975 3.652539085947887 0.3047351170954042 -0.4016441090093276 0.5305697630391637
P 8.996822704081136 3.6405039703984667 6.142915895116611 0.5649649526895819 -1.6778499867713166 1.2700876806793933
P 5.936180655671907 0.7625204253695528 6.797150017526759 -0.38915626095496203 0.9988164996693896 -0.7335809833305044
P 3.149667148373281 8.305279816395865 0.8087800232423139 -0.3822901299627481 1.0905650304282961 0.4171758860963396
P 8.79531745693912 4.244053259799852 13.410768007727835 0.2485115187159849 0.5470649324807095 0.8471309262352186
P 8.568043253408762 2.8266305591300256 9.58767337144694 0.5874849881689689 -2.328307204897448 -1.64039441302802
P 0.08667494883869648 6.659384139972784 5.345423845666191 0.7734384816470744 0.8066080264205077 -0.2465443676872851
P 3.517225580406492 4.693258302301138 0.670740937135214 -2.6604896195705274 -1.245427716038868 -0.06001211888757407
Ni 2.4145781627306473 6.325047496287327 1.6827927703069305 3.2712384633634435 -0.11475707583893784 0.9168073076854341
Ni 0.31616548706022607 3.341814537930349 1.8104787390998394 -0.2827131042983583 1.103551672495951 -0.23738609822678475
Ni 3.672592036178829 1.0475968235018314 0.03144035706768039 -0.2388788807222273 -0.8065080105075336 0.9790154057830625
Ni 5.4473324945436215 6.964690051686665 8.53051053146254 0.7347048125223024 1.3734000050164992 -0.4636547463841692
Ni 7.704416148486089 7.301545046320999 4.029761108946924 1.2452009447400427 0.6539148376574286 -1.2229740150210424
Ni 4.314957384301493 7.833511836241894 12.720655283182905 -1.2170800181341104 -0.7308540713176446 -2.3861829941683097
Ni 2.1429122157213465 7.3232437528362455 6.518697532886586 -0.8967187644656751 -0.6816035618219488 -0.2051058980368403
Ni 6.089400472812542 2.509940957702579 9.472608894383796 2.1784820817107837 0.6779945043144517 1.3783959155691938
Ni 2.9642198733333407 7.637219854348295 8.787623011973542 -1.1016130607123413 0.11593901196218097 -0.7609524333649217
Ni 0.2796874988139953 1.6292243789976633 11.072000572085575 0.48552634964628 -2.135148709030471 -0.3775467017404917
Ni 2.546536035328721 0.9113754106257301 2.4521313288543145 0.03824490241381155 -1.6018178383064028 -0.15717976377952286
Ni 3.8799238738926047 1.7975635946395012 9.664313946283423 -0.3007319094732821 -1.7763533197555537 -0.5542874183710776
Ni 7.819312425725708 2.5885859912094444 3.174478945544891 -0.8154068556590601 -0.6950144359112158 0.6590452169054585
Ni 7.7635462853411275 4.404809544171265 10.533674713698561 -0.6396536997527242 -0.4281305853356304 0.25748261186634364
Ni 5.093546003861843 0.5770517768713748 2.361888871051505 -1.6694319379109508 0.7085734055425732 -1.1119614938262012
Ni 7.054337769781989 3.3446767227726166 0.9379370435304535 1.6544362358330666 -0.834745408086672 1.1748349934219702
Ni 8.419051663876022 9.4374040208239 12.806694603959228 -1.6589665196032524 -0.6734395379539176 0.09242061712526663
Ni 3.455084573782315 5.70123988559976 9.784438357264147 1.1588733278863914 -0.2931453553752758 0.3548636583206792
Ni 5.0052550357242165 3.37193252842967 0.14632455365699035 -0.2273387412931117 -0.45641503410262035 -0.7158935933530703
Ni 3.7529748247685006 5.13886702813373 3.5916340227783254 0.467973171253865 -0.25354059649946015 -0.36037404661594713
Ni 1.3894606416101356 7.226421987019393 -0.004934481010533588 -0.8177082500987272 0.17703202261875964 -2.684575713985454
Ni 5.688610959623648 6.580265173261517 10.934562730651509 -0.02350836753458532 -0.47068954174376354 -0.1818160742709643
Ni 4.808182457964545 6.107902453400061 0.8140648431117875 2.7879569438872824 2.58407052007984 0.2608762109289249
Ni 8.980216456311224 5.5345454969614325 7.254155443004018 0.7468761577775137 0.20648555199318633 -0.37540600124840506
P 5.9022061498818665 4.2992246604769475 3.7341039197061834 0.12248838304492453 0.1934721704526539 -0.9915186804563956
P 0.4317689469832749 1.332737342008823 3.634027812552439 -0.18033074797468943 -0.06475657555109492 0.06048468764861841
P 7.354709200485336 1.1482751046094037 0.9957894192951935 -0.3105401538129555 0.8480387827614685 -0.28422671272940725
P 3.341805245122419 5.5337463154795 7.2135700336529744 -0.8328281364593012 -0.3557527457938518 1.118523463314435
P 4.126675802843073 8.547050800296153 10.210202291763416 2.256532289046991 -0.11436446838620949 1.2887024675671033
P 6.536654025648646 7.219805507773629 12.823736684421032 0.15268110457822093 0.3594222242256391 -0.0976121886285351
P 7.2360865072660125 7.650006758059208 1.8767429646023102 -1.5275201560340919 -0.3573591710490232 1.1794809768344139
P 6.844784950973077 5.461680589986679 7.178411624132724 -1.4169377803981338 0.8558076280736101 1.1938184765030087
