# total energy = -381167.22049110703 ev
CRYSTAL
PRIMVEC
9.31537124903727 0.00000000000000 0.00000000000000
0.00000000000000 9.31537124903727 0.00000000000000
0.00000000000000 0.00000000000000 13.63398743511914
PRIMCOORD
 96 1
Ni 4.484298493440069 2.75092220624526 4.725471585225815 0.12166023071667434 -0.46590240476776534 -0.19140268951813488
Ni 4.200952854120838 9.306223292942084 9.08727015557223 2.358227389495648 0.6325849658314009 -2.9694894254795567
Ni 0.5232788552265732 6.501905380197899 10.483063918948735 1.189964649974557 0.2714979523088292 -1.3129747098509066
Ni 2.643758178407918 2.8687057570080685 12.71821918513154 0.26258985118592193 0.1606183571474266 -0.6775900697871814
Ni 4.053630261957455 7.725302367324634 6.745155799713801 -2.9985362063338683 1.198856296037232 -0.07851891944250994
Ni 7.428822054913378 8.235467974812453 13.40144575482052 -0.9886493293284006 -0.9478533783579612 0.5179883268297273
Ni 7.358230173571986 8.39267417559331 8.843604270510296 -0.40257819078782275 0.4646019407887869 2.931159419551107
Ni 3.194287288383498 1.0584403976844847 0.6450726731993939 0.4549741878910358 1.6156208056277657 0.48873945726693885
Ni 0.46308479098115113 8.023347662061749 12.511350878543446 -0.7529647871737549 -0.7552299290588477 -0.01903361959268335
Ni 7.688180613940436 7.446707567208901 11.182337146700354 0.07815690811740088 -0.30405917407430216 -0.6928395397470841
Ni 8.477704881964943 8.470299162030079 6.9939218503912555 0.3616140896706353 0.7297492682892399 -1.5628746242739857
Ni 7.978577989097017 0.5576786572082959 11.876348121381271 2.0602488743977876 -0.754174748321456 -1.5319838482324004
Ni 4.970654012684474 1.1495260951978303 2.640371109516953 -1.7588847306571451 -0.7274406747607214 0.2100532147397866
Ni 6.474052420946016 5.541956399961625 12.661583592603249 2.5391813728766333 -1.8501966880992653 0.823440524596814
Ni 6.107921079663081 5.961455501630524 9.724618523148994 0.26150844519628513 0.18374285898003195 -0.00020723091479964313
Ni 6.3609638171607825 2.764438809547762 2.0099496518063082 0.7230723704896966 -0.20442944079510597 -1.1725621382273934
Ni 0.3546557357637403 0.00997396771605025 9.925351726404884 0.05771329555106835 -0.4109437891436988 1.1286836916768883
Ni 3.031165827025736 3.8626837874607722 1.6654597804009559 0.7582995691231069 0.3870443568182818 -0.5240579300625748
Ni 2.663842118256432 4.542929438433831 7.687509907229355 -0.5859672659728619 -1.9065964070452328 -0.9614593991771702
Ni 0.752297250948153 7.754058917562279 2.8330884360383126 -1.7503396693006115 1.0111914762949747 -0.641656846225682
Ni 5.495174606863648 0.9709970102271541 0.15406039999846255 1.3044993253900437 1.056122018259078 -0.3666452243366395
Ni 2.689273081051629 9.211299662581991 2.44123362931118 0.18131162383072 -0.7557341223887759 2.0402750023790217
Ni 8.552134696153082 5.280772028221065 3.642115364761729 2.942777463406009 -1.356336621776309 -0.6564345187554889
Ni 6.074348482625027 1.0788690062595274 4.7144962151286345 1.4785948910882987 -0.9477829301313421 -0.36934873931073164
P 0.3951803941695808 4.914864255841824 8.567338313141375 0.09919675950683561 -0.389584092521 1.3957452054809187
Ni 6.9568867299572394 9.209306173190718 2.13813660888768 -1.4804244880978699 0.5035366701807715 -1.0975941693609355
P 2.034001939695392 1.6737113360214633 10.744618110917488 -0.7620703490194488 -0.6543277568251312 0.9037021377620436
Ni 7.36089436967434 6.971101986083785 1.6889922705889509 0.07617175936657204 -0.698283593580791 0.16173113059563116
P 4.026084709948153 2.613138553972822 6.791415932036493 0.3902075850376118 -0.23287252662714733 0.7792460894677871
P 7.485738971645485 7.978410312419246 5.179456190289519 -0.8290861529183657 -0.5736503962787217 -0.5519824243869849
P 4.330194311197967 7.4967776862653785 10.18337446123237 0.031176168492488242 -1.7431493221997594 0.8379901402762148
Ni 1.3720051004863596 3.745952873619523 10.285207302253708 1.1426810343972449 1.1877123636052707 -0.6775982973172976
Ni 0.2887299237498623 7.196310395071579 5.148125803048097 -0.8190305684545764 0.447562468807997 -0.6965491273881875
Ni 4.87020636732894 4.502211951848555 3.149491532380003 0.03262318535165995 -0.4067302652829834 0.0843938901660482
Ni 0.045392871283778155 2.8108107263223 12.744601247304535 0.05489022427997643 0.014790785155929366 -0.42982597076018236
Ni 7.877310591094605 4.344372305840563 5.947009224303494 -0.26241424484000614 0.06834146468887584 1.1430227340073797
Ni 6.96420861155322 3.246937765203444 4.31998373305884 -0.4417798006879488 -0.32504297541482086 -1.0866561822921932
Ni 4.99300158768289 5.761342702082387 1.2271315193555246 -0.18794918375189565 1.042323421813089 -0.807874551837757
Ni 1.1676817532519836 0.20499405394545797 4.662291944578978 -3.7538106154774063e-05 0.6662052249890075 0.3198753151709523
Ni 8.34509126059043 9.273898955616321 3.7801458743653287 0.5250256932924829 0.5519382014126107 0.8449843122058608
Ni 2.776641945541061 4.31347322027585 4.378759066302904 -0.835081194159536 0.9064886993682453 0.665600501525473
Ni 8.39084836287981 1.3601838947035374 5.9048795274765515 -0.13482196490961298 0.6675951633579986 -1.0649087633127725
Ni 3.6348298131125993 0.41030296743028505 5.107782794376508 0.6106526845346838 -0.12841888959674658 -1.1934166130788997
Ni 0.5019559710367545 3.280976130790861 4.817664880349545 -0.34266403093069375 -0.08240308498826454 -0.23315971885026296
Ni 1.0383378270939958 7.4275644798300995 7.5102132458402915 1.6153408124935018 0.018320652686058772 1.5584204451573742
Ni 6.5901498895601325 1.2621209843207402 9.490877234336878 0.29460291375740877 1.2763760847912664 -0.18505052204786196
Ni 2.5785598968681445 1.8349604078107877 8.615998085030384 -0.4072470570184018 -0.17656279629182497 -0.7427644496019853
Ni 2.5751970479417463 7.167796044479602 11.735154111790402 0.4159145028854127 0.23578481517793584 -0.4280567946749015
Ni 2.195157857774844 6.0440269500615225 2.65834139168846 0.9106315178920252 -1.165907094804721 -0.4656350100389916
Ni 2.1239232158353314 7.688404182844131 0.6800900842775712 0.3133174594477765 -0.5516286405919919 -0.7297279281330014
Ni 8.222035209848837 4.109373441945168 0.7264191503455681 0.8682715648685755 0.384567356032699 1.09535576694872
Ni 6.209104639326608 2.354078086817356 7.450688025231754 0.5274947236582658 2.096065884096397 -0.7052479407137661
Ni 3.6482066858502926 9.27261343442008 12.343434795738547 0.23242309779455456 -0.16688747798559 -0.9608845005103065
Ni 5.311326445059251 7.919760736683511 4.839492657646872 -0.3456074298297338 0.20236947294228372 -1.4246436336828239
Ni 8.784935132495486 2.3208501585058294 2.740077251341902 -0.5301743273729579 -0.17473654171636357 0.06222738137133799
Ni 6.622204081127266 6.112401773107949 3.9128722117287875 -1.5519710899876045 1.5748392528350297 0.8585772203989471
P 6.430950199388003 4.782939971920367 7.487758544075522 -1.910552563479503 0.33625401363929186 -0.5362282468765217
Ni 1.3629971367416873 0.7814357313962759 12.816452566803404 -0.29414320051217085 0.14236378181261286 -0.837344536272416
P 6.17706907850145 1.3870680553727455 11.671579499413705 -1.6829204593156886 1.8903107825113319 1.231393349432989
Ni 2.1591818950220785 1.8869029164357025 5.944363658943116 -0.13768257428685965 0.481977455952757 0.8460865441311041
P 4.13319284555957 7.268439312625869 2.7327143821135778 -0.054438481454538494 0.059957097279922544 0.2234445484450281
P 2.473426619906023 6.318867655669393 6.228250521316705 0.6486232502411862 -0.7060879201165582 -0.4267054228533296
P 0.7707975777288346 0.01124178970741519 1.2374548134835965 -0.3706875127268132 0.5241386627018393 -0.06613083019080224
Ni 4.504959986289793 5.413963202596788 11.499068144100795 -0.9476435763400003 -0.4389022220298376 -1.3659330072154927
Ni 6.955349693744343 2.9314447806072077 13.104319887199846 -0.39696110171136145 -1.2537791733273569 -1.4281015103244372
Ni 8.55692279684053 1.1566989308580142 8.251452219889478 -0.07997159272863648 0.4479707599900091 -0.014074218704878986
Ni 5.285196829440009 0.5390032014530539 6.806127697436659 -1.183020614556556 -1.3376668132809477 0.3024689467690468
Ni 0.5039112674069786 5.383092063145037 6.495026910260912 0.9112593812840112 -1.6348850531740167 -0.6934172666274251
Ni 3.1866300534319776 5.59501675310501 13.25498949215895 -0.15864914923619775 -0.46513930134949566 2.2249437156074325
Ni 5.2157134772461005 4.989582846530569 5.3993995515953195 -0.124580746797579 -0.07835719705366505 1.6717464449767403
Ni 2.5257976355963514 7.660290393204605 4.454032853102489 1.6383244178728689 -0.8495112535419368 -0.008892160283307266
Ni 9.010367110386975 2.2635326808212706 10.552037720349642 -1.052131666152762 -0.3177371857820269 -1.0566997451394189
Ni 5.8310682539219645 8.868671002299891 10.772376984922397 0.41448599796900226 -1.2579209634098723 0.1582002346242372
Ni 7.690891386897727 3.6370934482625015 8.72929628466283 1.443551269220604 -0.32118477801099526 0.48702221746551616
Ni 5.84596353213058 3.4004178175894006 10.944437476279527 2.4001517976435762 0.7665260707979573 0.4924881256760938
Ni 4.8407139027833015 3.7325294240268936 13.405345169115781 -0.6697669741983369 -0.05134287324835029 0.2101473171154897
Ni 4.514685233600484 5.901091897633135 7.910029900150228 2.245615127913855 -0.8885524266047986 -0.6981632659528428
Ni 2.3933516908996086 8.326637510664684 9.501348642863649 -2.5157876765430416 -0.5673321673701778 -0.16761432884928554
Ni 2.8917985616854653 6.052559829885845 9.393407713085969 -1.2446121621161081 -0.36184497473451877 1.9122857441205257
Ni 8.291239100913128 4.781896650369795 10.798758115558295 -0.7833266872950639 -1.2598549472077916 0.11632776276016742
Ni 4.270352367975863 1.6116616498753806 10.562959061295095 -0.7509570127151067 1.631252598627752 0.8056646886706319
Ni 6.231768936938591 7.724054107612343 7.041940724756341 0.7784459621639949 -1.0635396508793877 -0.28656024595859036
Ni 8.184633995335021 0.9536145279649428 0.4314684218504193 1.317750276862679 1.317530704652705 1.9223277017375604
Ni 1.2355908077490478 4.81780740552565 12.448498207418263 -0.8840756217803676 0.7009691108327541 -0.06693429992870409
Ni 0.1376904985625654 5.976816548388502 1.1666589255175834 1.0491990658869994 0.5074606878255261 -0.5843446427677743
Ni 7.932960617372446 6.227083305332003 7.942043104085017 0.9620522955661625 -0.3057723001106669 0.7361495153886289
Ni 0.5579022261119899 2.8639176563206212 7.314866190089231 -0.6290604976179102 1.3196289819426306 0.6081594857991849
Ni 1.2633226671780955 2.417879062709042 1.1032473321331646 -0.72830148009912 -0.6547640730316013 0.1667856623004031
P 8.736159850006239 6.004771976721244 12.474280359699678 -0.06343734251903912 0.47828458048220207 1.6055392530220478
Ni 2.494171951094632 2.082665437732794 3.373034353035276 -0.19988475884721704 0.08125637297833103 0.012408658076997986
P 1.0589900045727325 3.939069829556235 2.7411541082280277 0.117346690942985 0.3862596561334573 0.17531015483164647
Ni 4.565696205126673 8.33828172439875 0.769857656796221 -0.07567116558106968 -1.2694055670107043 1.5419018786770606
P 4.186318406299867 3.91865053635218 9.956723101278651 -2.303818989948097 0.8306398705587308 -1.4981504446227232
P 6.816401620098499 4.870336782522761 2.1289879830411 0.012260819645224045 0.03242906706298286 0.24869226726822333
P 1.2530943898340934 0.28865912693035917 7.409990100925551 -0.4768532473523142 1.1528520613929758 0.1720397116104908
Ni 5.334503088075533 7.350675407701325 12.430187914205721 -1.3268661231210181 1.2959357520907488 0.22320466452008011
