# total energy = -340864.74756067863 ev
CRYSTAL
PRIMVEC
9.34501143848841 0.00000000000000 0.00000000000000

0.00000000000000 9.34501143848841 0.00000000000000

0.00000000000000 0.00000000000000 13.67736884846260

PRIMCOORD
 96 1
Ni 4.391061926374014 1.9376039798765103 5.887642117302357 0.02374825145953329 -1.141629453204279 -0.5191072709255188
Ni 0.8552797276401961 7.550572853688576 1.5340125680355876 -0.7820565623333886 -1.0175493001922025 0.18533180073370664
Ni 3.657609372539568 6.686449007390926 10.368102159404039 0.5686426586514852 -0.7760437804804055 -2.7380690579179037
Ni 2.535675355572185 5.764890721882888 0.5729398369113436 -0.172625923131264 0.3888294737431626 -0.5297333831807973
Ni 5.624603412832067 3.7288650834050423 1.6813319980603454 0.41250856252765733 -0.12073129114450175 -0.019122322651747712
Ni 2.5548326286573286 2.577120480514923 4.493234672495532 -0.05724586899634657 -0.3344403574693208 -1.01529341427849
Ni 5.783935854832899 6.578299192066843 6.466536595389238 1.2738129520497805 0.2147871298803462 -0.20032955969411953
Ni 5.461962836844825 8.816896639650379 6.264836675834202 -0.3418783018046047 1.9976777365337852 -0.8486365642464675
Ni 2.816960194529665 9.211461705114257 4.94947027077443 0.32021058702318406 0.36231008729639536 0.004607159754708195
Ni 5.581859331324043 1.797998856647746 0.13957708819498102 0.16006299886458886 0.5318807685411033 -0.8936522097252093
Ni 7.536321711515481 2.437431252184809 12.10198209028637 -2.327513505351559 0.974765886478089 -1.7665880128386735
Ni 1.0294184054830293 1.2622119810069425 5.837322969666128 -0.9289318588631098 -0.13814177331146532 -0.07643092656522966
Ni 5.624818348091072 2.618836610784232 9.645171153748406 1.2855258696113345 -0.24674928460923953 0.13594785098394005
Ni 1.6753268938239971 7.527612161020186 9.239910722896258 1.48182111133508 0.9400395387404972 -0.9710115616419793
Ni 8.286352315327022 4.066126539816188 7.999167970760443 0.43480259803916727 -0.09487062132765597 -0.03280367679358221
Ni 3.4912121020253855 8.420546677035642 11.867524168256866 -1.2688103566288667 2.3305798029817093 0.5561118731743261
Ni 7.442245483150532 1.6279103066854503 2.3473649681519757 -2.190707163022066 -0.8821665776831129 -0.9290568144767484
Ni 8.799963479245363 6.837240109099162 8.303899442971888 -1.334845798892385 -0.868608379382704 1.1500824690676388
Ni 8.116310490421032 8.802495977297106 2.5728357928517336 2.515569132774332 -1.063685946649265 -0.37512832210698616
Ni 2.7553672253081123 6.328581801149174 2.992731445839803 -0.572799361132336 -1.025576027151421 -1.223499291396893
Ni 7.705344930194017 3.3282818306890505 0.6283520156848411 0.04845655283949074 -0.12340138177749714 0.055132422197769565
Ni 5.843771961937376 4.540264376167872 10.891848922536111 0.9972491551822695 2.2907716698458356 1.1729159220223864
Ni 3.6213040037904047 4.798990357941187 5.083166543382836 -0.3654859139212157 0.29752497250021015 -1.9564344136132823
Ni 7.928354278927616 3.6155100968085563 5.354594264462165 -0.6569633946757654 1.3561070222640066 0.7711208892574913
P 4.455972374593238 5.389053058986145 2.0725179074522297 -0.22537853224294735 0.7970067558853178 0.46985804698140377
P 0.06529920068768408 1.9135873009356226 12.787040568804365 1.2624090810882131 -0.5422754815118661 0.3052709349942162
P 0.6267213112197886 0.2132755850040931 3.4865255788779708 1.126985220928543 -0.812393008533401 1.22731686537077
P 9.085780648664452 6.119589969307144 5.5567044300115604 0.6874276247028935 -0.7973978206761493 0.6539384918065125
P 5.886581458524227 4.134120841751558 13.059930784146047 -0.052529694467599856 -0.8021337926992379 0.6705768716941419
P 5.719707592435732 4.486427766292986 5.8946172337076 1.6389263131229257 -1.1974046511923702 -1.4700547148277716
P 2.4254602927594098 1.7263973803656127 1.4055410912232336 -0.7070474558163501 -0.14765536922885536 -1.2183190327475342
P 6.752097711499774 6.789758106881788 10.745802283045109 0.1274197589082709 -1.4311446680261353 -1.8308841038135824
Ni 3.938856831452004 2.688905505219554 8.064067204966154 -1.3931008258795363 -1.4338348132637888 -1.408627974980858
Ni 3.651927605692852 0.23583724569163617 0.3670458763023506 -0.1058453751716048 -0.3206253059630994 0.34055084124243284
Ni 8.33075046382825 5.626481760095538 0.9218190113222211 1.803954369302274 -0.37895643760382475 -0.8284436342383603
Ni 0.8319340205078514 7.720044632907642 6.865122819198745 1.7135217291413134 1.2081104676456484 0.1376740896464274
Ni 8.90250628781282 5.6356585611538845 11.07787538920412 -0.9234754637342291 -0.8136837023203665 -2.034944591305044
Ni 4.099404124916772 3.1773131737668545 11.539376901328618 0.6814922330550651 -0.45440468854081095 0.10031210405820143
Ni 8.3578229614515 6.088947677382175 3.419451760551814 0.568822121652143 -0.31945673957629495 0.1765805369036378
Ni 1.860703882209364 6.992030875627126 4.825895579862864 -0.7241244659032947 -0.23836620275186693 1.2980846801129513
Ni 6.347187718569916 2.517648828849627 7.2793142773130715 0.4665284683875384 1.1426823199488256 -0.6978873865836368
Ni 2.6585155285986324 0.5270296655880775 7.478484502319741 0.48975298613311785 -0.7355342504021333 -0.018996338596844704
Ni 4.284014822378733 8.028785114950075 8.297730801038472 -0.5729420573577874 0.005276160797274785 0.19916510707237312
Ni 2.896205890023334 3.7177351749931367 2.1477433791013967 -1.3384949656091982 1.192887480048307 3.392698919364486
Ni 2.3477284890900303 4.9631354807414585 11.145592144305038 -0.6830868312356946 -1.5107100264552886 -0.5369373571284043
Ni 0.026102485454353307 2.309731673302618 3.59577997453311 2.213533416887962 2.212682381741576 2.3991956043778937
Ni 0.25439270005156883 7.104572846243901 12.65516283538736 0.30188530635143496 1.6088004402718228 1.361316591489404
Ni 2.6819995418976403 1.5529633163718626 12.285655483118848 -1.0850908946876023 -0.42398905236343104 -0.6357587355736921
Ni 7.717839210250036 0.6746546774810711 13.639428015459266 1.1408329254449128 -1.2071383335403663 0.6461249092993646
Ni 0.2747265100544785 1.4779602559907083 1.6991940525847082 1.0411273446224585 -2.1105388809015913 -3.1511185805506954
Ni 5.500174587891242 3.0625097104249064 4.068073105661863 0.2565971239375968 -0.3348959569495007 0.21747187580136093
Ni 7.899627714311161 0.04246186216794019 6.923128238597182 0.7864274377075746 -0.7405093350192216 0.7381385207941997
Ni 8.073996279431016 8.375008437160565 11.183040407931426 1.2472408579882068 -0.49291981389687367 1.0509026788416673
Ni 4.317965248290113 7.257429195440828 4.688068812277078 -0.1548428881162301 0.2754163135266289 -0.7779273706563634
Ni 7.960117972203911 1.1691917389144921 4.896702730187809 -1.4817776596916545 -1.035595616170952 -0.556509622833377
Ni 6.117244371480622 9.161036024349654 1.7208455091754256 -1.9178195294545617 0.2939719650416292 0.8131633110405221
P 3.5705699376541866 6.4526835506958635 12.368663480146214 0.69337510053558 -1.6289836000879172 2.5826839241449586
P 8.497596294882964 9.392297018026756 9.245941993164138 1.3921777998446345 -0.35807522327944136 -1.386004066933755
P 7.588485564374639 3.3607837798549682 3.283224858893918 -1.3547201692188087 3.10148420535302 -0.3921102013769634
P 1.0291006751001537 5.615557441931375 9.324545686384173 -0.5643728276315376 -1.7316888869686435 -0.33925963323483505
P 3.232775815601162 7.427340190189165 6.577159100692994 -0.8966989669713331 0.257187449223428 -0.6406304618436967
P 2.537712568027093 3.43862772365948 6.436131666750299 -0.3058358063587507 -0.7417843450769032 0.4593869722467508
P 7.6442472465693 3.7632734148682134 10.078114311459146 0.4289911335637128 -0.5847351933379735 -0.48169489171533175
P 5.306994515102901 0.4373044744662717 4.125558942434187 -0.35629370589898635 0.0024970553902408607 0.09084504510803064
Ni 5.266362406139875 8.283875887342845 10.388781734823606 0.3346843551593268 -1.246925383630317 1.034779805137876
Ni 6.729052913730033 0.5323301559753426 10.190063808361971 -0.5834840945396919 2.9350464133103387 0.05745438546272686
Ni 4.340411965339145 1.6433669553112205 2.208730791593234 1.2192194330746164 -0.4945444939844902 2.0979055084082967
Ni 4.454785558163086 7.542947324499562 1.8320287151548449 -1.9407195739811869 0.804045407899654 0.015433818056566968
Ni 1.5566172157749316 5.294883380508586 7.103355191276587 -0.28891769044717336 0.17664378604140546 0.14881879340933724
Ni 5.998973908960825 5.60076428910514 3.8588093339921374 -0.8037864978113125 -1.9147630020164252 0.02728300408566914
Ni 3.860592362140745 0.8256896839832205 9.947495351059004 -0.141568282494511 0.33290309488918796 -0.3777894138789171
Ni 0.8399118566214062 4.452439960336563 4.519385752008443 0.5834606975009241 1.030542884238393 -0.42112175811796504
Ni 6.328871496498267 6.374222836148123 12.773431428904903 0.0012405572753204442 -0.8547619604179151 0.3156083123644822
Ni 6.373082744774275 6.568150509837347 1.5104192181048253 0.8526310301178412 -0.10127086842704494 0.6681494931995718
Ni 6.675029403629928 8.093919843439565 8.375035537693222 -0.04893966312349636 -0.2390010081223884 0.8431506014312317
Ni 4.321815392929664 5.051361732056993 7.264542618012737 -2.007960349406716 0.19115792049718044 0.9502103086259119
Ni 0.8947315616809535 2.14185789100919 8.236347160069165 0.35063547917194454 1.6561773868938896 -1.6115769745756954
Ni 1.2818832297114442 0.4525405808262809 9.590967284930962 0.012811549942371483 0.5155069551687702 0.5831529364525183
Ni 0.8001282746808818 3.4312077847182096 0.5450963758590575 1.003936337394458 1.4328130568674937 -0.5074974546007325
Ni 4.071808306662904 4.4449172262714205 9.357809253967867 -0.5990323266869361 1.824968766770412 2.06584462331801
Ni 6.594064226064226 7.708484853977729 3.838512904034272 -0.7531722751988706 2.08409611332903 0.9375280851725531
Ni 6.276231048064796 5.574504807461601 8.539478766352719 0.719030339209839 0.14780552165347446 1.4683883828689421
Ni 1.1843773822136916 9.309032967690836 13.545190118399503 -0.23847727440843444 0.46726714632577593 -0.8009708827393882
Ni 5.65679697662637 8.656984806951362 13.256502161521022 0.6551993607968071 -1.439946068367849 -0.7616718280294495
Ni 9.044157968507754 8.187407336095069 4.937010567260079 -1.0579444161797973 0.8494914560475951 -1.1768815915383537
Ni 2.5503470232520264 8.935026927001259 2.4340520961128154 -0.34385933679037556 0.6321229385933178 0.44254084722368947
Ni 9.299687956429791 2.4073122808904586 10.479353583965663 0.5129512786264522 -0.45291447714852967 0.08379739423262987
Ni 3.5711212933185883 3.5542255129586175 0.1372314903684585 0.9864803467015398 -0.7079848800289549 -2.08022428907845
P 7.995787880187322 7.781815157343156 0.42312809238326515 -0.3505994837276865 0.6957379443408018 0.01554643237503129
P 2.7344998151621964 2.7600584209611565 9.876263937222808 -1.810368500358734 -0.4999571803596293 0.7183669945942274
P 1.3877715523103549 8.470906942721417 11.186869993546203 -0.25381313343455647 -0.45388352593001835 1.9847785119736143
P 5.15025064122138 0.8020346569781351 11.864228182785093 -0.767795167318368 1.1557008436956806 -0.5909513494510146
P 0.8026953492742911 5.273343129551876 2.123822019275371 0.7877561838213272 -0.0293231744441495 1.0103460975755438
P 8.452656135728594 2.073386993499507 6.841816361113696 1.2569310886927771 0.8562619420022093 0.2806577644312263
P 5.387342921925374 0.8192369537074684 8.13446410929674 -0.8053692689174 -1.0415225231783483 0.3269982993689788
P 0.8967940056662662 5.082471274545013 12.708053730122625 -0.22965787634459162 -0.9343432596866683 1.3904443620932958
