# total energy = -340892.51129563595 ev
CRYSTAL
PRIMVEC
9.04166922729221 0.00000000000000 0.00000000000000

0.00000000000000 9.04166922729221 0.00000000000000

0.00000000000000 0.00000000000000 13.23339686007593

PRIMCOORD
 96 1
Ni 6.263128242197828 2.1515466140776804 11.36265782558957 0.13346287977855725 -0.40559538034759185 0.8085232411653495
Ni 4.455816066368608 0.2963506611545328 5.935695034070015 0.8661167233091019 0.5846125517171803 0.12943756066924805
Ni 2.5254286863620914 1.511152293899499 4.859779772821244 0.22621414077036525 0.2557170353254886 0.7742614917690019
Ni 3.6207093951796945 4.337587197001702 5.071104383061695 0.03794922555026367 0.13047422946387852 -0.5661119218098315
Ni 5.081707548793308 4.54059980054217 2.640989359082457 0.2240785824846012 -0.3868574376184563 -0.7666607966036086
Ni 7.341962154336141 5.979328322368487 2.3045560732116166 0.3647096978768235 0.15504934770008136 1.5164844670452204
Ni 4.994681480603 4.476557656023525 11.532031802211053 -0.311678895403089 0.30335803424221947 0.2615650094658334
Ni 5.6946965689522875 7.6712055046823115 12.37738178068857 0.15575357285595756 0.5814272120106632 0.5801321473483235
Ni 1.6232780364063062 6.544405536258329 0.5496864841990837 1.409935380938372 0.29647339130724426 -0.6091038519903251
Ni 2.7109185345620066 1.5247871313884327 0.28923577148607005 0.36345294265158695 0.161440853048722 1.4217344304558288
Ni 0.48840656968897284 9.012175496713969 4.552063733202792 0.48553586272797666 -0.16905388950928948 1.3128883207846873
Ni 8.66925210053175 2.409405984334243 1.6595080057817417 0.20864476442803423 -0.11455781534393818 -1.1074407231377121
Ni 6.896424851879449 0.6458383093373902 4.8295019344265535 -0.40398432710673005 -0.8918910040597284 0.009271140889280808
Ni 0.9660571694330946 7.61633161295795 2.5693033872341404 -1.2070192914639988 -0.3522030807693805 0.4758669721796449
Ni 7.917952663218782 3.7333685961824217 3.7441381286314064 -1.0478001286569438 0.6851820232018264 -0.7635392202554915
Ni 7.415281051682137 3.8956213539668463 12.866355263050323 1.581624394077663 -0.9610086847929965 -2.224218150295318
Ni 7.908612618705475 8.968386691701431 6.899324515263203 -0.2635465586722365 0.15281891570766581 0.054526670292970605
Ni 6.812617618003505 0.7880411651777103 0.18744013629432033 -0.5925132946214956 -0.8487471216824027 0.9712740712747466
Ni 2.1634635343763637 6.541503160373748 9.224657440640483 -0.9769937473673432 0.3955120279696608 -0.31996376111970054
Ni 0.1094105291792695 4.792826210748596 1.4081125249952313 0.8172606210383475 -0.7501301459384372 -0.03378995196625149
Ni 6.3088248394584845 2.0458042901830664 6.840276988933476 0.5217621920498627 -0.6797734505917454 1.4991927698443084
Ni 3.0911659421197664 4.284096680698962 0.2283835279396372 1.345491194421373 0.29903678115904625 0.1645719424785359
Ni 6.2000625979768 5.612399293869878 4.4725440589669345 0.10454542541325866 -0.9590255929246966 1.5114242789134937
Ni 5.214366922558317 2.9796188664559904 9.344167514564539 -0.07517082890588345 -0.5389199347760718 -0.10882631217679968
P 0.22536632285339245 5.477542794435233 12.54070778463343 0.5282064050133097 -0.3837430603591907 -0.3474604238780726
P 3.9307211146644856 6.105152194050184 12.564065129252239 -0.004548795712947005 1.0497963331513662 0.48357616789844465
P 2.4924175513010196 8.63353750631339 1.4224318168594383 -0.33339494692394195 -0.8084800466322398 -0.832317772481786
P 6.2599907829082655 7.3839968754807375 5.760537101519041 0.2266679404783322 2.0940568240861674 0.027166018891830634
P 4.7457552797357385 0.9533355405558205 12.464470236397892 -0.028409147270312362 0.7203791399282496 1.2585768518263163
P 4.164213185827762 6.220117020755615 8.015826022215109 -0.8105706106126814 -0.6384046578369714 0.6345996822685845
P 4.803486338997569 0.9874226342781544 3.753428443962891 -0.602709004207575 -2.3402957447178916 0.8116512452713699
P 0.36098684335422737 5.684072607381003 3.4276751780137538 0.31555714741157265 -0.038455732873036996 0.7948935661970569
Ni 1.6075636149502277 1.105868503711198 2.6203056361118438 -0.6497334525862294 1.4246888850984625 -0.17805557878726752
Ni 2.145570070589494 6.383047903746718 4.778367677175284 -2.111226393886919 0.16060807273478148 -1.32784159966041
Ni 5.856045159794476 5.607543917390065 9.34557078165889 -0.4628080821131578 1.0325552866827314 -0.4631839773953378
Ni 8.345668835243982 2.5983768752617706 10.212225645796337 1.1627796049193329 -0.4795878726746579 0.3463232249498358
Ni 2.1987170034541834 5.3511945059270385 6.832204586473184 -0.27599789706171174 -0.787675708292379 1.3696163696043508
Ni 0.30051977492518744 -0.20605331696721066 9.024330212918459 0.9351690980220734 -0.0673446479932453 0.770326418380654
Ni 1.354523454495788 1.0028025139656052 11.559597139779033 -0.8239187497848133 0.586355502550216 -0.6054127762919832
Ni 4.102811208780449 6.99440942340967 1.4751926704397922 -0.4056635145813659 -1.4520891314882862 -0.09077331132983077
Ni 5.910566426411365 7.838630097376332 7.934268355691448 -1.1351284188609676 -0.288358989730226 -0.42161283882177064
Ni 5.47535471043502 2.752880922351225 4.812669058462928 -0.11990185326467091 1.1084593942102134 0.10134234509492869
Ni 0.6677724951891171 7.443879852065092 6.899906798774004 0.4364262496855194 -0.6218297841974258 -0.2506761304674715
Ni 5.298192239773107 4.285163597690802 7.302413892282695 0.3583037943504797 1.5261345885404747 -0.7959775432898549
Ni 7.9633599270579225 6.9175913999972165 9.224749665668591 0.314616123654542 0.36466136113739134 0.20674137675773427
Ni 4.568909267503609 0.6721929673697136 10.271352738816983 -0.8560971342895708 -0.7512588602262417 0.3831630194860046
Ni 8.022926445212494 7.223181743134469 4.562425486360827 0.6390957703667252 -0.31793824604923954 0.02032739870344241
Ni 7.2842401367437315 5.991787742832512 7.070855834208864 0.35470450703499556 -0.15539284708242918 -0.5242427923798713
Ni 2.591053123029651 5.186391997365505 2.4894139087189084 -0.4361837946574101 0.6459534167185069 0.5574156795874142
Ni 2.5763694518877225 5.150216278006605 11.149269002219992 -0.20722911502743022 0.35018733589093237 0.7199639067677019
Ni 1.3488633694373848 3.505075484937008 3.8714701507727542 -0.40025005687527837 0.20554941333216212 -0.08237146041938073
Ni 3.7558190613581655 2.6813974838979693 3.149058847264257 -0.6871167783306941 0.46206271930670095 -1.037105110836943
Ni 1.135633679449639 3.4214942927966217 8.2596644756984 -0.4803219226272051 -0.08497778769397624 -0.25003695422157585
Ni 3.6143802265840357 2.8695546245774834 6.913708907147251 -0.7347253813475927 -1.8746381089710813 0.5555503442439013
Ni 4.028307852740122 6.938586156395959 5.957516199053962 1.2915630769443498 -0.14861001983264083 0.11036460319819703
Ni 0.9736792967561524 7.3633276191812005 11.517475618607978 0.23304684742148252 -0.5724358071453303 -0.13761778248719525
P 0.2749191921226898 5.540997230441424 8.094392704493847 0.39591106318029234 0.44798310128518337 -1.0576112012100947
P 8.548916522189431 1.6221387860590877 8.221115318116128 -0.7503373768532368 0.6957590273867243 -0.894633342691556
P 1.7728272486523016 3.2020801009239754 10.447925692632557 -0.2546669967944195 -0.12277197572361437 -0.5087698935552528
P 4.164149894141805 6.071779392212218 3.8536318411693613 -1.1438256895246495 0.7525040454872524 -1.0410664094775361
P 6.774226689636122 4.1101078360043015 10.503439734552023 1.5411673145038811 -0.05272484119754146 -0.3188705280555218
P 6.194095096158035 7.958631133950024 10.200276175487733 1.0651607314225784 -1.0327856575259826 0.7194363163990061
P 2.3401558382283136 8.586077783515371 5.87507244892691 -0.4555866246640541 -1.0449456899272842 0.19752602880705336
P 6.946108825355371 3.8993013134217507 1.5965562865954346 -0.6614006045115126 -0.24404551252483128 1.9522753971395859
Ni 5.23795663808128 2.6538203921597416 0.8861839659228227 -0.9957319472067948 0.4699660333141777 -1.4115353784356401
Ni 1.3338270731879838 1.1005700854296891 7.0964754045171485 0.12691762246087177 0.09542906493428727 -0.2674824033915329
Ni 6.724976716292474 0.6706848169100622 9.171696766165894 0.8582180372873155 1.499658139516501 -0.32495118703196296
Ni 2.4724445035470053 1.4902389125255577 9.269981521120938 0.43746626091425944 0.11357899637043667 -0.6356373795044794
Ni 6.4284551675858586 1.7888400451993183 2.716961986403919 0.7860754536847946 1.0362059960614411 -0.6937605088994568
Ni 4.222550036940891 7.25069554318674 10.545138105594107 -1.2935852495807012 -1.019481998438541 -0.9265340480548947
Ni 8.192810371989399 7.335009110550338 0.2733106791324502 0.2681658026118027 -0.6253298269308843 -0.023347416476688823
Ni 7.568374598341701 3.906082565488528 8.22681880318776 0.6777649048021489 -0.6213394748245685 0.2730269873588459
Ni 3.1733728005079516 8.396609600769613 12.508233724736048 -0.019253448912973294 -0.7558068846082403 -0.29312170122619197
Ni 9.416898703398083 4.928035335290712 10.172750621265214 -0.6359417981187757 0.06617196784138282 0.7360950080016097
Ni 8.585336366622737 2.3172352062426063 5.712063807578775 -0.053262458868566336 0.23242129802234163 0.8991713397712258
Ni 3.5002924418125745 2.6802672752201735 11.576086432304606 0.5463974741000397 -0.49123805531907655 -0.5247606125565544
Ni 1.164630313287179 3.2273877336371886 12.654211477560205 -1.6693051825250995 0.47027122325942233 -0.07957589995211456
Ni 3.310543967314723 8.278615814807688 7.985614188007202 -0.18965845313351853 1.2187162681859527 0.40839274058707087
Ni 5.627562173491192 7.750392445483426 3.4342123050061275 -0.7597604699393495 0.5733557478564383 0.6907412624571588
Ni 2.95191519134585 8.453888576560326 3.7373894265745493 1.9859128826883734 -0.38481186794333727 -0.5232922555411439
Ni 3.3914488253060875 4.36963087343458 8.913579708330795 -0.29452603777288633 -0.029591597614187753 0.5460853421762595
Ni 7.5023523282195566 6.040034090870277 11.544418889319699 -1.1364170557654039 -0.42833524514726873 -0.8600602327023767
Ni 0.28127186905884677 9.321057007520963 0.4669814298257255 0.893029745649862 0.24023333786759277 0.24708532779241965
Ni 4.627354618649807 0.19624491397782398 1.524990568950436 0.7615874958457595 1.348345890261349 0.1816785202518355
Ni 5.856759451678842 5.537109312589806 0.3992620383530029 -0.4114590382172204 0.14912424046489803 0.09737616135832908
Ni 8.074011877448884 8.543590978899656 11.257756376951235 -1.0661027836208736 1.2902291886242747 0.08544778535185929
Ni -0.03385472281817901 4.959834886649187 5.564564341790831 0.7815600823129444 0.0805151239369323 0.3960876979674727
Ni 7.652597749011075 8.804705350148271 2.611280241694434 1.4568886097594584 -0.06601204522475082 -0.7669443892822986
P 8.606909789864511 1.6399147081434666 3.64830185775594 -0.33392433706485075 -0.5454726482929251 -0.48205458904759557
P 2.130307732604534 3.1764469681115575 1.7940254426130475 -0.9581480754157498 -0.8118340507061372 -0.9476528323113808
P 4.6874274702920316 1.165561605237683 8.142681548377897 -0.14491945835493106 0.037026970846310424 -1.030223296115445
P 8.316599868051064 1.6889748064292447 12.263482062641092 1.0827180235800515 -0.0831600177589471 0.19880438129884473
P 6.363590231149778 7.585852145335141 1.3236443450845108 -1.3070154069436781 0.9890344805819611 -0.3996705302227246
P 1.612048282983723 3.093733776235719 6.043969929569835 0.6152408181259984 1.242472747175602 0.13930288349910203
P 6.991760214268916 4.043841440807753 5.90245243227173 0.02492273138360869 -0.4736463103792423 0.15498069924567504
P 2.247171309888663 8.60232566346737 10.245587597630998 1.0316913960205394 -1.0789395303742257 -0.7103711208729444
