# total energy = -381164.35909436346 ev
CRYSTAL
PRIMVEC
9.27115541120387 0.00000000000000 0.00000000000000
0.00000000000000 9.27115541120387 0.00000000000000
0.00000000000000 0.00000000000000 13.56927308704508
PRIMCOORD
 96 1
Ni 7.096318637180171 0.6885779964986609 6.583661745033973 -1.4960125723441138 -2.2283439995382333 1.4900591829741563
Ni 4.975847745106762 3.054456376923103 13.04910883942698 1.44660985354127 1.275375925661526 -0.1690250931538831
Ni 1.0241011171417993 1.2139743835350427 4.374394506108289 -0.16130047081611573 1.6281991565134086 0.5909714040556726
Ni 4.4079894654882965 3.8549464924956336 5.819128879284664 0.19127387724975445 -1.0235584825007598 -0.8675830234419832
Ni 5.7191070172493355 7.212050472355311 11.162952498046424 -1.4623149229813526 1.3287540841723504 0.45542978737121564
Ni 0.6863204701135653 7.900517214986944 1.7609660732769803 0.8234546656642012 -2.9623944663059887 -0.16106932864191617
Ni 5.31082386757035 7.224446007373269 8.835062677634008 1.3543363035168288 0.25592323779902376 -1.0420403433550312
Ni 5.36439260454399 2.4124473949309495 7.375673388823465 0.4763197434463474 -0.7683343276512896 0.4192867617917554
Ni 3.8197439147370815 8.153480695140248 12.859220739184801 0.6208013429329116 -0.2104872169534117 -0.43225360636506843
Ni 7.761032679201478 2.142638225078598 2.5915679750760052 -3.1598343631571386 0.3491169856448891 0.3616626835203836
Ni 4.242276830551147 5.466393858296845 9.912462741121907 -0.05938091306147837 -0.41847994961974383 -0.1355156485425279
Ni 7.466265558512671 6.873606937702705 1.1574268242717463 -0.12922107378306777 -0.597250552196165 1.8148507044998037
Ni 1.8691669487699307 8.265819287371054 3.732065669248432 -0.19900338468352827 0.21760068806974137 1.132231814039463
Ni 3.67178554274637 1.3723628055595625 4.960898933840529 0.4684439402426965 -2.7247399449091656 2.550417350801769
Ni 9.565607487006481 6.765959550198216 7.792399779894264 0.3332674202071421 -0.9054458599260278 1.1987256839966387
Ni 2.264869140319248 9.391217050441202 8.539591876236253 -1.339794144036596 -0.8203207480209098 2.5828317625767325
Ni 8.43193985315397 4.333319578401813 8.592728577359605 -0.19076685570634888 0.39136226746734537 1.120339433477251
Ni 6.628959684109693 9.026879178237994 2.0863975410651845 -1.060851048303631 1.100307968747673 -0.3471390359829118
Ni 3.6498870732531645 7.5468133582404295 5.245392687024924 1.246135797849486 0.6174259987027754 0.008360970370185601
Ni 1.2920467847214443 7.586095244456648 12.984437893639575 -0.9057587631807563 1.7555623511521314 0.2983508108356152
Ni 0.21161505335705166 2.7060370788603847 13.275823823886311 0.3878663384989449 -0.2333309543208046 0.03167110585103578
Ni 6.610537897961091 3.6181426365280447 4.156024488791564 -0.06407343344114126 0.19478497572680645 0.16612977388395905
Ni 7.9293319665470126 7.486356152666683 6.210126886489843 0.6995205513116856 1.7353393392370373 0.6473433550874981
Ni 4.20738020092692 5.622798253026044 12.670444250497335 2.7939370727301176 -0.055844103552813495 0.7116224767815422
P 1.0715694337401103 5.102788407384901 2.1110263658783515 -1.7076868676270913 -1.0802831888863136 -0.09270986623091129
Ni 1.7662014948361728 6.685819681316224 6.012463995173572 -1.6986409553747392 0.39454683584291406 0.5823584655756808
P 5.676765649689866 3.0275700257248417 1.4915750325415393 1.4991071521090376 0.378744835813651 -0.7744738648901244
Ni 0.12104420732569261 6.7100081262390745 10.512143335172413 0.967632103646785 1.557834233636601 -0.12464091061155308
P 2.1123215463136606 2.4724595850365874 12.407403951338035 0.10407877018948528 0.33174301314281573 0.6329719168571744
P 0.4039525929049495 5.713210562296889 12.652465625585725 -2.26985008920182 0.45999760924755617 -0.3049976267281715
P 5.132270682147133 9.423944229658398 10.810056158951415 0.18237606053949237 -1.1380018837540207 -0.040076299195595494
Ni 2.4769190108732646 4.954283037214638 4.865466293820076 -0.17589610924210353 -0.6738012921687105 0.7290584128698024
Ni 8.846026746229548 4.540715328851855 11.096612744253608 -0.30344982262507736 -1.7554844467263444 0.7904764109659677
Ni 5.848467451135319 4.723922634379047 7.6984996618921135 0.15863500816881065 1.6382814804500754 -0.4446103281582085
Ni 1.2884217628874717 0.7813062404347908 0.7144584273158845 1.2638234449372365 -1.0677256639362773 -1.483790319246309
Ni 6.620448763282106 3.530836164378378 9.610546632361038 -1.0539234679458624 -0.04820021385431054 0.7726802633248112
Ni 3.1321579318860806 2.9792302205014836 3.7769797824829077 -1.9382996516857844 2.6571261024149333 -0.6506505650838601
Ni 4.885120216546007 5.604552618833569 4.428915390760572 -0.9417022711549008 0.2949325291826856 -0.9010631574772997
Ni 8.657877914775227 4.754925378657319 6.442053187503845 0.13116817020710958 0.3980913586610628 -0.7690064140176498
Ni 0.6203561981219675 2.4623911100706177 2.0501547396499276 1.8566002776327637 2.042852533298211 0.8210563406353537
Ni 4.540390838406359 0.49962906431730264 0.9158974603021732 -0.07046031080409157 0.4193417833994068 0.43894978743832147
Ni 6.317050196743097 8.238246870659458 13.202061582931657 -1.2961949192894064 1.512744540386814 0.48784599891839203
Ni 8.205473335664335 2.4136341028459074 5.83714829728085 0.6113214284669343 1.3455999520850956 0.2629472345253407
Ni 2.6745615056472474 6.012205329932734 2.961493572750658 0.2901731601208293 1.9220978451149415 0.8316009489204194
Ni 2.3377682366888806 5.911307343694567 11.711979206439404 -1.065949802982777 0.5406633998297398 -2.8870943109110927
Ni 5.155541282667008 1.8808949605857241 3.1043379753203477 0.04937263689585691 -1.2766365375415045 0.24156465508450656
Ni 1.1888773653648028 4.498309063203286 7.725584415819908 0.8928389697952945 1.668454918709662 -0.45793507029157265
Ni 0.3213122933615192 6.300695878290085 4.100335438535495 0.3825701230970121 -0.7209594379117519 -0.06747063204814832
Ni 4.104488916237847 8.912157899021686 3.2011547988697306 1.8933829936787523 -2.0297275658804783 0.4086930454363091
Ni 7.901397974767577 7.643548595620659 3.2508454114619116 0.715161343172736 -0.5398241917578961 1.9787395048683856
Ni 4.100928792492974 4.395213813091329 2.3278499544433973 1.6858538309123996 0.3253815897011622 -0.9438352583375036
Ni 6.473658556895181 0.4578142983950953 9.069091676734825 -0.7020469172779652 1.5871296401666086 0.2642250727964998
Ni 8.454700540116637 2.154153000315922 10.635976306098256 1.0900857767990324 -0.24925045376453844 -0.5011267751876983
Ni 1.6397892884264134 4.08164478887491 9.88655913241572 0.17248682645023844 0.9951076833592346 0.35004258278295197
Ni 1.7780222182078225 3.0849399364885812 6.107896635194025 0.9525186450441144 -1.7552936708717768 -0.16009899430884683
Ni 2.3978175114168603 1.8283182372597435 10.255656815896579 -0.7006932314635481 0.12086730250173378 -0.6053734384136154
P 0.3336948487616566 8.716017331452573 5.362210174519138 -1.5275247840197823 -1.272480606391602 -0.06342577255481335
Ni 4.867829511378848 6.955350716501009 1.7656201933809552 2.2991046151915633 0.2900741726491198 1.124841692222979
P 5.799858782399978 1.7976307122713826 5.2455280458964735 0.7234474944409283 0.4748999802806854 -0.3856934992173422
Ni 3.0133388019009337 6.547354972645175 0.7709846629213338 -1.85516534495845 -2.8743827768816947 -0.9628719632539803
P 9.63514115389854 9.159317635778399 9.927158449840654 -0.23284295894079257 -0.21768733424627673 -0.8302351789211444
P 2.0858245836499942 6.482957525947545 9.441730941649386 0.3785846560867028 -0.9112763505648757 -0.5157874625236666
P 6.51950442126601 5.955438044282059 3.1165091483731335 0.42926238494722846 -0.1642299857580849 -2.1982327819751495
Ni 7.257061932723436 5.937479815912737 10.16326326067709 -1.2428638119664337 -1.2787314723973204 -1.1432055394421472
Ni 2.1069164626072516 9.269449692979833 6.313986079822054 0.5050369088753818 -0.29479163272944714 -1.0254816676654017
Ni 2.423489341233408 8.110138042777532 10.949399773171981 0.2511852088934061 0.9639325433080109 -1.9011595523003773
Ni 1.9333048031111637 4.662000586222773 13.542243459256564 0.1121556336603488 -2.468031235094369 1.8177203127381145
Ni 7.377707480358947 6.33357139599665 12.651691484094327 1.2055758741492526 -1.916110774293571 -2.0858981995347756
Ni 4.816050107433229 -0.1472787962862864 7.3444231046910575 0.11371655038956544 0.02420076561591961 -0.8939224326674605
Ni 4.4377127902957545 2.456374130095558 9.606570233730372 0.6936237262112763 -0.3386718790521651 -0.5086035431807177
Ni 3.2253794012993646 2.734851830420453 0.8799170325899888 -1.2570755846904413 -0.8777494224520238 0.2113750188750037
Ni 3.4706478223166135 3.74677992027835 11.36332998371816 -0.1065963944050164 -0.24705987387112294 0.3098151027214729
Ni 2.613418234560165 1.1087004118604684 2.653186856444629 -1.076894732030055 0.45225087542260173 -1.0005087997701478
Ni 8.159757267471704 9.113193636740002 11.589271753801652 -1.2187684615801269 -0.5270776907255051 -0.8841578970815289
Ni 6.001376620208744 8.29130569407589 4.739136600695029 -0.5343806521448216 -0.38043302214935126 0.3484896364735353
Ni 8.208606986252269 4.063389883526849 1.6512716146191884 0.15963979528424121 2.2423493126783893 -0.2812774002930962
Ni 7.69606042085754 7.900044386052079 8.983144355994009 -0.1809933212593528 -1.5220411351973917 1.0453724930520576
Ni 0.11934295027573363 3.7538908966125106 4.523005567452228 0.8140896795095334 0.5980334531087765 -2.3183449514784136
Ni 3.899179175794567 1.247777016800168 12.229714837615395 -0.3850576654055562 -0.9945677516953646 -0.8618723462104512
Ni 3.3632600271685207 4.829530367654703 7.575060715078659 0.5104326259696564 0.5565245352317124 0.7472373977716744
Ni 6.782452935985012 1.3978770257311546 0.17433666386288213 -0.29262007899942505 -1.9464994138877576 0.6290535556393747
Ni 8.51109697954389 8.865338563314369 13.852056738345254 -0.4588943488810484 0.5350879626244914 -0.2700061982546511
Ni 0.7046161685462033 2.3521477990021578 8.478448605149172 -0.3616729679330288 -1.2523730370084496 -0.1194457395638588
Ni -0.24200033867332196 9.060542744169336 7.7325720857847795 1.9129521740599311 1.9591325292707356 -0.7504936999254429
Ni 6.2956987254294425 1.918702733063832 11.247543448725066 -0.6965457849540778 -0.7247559288397066 1.1970349265577773
Ni 8.987143005398082 0.396559773440986 2.554307200777448 1.2531006592030935 -0.6966941376064841 -1.1470675935007149
Ni 7.389797067242579 3.315198356612731 13.046448944889471 -0.8453139276311378 3.1887379335653665 -1.6321781957658148
Ni 1.1235806165753686 0.6346708623461456 11.754478183643828 -0.539094255570407 0.03948674524071264 1.9375033810367341
P 7.741785760205757 2.244333530697127 8.057882101434814 0.0706045496914397 0.009326676717564583 0.5590794404430823
Ni 3.247342768881669 7.421791825168512 7.777025422586651 -0.775571211719361 -1.405067254212793 0.10030773318282725
P 2.7809665583032652 8.384286113443947 1.3953422917940494 0.2820446174764239 3.1203599592116 0.9159845546738224
Ni 7.8254857528326225 0.5584128263078475 4.364746941605906 -0.6861140480977924 -0.12433649199725683 1.0653306813415395
P 3.3611832883173447 1.4486829583402843 7.478325477698429 0.4048438468935479 2.3246061018967774 -0.49715313525193094
P 5.3100821751235 6.543516714232734 6.34410991855081 0.508982266676375 0.46200872614031396 1.03274863364046
P 5.861159663132016 4.7080782294832435 11.702765532018427 1.133330189309964 -0.3243863156674284 -0.8320547486283864
Ni 7.218429027398209 5.781854198252729 5.109455295366511 -1.0757706457279408 -0.6391510490846928 -0.7427312823712048
