# total energy = -381173.16736081627 ev
CRYSTAL
PRIMVEC
9.25066591606252 0.00000000000000 0.00000000000000

0.00000000000000 9.25066591606252 0.00000000000000

0.00000000000000 0.00000000000000 13.53928463979966

PRIMCOORD
 96 1
Ni 2.284979218153642 0.1315407680367663 8.280274697320369 -0.6059573359415436 0.9172166273087107 0.26062398570880274
Ni 3.130443822975174 1.141929943793253 2.5462522490546533 0.5254776932282369 0.6354106082056541 1.3481769687836522
Ni 3.0921368157147553 5.935680488201008 3.574235266180034 -0.024194594968332525 -0.5001983498361579 0.5046070204268148
Ni 2.9584831955991966 8.670695349004278 11.445921929165266 -0.1630331372365063 0.5692550954245035 0.7392620928756817
Ni 7.692909219948737 -0.17162205300608335 10.678176793432941 -0.3041995563069083 0.3767059510067512 0.08184746959511066
Ni 0.3558055851618703 4.91807949335246 9.767822467981384 -0.5450936676869516 -0.3411987592390769 -1.6680162885103464
Ni 2.836355905125387 7.241550732083403 1.7478948099110323 0.4548088659577651 -1.0044749835067475 0.5194206884008797
Ni 7.296619945853331 6.080647672643901 10.196205077089726 0.6305890184472946 -0.36999922841053695 0.06102924729817876
Ni 6.568416781271613 6.147159960062981 12.424351904563556 -0.14084863071966713 -2.227331499113319 0.24754915480271564
Ni 7.595471956612831 2.843682432473914 1.176898385750536 -0.6641601695345206 0.5475992077176246 -0.15875636423802336
Ni 0.9174477360208126 1.3327989321545712 6.680634758493222 0.07827235064934263 1.7769927531117655 0.3297308678087934
Ni 6.547093996500962 5.134110292809731 6.889193795148214 -0.18744653308386428 -0.5046381307750665 0.7015085282759919
Ni 7.201671111629487 1.8784217049712852 3.901723638126529 -0.8236289864585363 0.5722005512060726 -1.9667393950837162
Ni 4.858551458645676 1.5920488424354775 4.104799805135722 1.277323279195884 -1.5869110963978994 -0.19695190147113822
Ni 2.2928607854528154 9.159981566830421 0.8541158275189343 -0.1756495404489362 0.9700512546112391 -2.2312681151635636
Ni 4.666008099766576 7.072670576433511 7.256853183522713 0.8352292897016261 0.5658666385682448 -0.664720670023681
Ni 1.0961298971991131 5.0893093181267535 4.347478072623507 -0.667613932411076 0.3571249435510301 -1.0013140692802627
Ni 2.7743486919723837 5.176302579724672 9.140546842958551 0.894061529348486 -0.6126789709360932 0.10898906300690905
Ni 7.49150372319099 3.881514633523508 9.041114211000073 0.6768326227958665 0.7561025614717882 -1.8634129296792232
Ni 1.59135504249717 5.261464209485458 1.2762237099852236 1.5840759409419491 -0.30591293945358927 0.528824755323599
Ni 4.190644134035803 2.1349981728232468 12.746654353237847 -0.007324815796187385 -0.5220334434333784 2.0907339303605217
Ni 6.4778250106603394 1.9246472821942535 9.703672800618888 -0.09771220454150913 -0.834581114594666 -0.2690230084057754
Ni 3.892633933868116 3.5475655965514927 10.969853062697172 0.3159641530420042 0.27223817290896335 -0.924141636563318
Ni 5.28786560980452 6.645585835743096 2.745834439574529 0.40665544618099 -0.6229523278376432 -0.7034252856827306
P 5.860481825554317 0.5492934370236532 13.328477756702279 -0.05275363755294785 0.11335942416046284 0.13587483165415953
Ni 8.264526363787374 6.7436151416930254 8.064648151960485 -1.9298327518653537 -1.7837609250735342 -1.3941423797701733
P 6.639905926914818 5.101159421073046 1.3585046824021567 0.22500649361550926 0.39791472387388244 0.06058881732665049
Ni -0.22170978321896354 8.750223323266006 7.342015738350084 0.09857095299737863 0.017339005499079817 0.5963241837271537
P 3.7392023901778715 5.1472924916375735 7.135676861497677 0.4612561642450056 -1.6800372242306227 0.19717018812953138
P 3.4242819728471705 1.4833072654380801 10.198967325910775 -1.3408742644746519 -0.2056579138855684 -0.9499452278899833
P 6.765391209090037 7.161874747168169 6.235083838644815 0.23613834186261268 0.44727476236424907 -0.7018967648533461
Ni 5.192731762263793 7.790577749930747 12.489028859879166 -2.167271557706945 1.8069936703492298 0.9541222420858085
Ni 1.2688953325035275 4.561901106357073 11.78333441542931 -0.5823926612477259 -0.6193558687356366 -0.5436168260311088
Ni 6.336844863196254 8.306256117410108 8.498568209643107 0.324095523899887 0.3479149949169879 -0.21551320941309335
Ni 2.265321553234929 6.910441649525527 13.125036188392244 -0.10345142101813151 -0.23144350749010462 -1.420913220106114
Ni 8.727892215918349 1.1325775206248678 12.790034425647171 -0.373448363301402 0.885293810458185 0.5588359569737086
Ni 0.8553961196717578 0.34603873216366937 10.522190215836556 0.14359996821255913 0.0026166116872406546 -0.7414022791471361
Ni 0.6244328954089409 7.102328211129696 2.7920442906655625 -1.546783118028762 -1.4094265596227533 -0.10349744376471853
Ni 0.5470973289522637 3.293107531177831 0.2536356811801219 0.06786298239056056 1.0431353761914228 -1.2820119429208052
Ni 5.529918532281243 9.147696682589457 5.897928520891235 0.4979188097733619 -0.19695755789809305 0.11474319188186691
Ni 7.83124367698141 4.276906593032036 12.517501484280722 1.1885114624677984 -0.714991136143459 0.10517740257030272
Ni 5.1473757476301705 5.745486798446309 4.9687139379167276 -0.6742980292994709 -0.3429692208759384 0.8167813674090837
Ni 5.045840439325327 0.6574688732713913 11.209376853132119 1.3807502747339835 -1.4618984042692242 -0.959646000117515
Ni 3.085097059007395 2.7020824903982734 7.628507009408696 0.2829488744582482 0.47438395987621523 0.9929800954932705
Ni 8.83084287609734 2.581231791810949 10.822613914722966 -0.061487417881519915 0.8212414600629662 1.4849411450213006
Ni 6.658786535902627 8.646643617809618 3.7238851376732107 -0.248427700752927 -0.32962493835854845 0.14970633822061316
Ni 8.124878312204837 0.5978344559073998 5.427046502761927 0.009453689213732106 -0.8918005012284512 1.3641592031445218
Ni 7.849985525981557 3.0165866277659896 6.121503238344369 0.25707740600812495 -0.17208779123960685 0.6546105781728727
Ni 6.628194583956188 2.279317810657053 12.265251552844045 0.5561697229954551 -0.620888503330079 -0.49158361158395336
Ni 5.203286771991912 2.258346551188478 1.5943864856942815 -0.06174427108733238 -0.6510215752700337 0.1844465699152759
Ni 3.821857089494906 5.9724148822679295 11.311002817962235 -0.07855337222487116 0.7054729122403786 0.2965924333836118
Ni 1.6437415631723091 6.940201041545997 10.453220951569282 1.4372415249524926 0.20421655345335152 1.017698681285873
Ni 1.8051934341493887 3.3717474415185262 2.70180497042295 1.0830355548204702 1.2305713677523258 1.4248986871164233
Ni 1.7159430100855104 3.6264182722066027 6.0501778294866035 -0.15899496261139068 -0.20472563187928616 -0.11555643181178162
Ni 0.49317427268041963 1.8220573979831831 1.956697139077723 -2.3686606690138303 -2.8275550178948787 0.43836511857944505
Ni 7.446619492515415 6.233542677715188 4.2207097230957125 0.0598352269900776 -0.2659232864345291 0.12465993677494662
P 6.857241070256107 0.9857602030131546 7.396890688137286 0.7234282111672186 0.5639038584149192 0.04548744290883779
Ni 9.367594260369561 8.754978165509874 1.0973574605566254 -0.9466709280140858 0.3418356214921274 0.7351480707073081
P 6.230323446001441 3.963660546219117 10.734499472424744 -0.6623922790008205 0.2985595844123116 0.9801022110893378
Ni 5.137986321798409 3.030841903831748 6.263977368342277 0.15630764558721466 0.2966091455541601 -0.12060350731738584
P 4.340699184692951 8.527865068371371 3.3307179633001884 0.2601781564206358 0.6169585721480536 0.6924865272830396
P 2.352462825486352 2.2163022749270427 0.8634599250880599 1.0842894818322295 0.33275088558203986 -1.3794043022290503
P 9.004755393966422 7.53008825042673 9.834286651938076 0.19200407054755966 1.1078875808671436 0.1656610617776566
Ni 1.6160080669716967 2.667892029438479 9.456703149246025 0.08907021259579499 0.060271028975915554 0.5255499412270691
Ni -0.025526287330209913 6.3589354532319655 0.3207298354807958 -0.11964165762474878 -0.08046858696971303 0.3898162631364641
Ni 3.6387401591109443 7.92546170860357 9.262508546513752 0.9812589504016005 -0.701294612492973 0.6932354896339222
Ni 0.026830631214228032 7.4419201542666125 5.236724228751997 0.6193478983158366 0.5069225559338689 0.3314339665428292
Ni 3.0114895108858906 4.364815670548519 12.96066943260769 1.207919691791081 -0.7474430860245772 2.233330139898915
Ni 6.143579952381314 4.133974555074845 3.254735769256503 0.19412883020004632 -0.1206976096930889 0.023715084228752705
Ni 4.3948525825443125 6.088011202655805 0.35993415732809214 0.7140994775671251 0.30707224986901305 0.1762244391157997
Ni 3.8798957670007908 3.5287589928904377 4.102525066404658 -1.1110585223959575 1.0320968589890742 0.7779209428984603
Ni 4.758089227578749 0.9645669275643212 8.146736710527861 -0.5934306642294425 0.47494317481379494 0.19574682541944352
Ni 9.04260911860048 6.242922852881105 11.717519628214877 -0.7702089189661832 0.7519839113177242 -0.6872178226849326
Ni 2.775569779863804 6.7600350735663035 5.973816358143311 -1.35498242174126 -0.825231812169282 -1.3014564247986617
Ni 9.094181580681337 5.2062839877254 6.254973695276214 -0.5565708150886156 -0.1279964573473473 0.9496477512542225
Ni 0.5498965804366884 8.44336948655136 12.474798560611186 1.5119112458522415 -1.152066332266887 -1.0587247459892477
Ni 7.627488511099261 7.173317820817321 1.634164348823912 -1.8297906136390876 -0.7034193721454595 1.5827693063153838
Ni 2.030918931411276 2.011992069094247 12.017048787714163 -1.5825247944047456 0.002632809637156756 -0.1307010007627039
Ni 4.893185951565987 3.725770423372238 8.803350822275258 0.6072511150523026 -0.05545946651988513 -0.7928657371337507
Ni 1.2893115520214564 6.680386840648601 8.165001225170453 0.8664375969836304 0.9745473427093797 -1.255855082019779
Ni 8.774589577099366 1.4823914495195143 8.884478236661431 -0.5893714065584044 -0.2820245628717659 -2.15846887181365
Ni 3.2864100491067023 1.3594501004514237 5.813159119362239 -0.4816121021935383 -0.8910052590206654 -0.6042997457334625
Ni 7.561068730338622 8.050428953491519 12.988885813565362 0.030753479132772845 1.9012963349885577 0.129309519731816
Ni 3.9074164978869885 4.35906175639349 1.9013624311980692 0.3281856348088606 -0.13323610847973183 -0.3469351475022218
Ni 5.484553266981776 3.9950573060939933 13.40792617523775 0.23202020592918104 0.855613766895249 -0.03575118945768036
Ni 7.108738922559657 0.5011390959721899 1.5433570376984718 0.27262435260378853 -0.18904241681607442 0.19431574939987178
Ni 4.673001603144716 8.581944460895981 1.1795394508490264 0.5511856395173023 0.9244023464238724 -0.10441147093855566
Ni 8.796800425791051 4.636267209077794 2.404130569425405 -0.7522495062742851 -0.0132676636431836 0.3271268545270431
P 8.772239907974964 9.128039017670744 3.1858617868474246 -0.06386003187875453 -0.4957279727696301 0.402852527495132
Ni 5.253906415490828 6.060592229093891 9.258081177840765 -0.9743737932459929 -0.9748242505198501 -0.23793348608982245
P 5.836383841030437 7.7034734803427 10.549539809404639 -0.28412849658864614 0.3339310219330701 -0.5952900860356845
Ni 2.1596604479636174 8.403554620758353 3.6263618431449536 1.2744163899617342 0.7066458495025572 2.1619827985041797
P 2.04090039985706 8.738465726978156 6.217428942881351 -1.0012333366409982 0.3012044782343264 -0.5303437630712866
P -0.3204763672366674 3.058140618737687 4.141206725631762 1.4401527850620164 1.5113420036123326 -0.2838770426994724
P 0.209965137863294 3.615909515807705 7.855573853217978 0.2798103288292665 -0.20698691710963707 -0.2739397289811024
Ni 0.9708666310041533 1.1422629677636407 4.321306088817379 0.2243925141805942 0.7253261995208798 -0.44326846941833337
