# total energy = -340893.7828855088 ev
CRYSTAL
PRIMVEC
9.07420685275145 0.00000000000000 0.00000000000000
0.00000000000000 9.07420685275145 0.00000000000000
0.00000000000000 0.00000000000000 13.28101896389018
PRIMCOORD
 96 1
Ni 6.240259519931338 2.1040998829463176 11.376640858023134 0.2666210838325021 -0.7988882891787467 0.685413165376026
Ni 4.474382552311069 0.13446885782291856 6.158116169015193 1.1826838000424276 0.2411381090700492 -0.04450579572185883
Ni 2.8245283946432815 1.4107669531763132 4.94447002806786 -0.1390591429194121 0.8978634195930795 -0.5354443175226455
Ni 3.4142066585219046 4.343305633042839 4.840665637761947 -0.00676071576260126 0.053215150570398675 -0.06393922185612215
Ni 4.997256504687255 4.562420508056335 2.5383614822778466 0.9804500813470597 -0.40959550264592043 0.12504251692534593
Ni 7.403854150231408 6.037078952306905 2.521800147189135 -0.555125598001657 -0.5386335138839047 -0.2933821539764302
Ni 5.0656850992322 4.689531998891184 11.602762835636765 0.5854029088289595 0.5950190917624849 -0.8949367328645876
Ni 5.576000349201514 7.934159878092584 12.387817849170235 0.9684947087573965 -0.3325403122331306 0.2372853109828623
Ni 1.8429169845525835 6.64703806869951 0.4334685136448528 1.85405359995151 0.6645010978137073 -0.6750392783408697
Ni 2.807114991522774 1.5404192219547475 0.6934853764466195 0.20627883529901894 0.2463577055977757 -1.0850654407663056
Ni 0.5616797983609959 -0.10468912548269844 4.766571108402804 -0.31004933021946607 0.41285180479968897 -0.3254636078920072
Ni 8.623708863568032 2.170940491276521 1.481337967980118 0.28769950176935616 1.5169274681199099 -0.32486916884111794
Ni 6.905571298666362 0.5947770607589845 4.899659779349938 -0.33364485815121897 -0.17643578379565744 -0.206748832956902
Ni 0.6853893690135204 7.193287178156691 2.5373651343556833 0.7298194594055432 1.027675847103243 0.3535212853601718
Ni 7.517372479068069 3.8027188287170803 3.7414624873386013 0.5724833725538141 -0.0394818601447062 0.40016341069874306
Ni 7.827120533012068 3.8050236772801904 12.666081127289727 0.48929481554977666 0.02526211700089843 -0.17493040289472453
Ni 7.986381939040224 8.843014296927299 7.075887811011201 -0.5619549622186644 0.6084021979376102 -0.3919027133518477
Ni 6.872169142915142 0.8686729230775916 0.38465290998300616 -0.5878212884624651 -0.5392369517958584 0.004242834436753984
Ni 1.8138795223401682 6.661411612494656 9.06608824842932 0.7724442360546051 -0.2821482329338238 -0.03069665775290843
Ni 0.43301571071847794 5.037890803370753 1.387826450607811 -1.5998779409712125 -1.571148948467636 -0.04330046255984801
Ni 6.452205771461147 1.8123822781948404 7.162878603275432 -0.6222689286173735 0.33462290579377213 -2.035359053134643
Ni 3.491673163180464 4.589978874537306 0.4281791584187225 -0.0700918717210793 -0.5888895818259794 -0.3447242558938321
Ni 5.908461143119787 5.488751849460149 4.8260434606966065 0.39343020573996756 0.15939888291802873 -0.03345956521002625
Ni 5.403626714143066 3.1287411823530387 9.25301872626313 -1.0570648417883215 -1.2989318586045953 0.10896849418161879
P 0.3645526341871558 5.78148576538906 12.505460405061754 -1.1682090034650203 -1.3607249806519919 -0.527743349333962
P 3.907471473648368 6.404239513569013 12.522885604651284 0.8830947459243372 0.377537188658795 0.686960712368804
P 2.384574545297425 8.49748664501344 1.4693718112865204 -0.06222172494438316 0.8256323900418103 0.3452937552440569
P 6.344803458102975 7.514296322914942 6.05125740065281 -0.6717397816539915 0.9122392286987773 -0.877582043636224
P 4.82050910188306 1.0636966860824197 12.794203484777846 0.24838604888171417 1.1555105820617455 0.15314030360282657
P 4.067368074162421 6.217147514851645 8.22387299053071 -0.15179535953915793 0.07425500195983341 0.2731486005383747
P 4.880634797076641 0.8578991171760914 3.854497160945287 -0.3654010675168933 0.15816681028314053 0.38812730546981544
P 0.133005188243274 5.538042941565724 3.7272250566475766 0.4121295819216838 -0.531070356824666 0.2289446523276509
Ni 1.366512045923204 1.152569468866293 2.7336320637114806 0.40304793133538974 -0.5880107787654519 -0.17210578896173587
Ni 1.986071673259791 6.600378496606936 4.847624647065291 -0.6629679489986324 -0.6788241993045987 -1.1974879549347957
Ni 6.09880170792217 5.51322498558105 9.271080935179947 -0.6479128544377228 0.5064193910452053 0.9298993649827018
Ni 8.827352215746478 2.1058875017137693 10.343018816006529 -0.8433179802470315 0.9907656043404548 0.2111667595189395
Ni 2.509780452674583 5.246543117780839 6.98199154726458 -1.2841770688929237 -0.6694890379466018 0.564423221253499
Ni 0.5526536847164054 9.043445379848496 9.148855904783032 -0.12631315610765342 -0.8848940039166051 0.06408371785378641
Ni 1.7799601367932907 1.2129129450264688 11.438729304178137 -0.5907446327568472 1.3104113199991045 1.0301255941953162
Ni 4.276936883473587 6.78553768924579 1.5882239589633242 -0.7013889719789921 0.8854866431952814 -0.6458107204930555
Ni 5.8179277804656415 7.75630542204154 8.260528249470413 -1.8056986056868902 0.5240887833005102 -1.242492287559628
Ni 5.209102939940707 2.7990933925865944 4.731775154465389 0.3750141651266251 0.04941326032580522 0.73131661277636
Ni 0.4900062674138136 7.264937116165826 6.657496092199451 1.0096830100702483 -0.11603799943389047 0.580535296324013
Ni 4.934072801754427 4.401661857882852 7.202469368160672 0.44777689881164817 0.4735043854847394 -0.49400764764441374
Ni 8.074211188025838 7.131083489573532 8.774092065524743 1.1041522821944274 0.6486826427242118 1.9612164083829577
Ni 4.392687467217827 0.5722585088132565 10.603871413267596 0.3105548091009748 0.38222250994960627 -1.0043348583844574
Ni 8.01640848980925 7.112971372518538 4.739769530780745 -0.12263133638069201 0.35898307980569144 -0.2295501471221337
Ni 7.164957504085702 5.860758037228954 7.174021729399447 -0.10094279566366487 -1.2487585801843137 -1.963978030288495
Ni 2.5227021233591076 5.330915093921789 2.5384676504990606 -0.8767626330587223 -0.5327531438437276 0.6613350413808997
Ni 2.547229704721657 5.415287070062738 11.297419401742111 -1.5852635334921472 -0.22022295618393686 0.5415056932253771
Ni 1.0825075170718998 3.407827491042115 3.66246697881042 -0.7534849213432829 0.6163888156875126 0.5922158179857349
Ni 3.509422311957803 2.712325825813121 2.823531139300424 0.4968402319972024 -0.5500019036218463 0.2697074360673097
Ni 0.9366396404892202 3.2396915106252893 8.327730011236884 -0.05983831231387113 1.1193978954995882 -0.674166388817613
Ni 3.409288438359677 2.627246061530744 7.2084057143417235 0.2728665505215817 0.43870270442452186 -0.2258125344565724
Ni 4.112775405697085 6.7493497519635675 5.910930234828537 0.8193391008339309 0.7539495196845274 0.7291342604130604
Ni 0.4825826587150708 7.200936734608273 10.953892612458828 0.1303382181066465 1.583607485945963 0.3454829884367276
P 0.2895234615130513 5.558042493664525 7.995320032877483 -0.11175891244256236 -1.3071943557237036 0.7162880005780116
P 8.527912460887887 1.5139043892720359 8.200179328786072 -0.6492459714268496 1.2850754123374772 -0.8273655706828331
P 1.7453238888980442 3.3203793587480384 10.442612774291643 1.2106975116465342 -0.23217035835380015 0.19116229137255464
P 4.055871053967693 6.199180585107713 3.707077594975631 0.10875072174385787 0.19212439817550783 1.0027338324459247
P 6.967294054281627 3.886936543340026 10.569698857347056 0.6932645430996447 1.7492243247492454 -0.5878948220128779
P 6.561522742483947 7.767085579887899 10.26130013797524 -0.10975859418308193 0.37754104531353694 1.1474738278001981
P 2.324757373139849 8.446008669034992 5.932113063512493 0.2691770174851364 0.27940589430199625 -0.3299221578839931
P 7.101955285291703 3.839342327932489 1.4645116660487174 -0.44896911934753647 1.5629345309776437 1.1968258958707645
Ni 5.491138365885732 3.1195853075491864 0.2920152387391542 -1.1371379930918286 -0.7958101644740553 -0.30198326538188
Ni 1.4889049491485344 1.204147261121096 7.011328458306061 -0.921998107857754 -0.816364334476323 0.00988100655913782
Ni 6.582620273622656 0.8379848626225392 9.25228825260435 0.8322820341478441 -0.7529745573657677 1.4128864931468958
Ni 2.4910875863753406 1.5597472827398864 9.299316237498745 1.162551805179243 0.6384067147195005 -1.2364231985474126
Ni 6.1786184321785464 2.069155112015064 2.500125496488955 0.6864943142553468 -0.17560763146740724 0.3994956952077572
Ni 4.173427404893268 7.1782330688409415 10.317253512817176 0.19055551102649118 -0.524643884473032 -0.2485043196271333
Ni 8.251067481313331 7.293493645410347 0.3763137138038781 -0.09728591563736794 0.13419410151762695 -0.11053635288937091
Ni 7.457156041805073 3.660625822222014 8.238030568200651 1.7519499512105248 0.22584184503261104 0.4123473543594447
Ni 3.2915959743299816 8.674905539131297 12.473240618474996 -1.1101923177409203 -1.5853542934337408 0.8579935799813353
Ni 0.24049733625016467 4.869246667365211 10.346989688964078 -0.9660277352741428 -0.5733531767532771 -0.484502793477772
Ni 8.784313252223514 2.3280785328803946 5.8336479365708875 -1.0049727490787723 0.3283000488995378 0.023530993242404635
Ni 3.6829574455047496 2.899181895150013 11.603732868358797 -0.5591493744490693 -0.8938136750037381 0.02438742770542897
Ni 1.267757451780168 3.5638040341574917 12.693095041354216 0.007349498386535729 0.03312969267443327 -0.028289333862996438
Ni 2.959970007450316 8.520680317955605 8.009251662794584 1.1376758678731698 -0.32671187847681155 0.6575367506807321
Ni 5.670898405394465 7.808581928230828 3.4826152898115788 0.4086318531810704 -0.26534478822323976 0.7057806732887845
Ni 3.164566151357606 8.50440119070277 3.5759008594310453 -0.2244094834614587 -0.7275072663325988 0.13872927038381913
Ni 3.433924910205523 4.387134052569703 9.376226493271798 -0.17460952922019607 -0.07566653759537936 -0.657502555008687
Ni 7.321478499617563 6.115815845937256 11.546438325730925 0.028309902688286724 -0.3546104046592925 -0.2588203568411607
Ni 0.9039543470863701 -0.08888911635636798 -0.1894494776807386 -0.7693938792640556 -0.43809283875466487 1.512410554086163
Ni 4.673906214538127 0.21967475358178049 1.718444273096289 -0.07446300420558144 -0.03681922571087853 -0.9130252149351824
Ni 5.987325075647319 5.539304256330575 0.37884904722329965 0.7531589054624319 0.503227623580785 0.10817839418015562
Ni 7.864569785059142 9.02821886060086 11.694282564585437 0.21284980364831727 -0.49045438307551664 -1.266832149856573
Ni 9.178378837066811 4.893828693969408 5.919588843092002 -0.09407023691354767 -0.8229093346836924 -0.666668023558039
Ni 8.2509948876578 8.94437318846251 2.355335635690911 -1.0376668968776839 0.0961965392279311 0.452145460192989
P 8.424929286310167 1.7395980643180333 3.699958879630119 0.24093344925841084 -1.347383012127447 -0.06708008147794899
P 1.8722992666287712 3.3172306089393793 1.5979188416594945 0.09223344081512502 -0.1606687507693878 -0.5142975082417013
P 4.6296240846641945 1.1459090009713204 8.276983416337911 -0.2536159298220858 -0.399783401651505 0.2771757194198969
P 8.828840385684863 1.776983796916518 12.56808059974352 -0.1376344946577436 -1.1794511520377429 -0.0006324913776763301
P 6.307254389779545 7.606417671783829 1.30791444717855 0.8106654843193329 0.9135196380730978 0.3736013439394985
P 1.7368395054078538 3.2609070064542354 5.841695850707197 0.5702043467116502 -0.19530305301380557 0.6506050565579052
P 6.737226611489884 3.7984176546268658 6.066809683929641 0.6279299835578928 0.035086302180171836 -0.2853407717291925
P 2.330446900892095 8.574263509944453 10.306562282198842 0.30884425416777134 -0.8480984323548103 0.07089019925265855
