# total energy = -340893.46091987065 ev
CRYSTAL
PRIMVEC
9.02879506932532 0.00000000000000 0.00000000000000

0.00000000000000 9.02879506932532 0.00000000000000

0.00000000000000 0.00000000000000 13.21455422855285

PRIMCOORD
 96 1
Ni 6.2384008096879295 1.96040421597366 11.269543372966966 1.1165408856667673 0.5100135361543667 0.7267763017038451
Ni 4.781613753927575 0.34719418850389044 6.1121276933559905 -0.19331173361538967 0.1928075402854615 0.1174222813759268
Ni 2.766513097419445 1.7188749190542791 4.663561355506933 -0.22962136667970134 0.12693484885205233 1.3788414877470445
Ni 3.551575857556902 4.168549539874909 4.827540525810488 -1.253007328158339 0.23977079640887738 0.007495279935780639
Ni 5.068359256557856 4.7156042331703105 2.6247276082776225 -0.5469417766392839 -0.7040114972035036 0.4675386548196077
Ni 7.134210770154837 6.165854441299936 2.4267866253180075 0.828724912924205 0.2194860780179123 0.6038850267935472
Ni 4.933649634112445 4.6354465905382485 11.574416890338927 0.16066926499002007 -0.5152752987739384 -0.8773809833690116
Ni 5.508711649715197 7.742498751615438 12.315898559552675 0.16462233610049712 0.982831951315675 0.7606598418251674
Ni 1.9936211530364394 6.056262926739453 0.4925207710721932 -1.4733256722695593 1.2747632317781916 0.2618545156817942
Ni 2.923045317549209 1.700194342054309 0.4031826496128873 -1.1261444701948025 -0.5952602612390135 0.17509135395262104
Ni 0.7183408674491635 9.29243588611368 4.568667816441015 -0.015099317535283673 -1.5730155693627295 0.724538670622578
Ni 8.630200854109424 2.14309285542141 1.3107399753454598 -0.5694247882331483 1.350707705625306 0.16060241630782662
Ni 6.987420619905676 0.535298299234667 4.627089537821394 -0.3313406354980745 0.9570849242585583 0.5727872769474781
Ni 0.8252544413918632 7.439889656047049 2.5117295293372046 -0.19124585222529644 -0.08933452200077517 -0.0932924782072587
Ni 7.303031180374963 3.7868843146730065 3.7473174260374487 1.6984414377694232 0.18744267642912235 0.042490307953726825
Ni 7.734571469543918 3.8174919299605357 12.659754802519162 -0.7803190108169916 0.03726762610220678 0.09291992535918836
Ni 7.971324533871234 8.997880475747792 6.873920539959362 -0.25920216566061166 -0.05144340338195656 -0.03603015415067988
Ni 6.830689766284371 0.7518033877378485 0.2926440144495554 -1.1526566575527182 -0.09068666515329543 0.22819646130771667
Ni 2.0114530232998233 6.496028448217241 9.043551732730222 -0.9180954303692382 -0.49995126682235824 0.689258250153729
Ni 0.01682335385405715 4.686910722437635 1.5206386944958725 0.09616491465904728 0.08242211115165805 0.006193530405221592
Ni 6.377579685693023 2.023994019652147 7.032746074036923 1.0201957366761139 0.026434282932128666 -0.05915234199044006
Ni 3.3767242122299708 4.159782579861873 0.156427486106951 0.4022840565861717 0.09728591563736794 0.33339443270330965
Ni 6.132104805328022 5.6757082433311705 4.763251893393579 -0.2883512764207421 0.3651496136277196 0.10131252029825778
Ni 5.430874407416144 3.0704945698384845 9.249065166115104 -0.17104366624580866 -0.4109833841323825 0.002798131570427439
P 0.07173648547020893 5.709566224843924 12.51509454502703 0.22486482583132242 0.1224729564259568 1.371556009829225
P 3.855774021057623 6.333528194546163 12.622198626545709 0.31571707002820465 -1.2205309527971884 0.5366514504568693
P 2.4358876507486356 8.63488679875079 1.541741697213142 -0.589136664839779 -0.23072951214221551 -0.9103934337392903
P 6.4109771986572035 7.748737649008855 5.858831167821791 -0.640522989731555 -0.6386818227577582 1.089509592580588
P 4.82877115057854 1.0005168968944824 12.615855898008984 -0.159849340191886 -1.1331571540672096 -0.2065097203629024
P 3.9910524575924473 6.0361467713233425 8.08917017288477 0.4926902143845708 0.4363182633527453 -0.09504699900452018
P 4.640249909515526 0.9205578877539629 3.9083098709318262 0.8230885405740341 0.9944430531920422 -0.13566091587114054
P 0.1139154045195372 5.60637612598812 3.5779859860163565 0.1872022782835421 -0.1982017147178393 -0.5893909469424301
Ni 1.5147428913151184 1.3543373181002956 2.529226431303489 0.5485397172540231 -0.2910110826410924 -0.3141576959608848
Ni 1.8447995238965134 6.4535931113879235 4.823140793972844 -0.14191923807602655 -0.1851194276125844 -0.417224737056404
Ni 5.921986686457407 5.376837068921788 8.904006287645284 -0.23424343883274495 0.7157640097537415 1.2652187826228662
Ni 8.699776748919367 2.4293598319129766 10.248785723284406 0.04697019810195137 -0.04548924268105069 0.8225588933228092
Ni 2.368713415427332 5.227455654487519 6.913510903462102 -0.9839876621866731 -0.5426619183170074 -0.022803628158076857
Ni 0.6425676077031274 8.604017348406229 8.839241837728181 0.7586052732889839 1.2243827224431107 0.2640646359592355
Ni 1.7038600328527564 0.992986881806046 11.404120272124844 -2.0720926611102506 0.9691066313097825 -0.0536111004572367
Ni 3.8334367820542754 6.853207581189119 1.847156942289308 1.2573794890841055 1.2282288356620783 -0.8649365869580716
Ni 5.448941026351349 7.776627596980294 8.3285921490348 0.620576628516615 0.08915454477948516 -1.2727338600529887
Ni 5.361849269105476 2.7864938209095045 5.01036459718429 -0.11368235471752033 -1.0083120978646505 -1.2818414787812118
Ni 0.464490876777168 7.2164721220382235 6.776423096395236 0.812009399941737 -0.7275615166093018 0.23608049204148374
Ni 5.092294592288605 4.599087632791087 6.596560469804417 -0.10070753972440721 0.5326063338532182 1.631002430290159
Ni 8.16536236872206 7.013667327174363 9.299782616662196 -0.8290059344997335 -0.3146109814482194 -0.14479810228571835
Ni 4.755836544002532 0.28217602944531894 10.206247458191289 -1.2602421553438812 -0.02665385514210248 0.5290744094405598
Ni 8.105149334399778 7.220435763073983 4.631846809943813 0.8408913730834099 0.36051468595886943 -0.20559337919622012
Ni 7.330839869190771 6.007489375770948 7.0651747972900845 -0.31314031043996393 -0.022935011529618566 -0.8300778274076736
Ni 2.5260040543429816 5.089820702439407 2.731038961589149 -1.8604823862959894 -0.2482081285429532 -0.5193360991068733
Ni 2.2807548938547324 5.348784602639088 11.427840722532927 0.2932654258929078 -0.5851735664269728 -0.3294184787746972
Ni 1.0126606262637234 3.398131485341101 3.8250454199161545 0.1151946775969887 -0.1947510371650775 -0.7901390822312069
Ni 3.737361373713685 2.567987951418796 2.6004925165505473 0.4441143623583964 0.9152661884505592 0.45305614493271656
Ni 1.1070747363114215 3.3960729200651256 8.40280433011322 0.622293868318038 -0.10349975775756369 -0.27945397393111227
Ni 3.5726219788652296 2.947775187246124 7.384279501451488 0.27538520317837734 0.6616060356540993 -1.2361136377267938
Ni 4.077196191355963 7.029973331070905 5.931445252172809 0.4747598551583953 -0.5671879284828296 0.2619452756233876
Ni 0.7861967767982574 7.34256827398679 11.25203473356709 0.13211613594267568 0.6375183985772763 0.18381947785423824
P 0.16015728135039597 5.402117695117978 8.126924079470259 1.0670124399193364 1.1488948765174407 -0.36661771353281375
P 8.872741376076654 1.4709983792006405 8.170955707267966 -1.3422127807804174 1.090653219266728 0.6054955658137765
P 2.0201748393375083 3.271800584720714 10.550037790953763 -2.5784714287255075 -0.2724397473968082 0.26244921184299963
P 3.9185963771551537 6.116647508168066 3.910332321027521 1.0922079653483576 0.6647679783218486 1.0402631968499503
P 6.873025786367918 4.0302554857866815 10.628201875634353 0.13222386516513357 -0.1953992122720377 -1.350060301849294
P 6.353879098634096 7.7691066106869275 10.289168814994298 0.1470339335947726 0.5284442320557285 -0.5297691215147393
P 2.2572529402873465 8.342832364619309 6.017220611097467 -0.7829327942907548 0.009360358168977427 -1.6013954060570033
P 6.818473806554569 3.948535861607499 1.5879140523219613 1.0389478204726366 0.4758232634259032 -0.3358855745562796
Ni 5.334085724265019 2.835014565616049 0.540364356148482 -0.3430165291741061 0.16087341058102617 -0.8627544917050883
Ni 1.7213036649281275 1.1754949453523946 7.091815160023827 -0.6123179880522487 -0.028511220065815412 -1.013083808221681
Ni 6.86800577630896 0.8294528310994448 9.134058180271595 0.6387003347005193 -0.19164257344308286 -0.48672911170512945
Ni 2.7372959165727058 1.5894742281100689 9.150127629737302 0.023609668999139986 -0.5987556759867816 1.5000769722214744
Ni 6.240540634119535 2.002758293647348 2.617142517539259 0.42512033775439684 -0.8045004931592016 0.19547711669782464
Ni 4.06748120786057 6.765366433952431 10.448880073868231 0.4706656304843636 0.7252855760909316 -0.88202465278861
Ni 7.779986308746358 7.55478107331366 0.11498712249435424 0.5493889526281959 -1.1620746084325084 0.1207739714569791
Ni 7.756755219031075 3.8259880261214696 8.34250642511728 -0.7527526711629487 -1.0053275613150299 -0.19257305567715222
Ni 3.1114491842763115 8.419270143682501 12.336672011249886 0.13709533432482196 -0.3970855431043678 0.8731864856716898
Ni 0.1592553047228962 4.99687828598813 10.468186346366556 -0.5802357628057233 -1.2299447899119205 -0.959959931813508
Ni 8.635536871995834 2.079196072710541 5.673827545318074 0.02761673327600405 1.1789006788509115 0.5341770207744478
Ni 3.6494118809361553 2.356614830033441 11.471184356146296 1.633706202374567 1.1936559827832154 -0.8748656731463255
Ni 1.0287950830539345 3.238430158141744 12.62344098874735 0.7426659763509079 0.32343757860091393 -0.1817433120514999
Ni 3.097526782278267 8.34432211580587 7.942700544860598 1.0449893986810261 0.26775185500283566 0.7261790344394784
Ni 5.503836100377361 7.903762060361918 3.815517332478712 -0.8577197574946582 -0.5828716577666736 -0.7649121893436182
Ni 2.9549982233021788 8.439955113188027 3.707528429043167 0.28212457878473995 -0.3850468667722788 0.3970084100095292
Ni 3.356346221756828 4.3121886406446155 9.358850799769591 0.9337817307562435 0.7977480049267164 -0.210597774389347
Ni 7.090078019852346 6.067557949372109 11.385223906922702 0.20066920242172537 -0.5048828997960207 0.5338988274123966
Ni 0.6145837602629595 0.1137808754729932 0.3323833530709514 0.6157984904016814 -1.1019904986564184 0.2201602212668015
Ni 4.501396070132954 0.44913831364002493 1.6321027811538864 0.4690936580115534 -0.9981922358218291 0.31643775024431303
Ni 5.845332216312532 5.618682373668623 0.4710114725767709 -0.4380465588977617 0.5998131707170186 -0.7006253543400901
Ni 8.077232300043127 9.032587163997132 11.144586654956242 -0.17934781523612983 -0.7775913274731835 -0.5036932503632938
Ni 0.08094675932118499 4.65289925140869 5.532603647229611 -0.3105208705392459 0.6876230285431512 1.8722996906458915
Ni 7.691386742723784 8.786480267977225 2.401124081090354 1.1040509807298726 -0.14760086184183613 0.1169196307078954
P 8.506786254296669 1.5951262538239313 3.3755260911241725 -0.6582319769755438 0.53527333916242 1.3358125336810287
P 1.957831009378691 3.3868454915035167 1.5856803284216263 -1.1303307403620082 -0.9763869670212797 -0.3939097164795474
P 4.691181342505778 1.343574994376775 8.165550167659516 0.46300965660100263 -2.20723035748807 0.47263766660906986
P 8.488818952107234 1.5799578781062176 12.444555277783111 0.6506554501798666 1.1028489900019718 -1.1688427803942774
P 5.978904210579113 7.874580994695458 1.5248930627328885 0.7192959341663999 -1.4803517258784054 -0.7912665109674307
P 1.7920442743021077 3.1435014067750515 6.178940776874491 -0.2603653327307774 0.7771490977294422 -1.936198803292698
P 7.052680750672126 3.8225119400194933 5.973625976981151 0.20746128564289432 0.7499260003474311 0.4874585336719863
P 2.4718493415127156 8.508808704392365 10.136012461341231 0.03441293026223106 -0.6937515100383923 -0.0366994123035626
