# total energy = -381177.3460956194 ev
CRYSTAL
PRIMVEC
9.17950624572337 0.00000000000000 0.00000000000000
0.00000000000000 9.17950624572337 0.00000000000000
0.00000000000000 0.00000000000000 13.43513526933479
PRIMCOORD
 96 1
Ni 8.49885511193192 4.811933934396745 3.29968278519952 1.8173066222394638 1.6361405228476724 -0.42922407551012526
Ni 8.682693085133506 1.986894964872914 12.351712389430666 -0.38563899183032296 0.28281234888038387 -1.9966061007361613
Ni 0.4848651959702899 4.508000479925057 1.0633117871371083 0.45249975820861427 0.29511610594840143 -0.5583219934517674
Ni 2.1833731182861422 7.683384487907553 6.817028188512653 -0.5284773992865093 1.486073458853531 0.20050696581224822
Ni 4.208408931945823 4.397956558082515 5.545956634687002 -0.09596256884025409 -0.8132856955509993 -0.6811523332171431
Ni 9.059989154166887 1.6057067851570797 6.470039177566971 -1.2028515332395544 -1.0582231237624806 0.6404756814333873
Ni 6.0028004696449 7.996625961794351 12.1936082442649 1.4585035196550624 2.480495428999651 1.5310451384682149
Ni 2.984009660086823 4.004954353724425 9.1531427843686 0.48411789933452753 0.5686480579681239 1.5832259342368282
Ni 8.01145086451171 8.908288632614514 13.2743574216199 0.04610193656438512 -0.1289822182993843 -0.2931119310341791
Ni 7.424715179132027 8.830464777978122 8.072903987565354 -0.17923083004229132 0.9336164088229727 0.3599235893420898
Ni 5.425721624920736 9.280756281320137 10.031559119175304 0.3632439119645744 -0.5623331714936897 -0.3438058578446208
Ni 0.7095042388920727 7.261898275418216 0.08231171527943734 -0.6665942328973101 -0.8494706301119886 0.5265830104772737
Ni 4.364442180484324 1.5486469738313169 6.132655602041378 -2.0641842048964514 0.6757687003077265 0.2563713810800359
Ni 4.878191611061698 5.0760375109175815 9.879634617668565 0.4252499213537257 0.4079399693203684 -0.580730957274587
Ni 6.501568945897365 1.7608312625692524 5.7419354229560655 3.3319787186662935 1.676810489763209 1.0457401608041217
Ni 2.0335360365180555 1.0974558788693005 6.016186025770258 0.8760938891264718 -0.5734994725231543 0.7948951088589535
Ni 6.315463634633126 1.3156160262258125 12.135635072059646 -0.48067519220156574 0.12810958588644386 0.3362095335546016
Ni 3.4301061290376107 0.8454802661070863 8.628057581428582 -0.15693756586172972 1.1974810129562603 -0.11766062263897802
Ni 5.462072469973829 0.27609109383266334 4.323601638886921 -1.2490002638814746 -0.18317387385043937 -0.28615683987258456
Ni 5.0323155222842795 2.866851620841213 1.9982481782975767 -0.1915703254442507 0.9212776847519618 -0.5565726148608285
Ni 7.562912646878064 0.7855426795479536 3.454186727984019 1.3983697875879595 0.42259140068495604 -0.16182728985386322
Ni 7.271674449655979 4.420611579696412 9.113146757353238 -0.6052399981595448 0.5146520633676427 0.31038537340264616
Ni 2.9217175301549334 6.45344997373365 5.135661158360346 1.594412804091583 -0.5765266893852522 -1.6056040448217122
Ni 0.5549332857113902 2.5581172845607467 2.8575995964146954 0.35306388610777906 -0.1994813527612113 0.8604381848670858
P 4.912779990900097 7.188159301097133 10.622919439842299 -2.7753773074500585 0.9252279276489613 -1.4547273404420817
Ni 5.438352625626052 6.862754981327672 5.084781908644242 0.49287430537091886 0.4113757344747947 -0.452269387365363
P 1.324474249830922 9.276350118283398 8.18698230243841 -0.2370809082815401 -0.47899291940313643 -0.3514057816790658
Ni 4.134256879840046 2.030011106088665 12.783800013776524 -0.7178779707729508 0.8613416705179617 -0.5489639492756352
P 1.7744261114388558 4.470015682745841 3.7637325326237514 -0.1523779715155053 0.024435764444861143 -0.6903496834456949
P 0.43528209254749256 0.6999153265833706 4.469627389628229 -1.0080886689999347 1.5792972886063834 -0.35363235701673934
P 2.3241867453352416 8.3895455505955 1.6048540090193442 -0.25243039415441687 -0.5958801542111996 0.18864183894354608
Ni 4.496746405168722 6.198727852678536 7.135480868141027 -0.024159627965339037 0.1438971877380038 0.7336853701188526
Ni 0.9614706721479604 7.879899359346089 4.451006761044846 0.5656848615747418 -0.1888729811177457 0.2964055141837863
Ni 1.4861069972286107 6.0255472863220625 9.448688923909728 -0.26938321995867154 -0.4808240590746041 0.5042666063682606
Ni 5.035684401106119 3.708456299377235 7.84109391430128 1.9947225105602036 1.0568306142903283 0.15952538119356396
Ni 3.1918245038133266 2.6474797786495983 3.7349814008584 0.27391607483201863 0.9334819401276375 0.5061085446730057
Ni 0.8036373224188261 5.762912430813471 5.535235889248237 -1.1262827955448798 -0.2610937262563697 -1.2256852433046181
Ni 0.8700629840495562 8.479348660988027 10.551014530885256 0.6158581399950231 -1.1282136940190053 -0.44411539079966095
Ni 2.659615086013282 1.3749615346268835 1.2106410277767845 -2.807394998007236 1.679321943331153 0.571391682151532
Ni 7.332497858575622 6.401099249153402 0.47395259884930097 0.4304782596322006 1.3483795717127618 -0.5190815598939061
Ni 1.3074279065825403 0.16069184799921826 12.881514022721259 0.08625511174450305 1.363941944927393 -0.6329752592912841
Ni 2.5803408693772965 0.4837884398781869 3.696677156859021 -0.5371947245548491 -1.2357192305018525 -0.36732039602679323
Ni 4.477432723857684 0.5992345011938972 2.130771793183179 1.6154372288620502 -1.0478597782502856 0.4808973355147008
Ni 6.656381320094435 4.584401511080837 5.004897254837542 -0.3118838123250435 -0.12861712165048172 1.7187423541103044
Ni 5.115114669349655 6.717112933950814 1.25260697684982 -0.7035484415241561 0.03126692843408163 0.11428862084295156
Ni 7.207619854509394 2.08884256213545 0.9653995008557188 0.41514497170923986 -1.1265231936904596 -0.02329136642777279
Ni 1.5021435947810733 3.5370565572481096 5.727841208942299 1.2161305097366475 -0.907067968910483 0.0854603837573496
Ni 1.042415558935376 5.406178455951536 11.969321694386055 0.11405824999970034 -0.09516141309519739 -0.33534487156146114
Ni 7.348552815140739 8.78973530840727 5.609921270671586 0.3858878746163354 -0.3161451587045588 0.7799143191794052
Ni 5.154770136680302 8.633068673932238 7.138033688850437 -0.22865026101568361 -0.0644542138193277 -0.32191908507385847
Ni 9.154740018469417 5.2722127406220345 7.621711974652706 -0.11071992965508673 -1.5205393538408847 0.9310185661888094
Ni 6.16766440326953 5.674779990572376 3.128881546882885 1.9702180976609358 0.17396829609177136 -1.0390758614100684
Ni 3.602589052913267 9.032230327035435 13.367314610386224 1.7559747560992016 -2.739760586687714 -0.41641509667091514
Ni 7.875484016803023 0.3138179468841036 10.637160525957288 0.04383139536265354 -0.15211237655894447 -0.7590377328407121
Ni 7.387611614560159 4.303224052792639 1.2644760785300344 -1.3642450779901085 0.4146644325283955 0.32564024267918756
Ni 2.3976962319981614 5.2629965162701895 7.171769292551098 -0.5654007546754198 0.32144934452629154 0.9806508845039562
P 7.271050243225774 2.8347325282046554 10.710154124364658 0.3983209581733656 0.15542755697510652 0.305534473068248
Ni 8.280731682600715 6.924606494955888 9.241787441062714 0.20054116148429332 -0.2451868252181261 0.9373146836101665
P 5.290709445870009 2.7421939249268212 4.324582010162596 -1.2305919365776161 0.48164861185842855 -0.3744467226589293
Ni 1.8892525560775248 6.44989750478528 2.6711335305518222 -0.515570461416854 -0.5251449924791666 -0.06442593168455357
P 0.36455032449898345 2.0848494768834054 0.7569475993901538 1.1891820061722618 0.981844133481109 0.2695297728388648
P 3.828138702862643 8.532498002618684 5.384546949293048 -1.2625859729857096 -0.23920721059592354 0.05391294796837167
P 7.550841596058665 3.755464551275438 7.005213575910488 0.08450881847735768 -0.2758490301886733 -0.39625147723884663
Ni 9.394490364705947 0.20387040985798968 1.7892372448967253 1.0528747149663737 0.2134694395101872 0.6265806686188499
Ni 1.7846337224739666 3.0026715964486757 12.561421883262968 -0.5995743152333352 -0.24646646326149813 0.31528563891774086
Ni 0.24704988966739375 3.663954052706177 10.272249446859673 -0.7392461520360817 1.6915161714044995 1.2933096273218114
Ni 5.866383826126213 1.5657392146113314 8.10053980931203 0.3281856348088606 -0.7171398070553455 0.24708738467494862
Ni 8.804578570137283 7.281872881184762 2.4250419813449193 -0.6248909396212528 -1.0702191197820923 -0.21381139623063825
Ni 8.585344420540565 3.2293595051825417 4.934618036450931 0.02379041755137838 -0.27641313022225944 1.0778051596594664
Ni 5.781280622972875 3.8010958772246606 12.391521154516964 0.23110463609344714 0.3006468059586435 -0.07306792363026772
Ni 2.6730722422879873 3.6480826862675917 1.6108996318860023 0.037923514518650815 1.0495672478596956 -0.5854188496685595
Ni 2.6469932648142915 5.920588810984421 0.435060866445023 0.6409335949064123 -0.34907070578798594 -0.46485827977396715
Ni 7.057902106323552 3.0933375804358954 3.257657169335362 -0.5846485471614383 -0.9226622238043142 -1.3233707083732498
Ni 3.370173132231641 4.420675836240697 11.525438404410597 -0.5121318680489503 -0.35554320088620706 0.7986890286837471
Ni 6.493766365519808 7.947350371833492 2.8223319331081345 0.12827259382686942 0.26585618064201955 -0.8257043809303263
Ni 3.215213885933346 0.15182811669031276 11.07816971250191 -0.0693706772843386 1.2598297503968108 -0.7032669057279952
Ni 5.882897758007656 7.098741729970322 8.749645650427379 0.5725335090654592 -0.2067192652705472 0.3594253095494326
Ni 8.183006658248386 2.1899272858032908 8.58294214373491 -1.5350835702036467 -0.1907282891589296 0.3308374706094109
Ni 2.776984253904402 7.099246602818281 11.564763409513485 -0.06868650673312042 -0.32586367154390333 -0.46874681619509595
Ni 6.662237845130767 6.021352251930834 10.973428791464208 2.6650240171057717 -0.6862837409064374 0.3877241564941258
Ni 0.9257715720440525 1.5858147949474708 9.795960663650268 0.8505885457665158 -2.5293996108995214 1.3845390523524543
Ni 3.9376869313635523 7.5565879670190785 3.218789303647533 0.2703152448546377 0.9033835780803602 -0.17870118279106645
Ni 4.796393030185914 6.1576954593989095 12.474429537707628 -0.9066907880767224 -1.728341310652649 0.5916668874608004
Ni 5.073559044209416 2.4762728061533297 10.19584382595073 -0.3349432652476683 0.6478809727585229 0.26173521649511056
Ni 1.15309286671445 3.1085572019252967 8.230027761455446 -0.36272197802283335 0.5463691919652655 -2.8552928501297794
Ni 8.086520867250142 6.880196043348095 4.6626907666879855 -1.4598039836340408 -1.1304186720901241 -0.4863447317825172
Ni 8.927932776153305 7.423319894170393 7.010440386812818 0.846119968472201 1.4904975560631557 -0.6167528838951507
Ni 3.156116224203092 7.640718142501803 8.897579820533974 0.9338321243782046 -0.09389874433268988 1.2332221751116117
P 2.831730829635877 2.3729758214607934 10.587034913710594 0.14964823128916807 -0.3434736713161826 1.2382206567674674
Ni 6.959745645173878 6.074189490346389 6.847807991176169 0.0359008276616672 -0.08320578339521799 0.38464088958311177
P 3.1648551142259564 3.220767487260902 7.207197597218372 -1.108803922033826 -1.9091559402422926 -1.6823761567764444
Ni 4.074305524021423 5.138724359621512 3.0884559189714427 -1.8307223814247373 -0.7980200276411804 -0.22523326491433465
P 4.476294465073194 4.601117392101463 0.5471940439274857 -0.36695581359852286 -0.5028707544619985 0.9422594292099514
P 6.1490208259203305 9.361535936993674 0.893624940888515 -0.3280647929602802 -0.8586157869463664 -0.43271691915473215
P 8.369626021866912 7.427918826839989 11.534158017470174 -0.10250988304046861 -0.3102264792272786 0.4952484620300503
Ni 8.081426241238912 4.5605806921634695 12.461948162955432 0.32504323252513695 -0.5514118965954955 -0.8398343925738053
