# total energy = -340872.82528678235 ev
CRYSTAL
PRIMVEC
9.23532280906026 0.00000000000000 0.00000000000000
0.00000000000000 9.23532280906026 0.00000000000000
0.00000000000000 0.00000000000000 13.51682845179470
PRIMCOORD
 96 1
Ni 0.7762713705594297 4.279103738598206 13.240612224775779 1.3617572785712482 0.8970648349511842 -0.24677088187579435
Ni 1.486545276752938 8.898252065642472 3.18364575631747 -0.8695072370478896 -2.222900974145791 0.7526194880191942
Ni 2.7679647970155057 7.295942016587216 8.175451367494368 -0.3129258804363127 1.0642464471384254 0.00992702930572484
Ni 4.282927162270576 3.893390478509947 11.026434328943857 0.2528713383465774 1.16519721322189 -0.9858861647609668
Ni 9.365079166586835 1.5325371846959412 3.3856139559151264 -0.6670657732170898 1.0738032375889248 0.07933395914463756
Ni 8.896340353806288 6.371162959986286 3.3384944150484603 -0.420347856066418 1.3128644095252873 1.2962890216651095
Ni 7.53715017957022 7.498509588639793 9.226222392955062 -1.6660668780934595 1.3646487411864305 1.102154020817476
Ni 5.922261620752238 3.877450311218858 5.914396819787528 -1.0995698050300675 -1.2224083723255592 -0.5219234002180754
Ni 6.565354094186593 8.099886108624641 3.4793672596649645 -0.22631184269049412 -2.0256253707866474 -0.6874654199193644
Ni 4.447925440846821 4.653965494302323 1.295474758153824 1.2971984208532563 0.3439452116359625 0.6213903826671621
Ni 0.6564116560920658 9.14211076629207 6.761509581563502 -0.1668802788967384 -0.7774105789209449 0.29599850855335474
Ni 0.44340816918495185 3.9236823375567442 7.364522600762707 -0.060737941310005074 0.019048789101334933 -1.3230243807774247
Ni 6.108611965827323 1.2158579631365876 8.47052362764339 -2.7458749271155676 -0.7313554364340953 0.3521244050126452
Ni 2.204517748099315 1.0560591713418515 1.5843205636170685 0.491544787926218 -0.730219265947123 1.7415580664532393
Ni 3.9347370190442494 4.4852915572197904 8.624115358930396 1.479267491675291 1.693864359921702 0.5476467731261084
Ni 1.8520978269938928 5.2892448845800955 8.664557761354734 -1.9780005698198322 0.10669358210451303 1.2369908981254245
Ni 6.811770979273985 6.9302786424717 11.945335102531592 0.03916432890428739 -0.5379871385491574 -1.6111612271945155
Ni 6.110542148309269 9.029993946527402 10.513781555868334 0.3953207378944611 -1.5844883458890195 -0.043821882280956785
Ni 1.2084512341867304 9.477103633122706 9.515469011431303 0.3142993637450716 -0.867810566071757 -0.3906595849733659
Ni 6.956941019626609 8.347152643417004 6.760725502650979 -2.1103738160786363 -2.850373044230659 0.02543386669207233
Ni 8.841436359283968 8.339404207520582 11.24444705498115 -1.0917454238896425 1.1825333905074924 -1.1815352882602812
Ni 2.1393071332427795 2.675537685631253 9.1046522966903 -0.14925279562296231 0.2946656486745441 0.4576743604310182
Ni 8.669742471619635 5.854926881633275 10.40887752327304 1.0943651209006766 -0.8874381104946976 1.0767918879036036
Ni 8.019252504558303 4.226730222545039 3.7506225456384423 -1.3450145118952708 -0.8774136363791598 0.08291653428957332
P 3.4956897693232905 5.947769582547133 10.547830344262765 0.4914535137639924 1.1011170949125293 -0.6468820991803633
P 6.227415159357201 1.8701344125787693 4.114279084092108 0.25299937928400945 1.1703803000847264 -1.1389495923792707
P 0.6552396936185784 7.13769475903634 9.126765353794461 0.22818720533633605 1.541566606824829 0.19383058223333716
P 7.596976601187644 4.8656206240689395 12.503363787514013 0.10338251545340905 -0.0348081088181207 -0.4428000144223471
P 7.956904839794605 0.7292072416300445 7.277596047685855 0.7041063709101552 2.662679685243311 -0.3268594597982693
P 5.496448588718493 3.3247531781351283 9.2282763287636 1.777867699517551 -2.4083168499528718 -0.40565965792662395
P 5.457198466477978 8.20812409277966 13.065299014074728 -0.35282323085188266 0.9068388836188124 0.7699656926071256
P 0.6986863465758202 2.653631499759606 1.5206300829066008 -0.4757085922249098 0.5498154986426531 -0.40856860404330275
Ni 4.214705832155121 2.077790647538293 2.9668225398671377 -0.26001026338420385 -1.1558093442490869 -0.1854243604475129
Ni 2.513282297950405 8.061633401255179 5.405500976059637 0.610634943922871 0.17303704252675361 0.027930150751364805
Ni 3.5824279218133883 2.848773872216565 5.17413397313769 0.23327027628619826 0.9976219651406562 -0.8661966846174178
Ni 4.816544118283975 6.816111581027642 1.3203722651063425 -0.011926062013624622 1.7967622224292086 0.9510672573095684
Ni 0.913750234017489 3.7755477585596013 4.462635463130278 1.0699702369960797 0.5484641268210813 0.17652860061977985
Ni 8.16472731056597 0.9905899674446729 9.376150471655524 1.3455300180791085 -0.5806317126925612 0.9877566423108021
Ni 8.500209649509252 6.6152525437078875 7.52208829148503 1.2038822884969138 -1.4817612046314224 -2.6775182929180406
Ni 0.8110894613497746 7.137140639663532 1.469468241215306 -0.05636732304613518 1.8622165953782768 -0.6030586742375098
Ni 4.060780705712142 8.116260336091095 11.492412703715539 0.10927265568559891 -1.1071532738042804 -0.2334242853655593
Ni 4.283739870684027 8.791944263969398 7.12743708591339 0.3614788496443516 1.3173317012680215 0.44305455363531443
Ni 8.481775945040528 2.8355304192064716 13.046604873500787 -2.6795620628209464 -1.7278157771664824 -0.7853349759743443
Ni 5.781727712485434 1.3274576048199713 6.034223287092523 0.2560805893124945 -0.006941464314839658 1.5764803879828786
Ni 5.8912124652292714 5.823960844016229 7.322809417910064 0.30987655208702763 0.8608593315649046 0.14365550404084293
Ni 2.514584478476502 5.97808914756257 13.497607248690063 -0.8877942082825355 0.4375935305207431 0.26309430162616626
Ni 1.722443129079872 4.760337943235559 11.126309728230929 -0.6173848610521948 -0.18551897704384823 -0.9330919037780704
Ni 7.015086612479852 6.137721703545464 5.0625925139884504 -0.292076033570497 0.35074989326262174 -0.0572335277011724
Ni 3.711039028241955 1.630487019162506 12.892350969563276 1.2208993918802005 -0.2615179582779819 -1.5298043240825783
Ni 8.79739310446867 0.2654785915119621 0.8442775176517777 -0.4123450403665995 0.6145553620231996 0.848091747486591
Ni 1.2949400329590648 1.5080820497093805 13.135816245458182 0.2729526824774848 -0.36063398514555306 -0.7875327549566115
Ni 1.3971011746589648 5.970913301684717 6.128745893238275 0.02602881996359388 -0.15673959091831072 0.41536942901522017
Ni 8.255288886728438 5.4007706436804375 1.2291226573893055 -0.9120541092711648 -1.0634756304106718 -0.4717678624096069
Ni 4.705932656148764 0.052075215124139033 4.2786299665344565 -0.5703912659114757 -0.09739852995583226 0.6125234191948354
Ni 5.400225759630511 1.8740224835113002 11.101830581404878 0.4753044148079556 0.07751953164371811 -0.38335328111993977
Ni 3.1050356114941664 3.0398988792206723 1.0051005067539192 -1.8656233070669808 0.4338541180829689 0.8204459607448644
P 0.15053483941368645 3.930119357604189 9.517239422827423 -0.4788558796046398 -0.9926646211353806 0.37265749196899045
P 6.577618602971394 5.601934446655237 2.587918483338392 -1.0362857002594412 0.7905782266511545 0.5519801103941397
P 2.4062910823842016 1.3607878850943285 11.00510442721993 1.1043888236852657 -0.34174717554337913 0.5330506204794884
P 2.8934820702792314 7.668864354486507 2.08948533690139 0.7575626909570824 -0.515136459203229 -0.145077324089034
P 2.4633007305231898 0.9252131167762954 7.777407104296571 0.6059308535789824 -1.5467386379440717 -0.06182551794722901
P 8.391648429053427 8.745610649079829 2.8483472002995036 1.4829611384767944 0.13096736705021314 -0.7709146867839561
P 3.0043705921008463 3.915342840995995 12.586343163591902 -0.4557010387547313 0.24378994487059952 2.441878230848085
P 0.8548981389639172 8.44293217700674 13.037021378948086 0.9976862427196883 0.4302111220137429 -0.2868808625228027
Ni 1.221149803146897 4.905997455700829 1.8632273145967266 1.0816548724228598 -1.5199814244548855 1.6835159268078426
Ni 2.1155077061807077 6.253911300700269 3.7092067401825393 0.11341187466495307 -0.1866744308045301 -0.16710679308524767
Ni 7.718439567706998 2.9016738016738994 1.7295321629226532 -0.6720334016350102 -0.6765420881386414 0.5092110948577294
Ni 3.739927118210974 0.1945817883581362 9.731210771572375 0.2679020074274548 1.0419992057044505 -1.5943197301571446
Ni 4.630166067240251 6.814347634357539 3.6987043310032655 -0.733348298494408 -0.700898919716451 -0.6502738984707316
Ni 7.068919309548079 7.53029756999317 0.7452259091656146 1.280856489160123 0.1514983971240294 1.4781423769319124
Ni 3.002874469794267 8.722309929453285 0.0028592559636855027 -0.15388746618149626 -1.613951645455459 0.7898526613390396
Ni 5.0181604520799 4.175021649739241 3.6096822831649136 1.1319232816601086 1.092794433979447 0.5074216070574744
Ni 7.395240208194278 3.317697391454716 10.50969954315532 1.6723524539918555 -1.9825002574623989 1.3368903401262395
Ni 3.7883479160714493 5.518918129285828 5.607240139649866 0.3887212303000725 -0.11218134469196162 -0.07352146622791854
Ni 4.994028553394144 6.950291587152923 9.305404204264644 -0.3926984697802656 1.0289320881078474 0.3064945229886722
Ni 0.5040685404584515 2.255589083626385 11.108967638926636 -1.1178621755813523 0.8922129061755214 -1.8983817324449241
Ni -0.19945249764511208 6.619426909649703 12.8337149810651 0.1591937088857581 -1.383796774869791 -0.09777185413485097
Ni 4.64464705351628 6.023573112747167 12.743787871584495 0.7424955122113148 -1.0598701724476005 -2.1587876886056496
Ni 5.4073646642168445 -0.06972207008347449 1.7021872954069024 -0.9454635379695459 1.305847868998138 -0.7002615432427682
Ni 7.603071914288524 2.865674513087187 7.98078184356887 -0.21212758077031207 1.7327641223106933 0.5388273750622656
Ni 6.6585754433385365 1.1418830268668174 13.354180837297207 -0.7929202445207699 -0.5135254059623673 -0.03065989097770204
Ni 8.217811946480907 2.370180969922928 5.714130690196676 0.7962297685099771 1.03376010562411 -0.20724299898450113
Ni 6.550023458205592 5.1658332649330365 9.784061753818444 -1.6286714681641368 2.1106083006869456 -1.0383302414932956
Ni 1.7121180380998966 7.299589969124863 11.20487000231068 0.6358929471587113 -0.4929246989928801 -0.34690660825713154
Ni 1.637201098896354 2.050260150032652 6.107741074879727 -0.9985485907199835 -0.09998634528766652 -0.022779459788360767
Ni 4.172223346906565 2.3526892683879788 7.405735229115248 -0.5521045517871459 -0.09336678308861984 1.2226127750268816
Ni 5.742348295724598 3.6467057690590314 12.971086714777748 0.6473441264184465 -0.014268594103872198 -0.09211439873875749
Ni 7.630971824709371 0.3072342568498538 4.866072231357777 1.523503578675531 0.10261838359387489 -0.4508781634447912
P 2.8326028218534733 4.071539856867483 3.235293375992259 0.22231274883343 0.3639861894472377 0.33103647399409436
P 5.497501415526828 2.425011081862207 1.2845272064117284 0.1306107550417428 -0.3646780733079397 -0.5868738369475313
P 5.022094699626832 7.341148922085409 5.740597278506527 0.3613047859603326 0.06698057978560723 0.14934792643992986
P 7.755103799541078 4.62631493759924 6.515489815359955 1.125639762644242 0.2677479983480937 0.004539282631250247
P 0.051169229949599146 7.514597521096963 5.304841497860044 0.21325783772001336 -0.5516515234101274 0.12249018281713743
P 2.635437913685767 0.9268662395718371 4.407446097130961 0.15112867248943648 0.2583274763651422 0.4343606254057423
P 7.675652316803396 1.040396063737166 11.417083869111543 0.05712528425808226 1.009160561907875 1.4314413733309477
P 2.732741275550724 4.21001428813202 6.933862871281475 -0.9561081621675858 -1.269285496493072 -1.3977776625299154
