# total energy = -381174.261436138 ev
CRYSTAL
PRIMVEC
9.18946270872288 0.00000000000000 0.00000000000000

0.00000000000000 9.18946270872288 0.00000000000000

0.00000000000000 0.00000000000000 13.44970755933875

PRIMCOORD
 96 1
Ni 1.3174473337074788 1.9380025668392218 4.306933045181798 -0.1638018970817308 -0.08638315268193511 -0.9682833640775389
Ni 2.7220383431067097 1.3169786711048974 10.28415755125297 1.8042125080596672 0.658812274959046 0.566364918360902
Ni 1.3362030272735304 4.795842791140987 12.132887243870675 -0.9696966994852977 -1.3360477896202863 -0.6355401918049829
Ni 7.15193834679679 3.154246346777507 4.713140382818403 -0.26926469210293624 -0.9069545832610703 -0.039198781686648615
Ni 5.210903257234983 6.560247216306383 12.082477526758508 1.4292119697797965 -0.7387998085272826 -0.5466538130852199
Ni 4.838996508429657 0.061762379449991044 3.4563600445956664 -1.8285037765068637 0.37680082471340265 -0.2645829703565508
Ni 8.114258890763917 7.560612136247765 8.369954774108368 0.4225119535972723 -0.32240965155703183 0.32127708061448546
Ni 0.5320450843222684 8.431525093785929 4.723752374454893 -0.09774897131671552 0.26213039505100016 0.357986520220377
Ni 2.059119686486727 1.8051229348132034 8.191114043909588 1.3323842247257698 -2.339907508140538 -0.36970586553983426
Ni 9.297347088935268 4.010401027065755 5.198083037688683 0.36188328417162197 -0.14750393125265565 -1.927388918310552
Ni 8.51993691534349 7.097959442334768 10.814305011507924 -0.023999448238390925 1.2713403221395718 0.6825821236851342
Ni 6.2443961905549115 2.402539100625339 13.06609556970098 1.2457825282751254 0.9851382308513484 -2.158732409887682
Ni 5.512492236727507 0.596396135441812 5.705998430601967 0.5195019352607763 1.7142094992369576 0.5230870815088734
Ni 7.6526629850724275 0.9253880929911542 1.0408711529986074 0.08340658655211441 0.9933449350318568 -0.7732885863327714
Ni 7.290469498442173 1.0663820206657877 7.614256544264022 -0.683621620693242 -0.02145765565314369 -1.77544237790551
Ni 3.704125421547417 5.878490160955188 10.0306037316862 -1.2052897103674016 0.2390945962774592 0.22011137030673703
Ni 0.9321699165343909 0.3583127764916256 11.132632597482841 0.24478856133844293 -0.8320421502228961 2.1761768306163747
Ni 7.488915947515607 8.091083065593127 5.941435224266987 0.679496542781275 0.8380400196775439 0.8117232361598858
Ni 4.459958736494859 7.001286293723861 3.379790683742942 -0.12705697625221343 -1.3034767976628003 -0.4284889971163137
Ni 2.6601197427891914 3.970408484978809 3.448087690186965 0.24514414490564881 -0.9829677055625909 1.12056466211418
Ni 0.34771273115677 8.775578580857445 0.3253740660466698 -0.7016229423666691 0.4958380159849332 -0.8962904186790047
Ni 5.319403244463973 1.3321137163294379 1.2876403921833022 -0.8535167751569043 -1.8299981016642033 1.384766594982228
Ni 6.179739130324271 5.310471086626539 5.869734440803432 1.5786521988232165 0.5400360506583861 -0.46064732701641314
Ni 8.521443987241986 0.339761088999639 9.639863178881061 -1.0636322105931941 -0.09371928133203214 -0.3102082243948335
P 2.4368893125557167 0.0514067738255014 4.0532579247061244 0.8809509601084571 -0.19649090267431968 -0.3854003934569556
Ni -0.049832618848595654 9.186705956874876 2.511799975373815 1.4902270760105885 0.5220918074751395 1.4528247241027301
P 4.086618431493403 1.661390547225447 12.75403519735274 0.29273320753852167 -0.10253636540302986 -0.12827259382686942
Ni 2.3457574100106253 3.6450279863081825 9.468647864910164 0.38527466651236875 1.6564944039136764 0.35129650979471116
P 0.6284829826856051 2.782725555409602 10.492184015290938 1.6210782291979116 -0.2843087309202523 1.6446578162900645
P 8.297092442547434 0.908167039711987 5.411611233102442 -0.19961042213990784 0.6466890093329508 -0.41953872990156127
P 5.392330821210756 4.6451723591424665 3.221608784855206 -0.5141846368129208 0.43168410701484367 0.2638687178983456
Ni 3.0691427318264033 6.449881768129863 12.647755384335195 -1.3484417924092647 0.023082335740760247 1.2018516312201304
Ni 8.135311950028898 4.873438614987993 11.95272874470699 -0.22704794952557025 1.3990480446019067 -1.7100350561442939
Ni 8.512355608537025 2.4945164337476364 2.9434547733843104 0.6531306511932365 -0.7083366069414189 -0.3480445785163167
Ni 7.435047316607134 3.670023325112523 7.140180429149674 0.5860911931452358 -0.45936434653893143 -0.22303625726301587
Ni 7.8237248350146364 2.857867792690152 11.081146794277297 -0.5935211670607197 -1.084600842425061 -0.23704748394044337
Ni 7.600852793830194 4.998029351572278 3.1865849853019026 -0.3003357024761279 1.033907686945568 1.117412232528127
Ni 5.886126604538426 6.534103194652578 9.46307996940224 -1.1349857226355164 1.9313080508592997 -0.24279235684402053
Ni 5.983709509966108 5.882901103097131 1.332469348539632 0.6497689338098552 -1.2011247803564347 -0.09397973408227041
Ni 5.384308420190099 7.542233210656338 5.491327066016419 -0.9403138754478065 -0.5353041924003555 -1.0719744119103023
Ni 4.628181042433193 1.6348789470598135 7.937614442173312 -0.3068539632106199 -0.5718359687778023 0.00795242207785727
Ni 7.068075309323108 7.699281129835082 -0.01299573828569816 0.9879574454676985 -0.4623180298506167 -0.8321141411114121
Ni 1.911334745806061 3.702737812665264 1.1099869405777283 0.5867280553982864 -0.4377573097921171 -1.3845359670286608
Ni 2.0564455528131744 2.267555081619103 12.60060057494527 -0.29180503929729745 -0.5953307094656328 -0.8457389309836983
Ni 9.0665996781349 2.2890308561726855 8.606669822048273 -1.1048680773145294 1.143502758967592 0.44553541107563915
Ni 2.497990050684417 8.345079817266651 1.9856076599061365 -0.5766238770847488 0.21906621687167432 2.0556540559382537
Ni 6.970326993565102 7.441241014531445 3.6046154857714727 -0.750537922899817 -0.4479489056131382 1.3032924495661362
Ni 5.32579911056979 1.2470284803039255 10.816685082372015 0.20659456676722487 1.4828073865077496 -0.5610766733787692
Ni 3.3872451759628253 4.055512099929913 11.898431884832235 2.431118164118103 0.050800884701951224 -0.9731381210666791
Ni 4.869974187514008 2.5909782247142426 3.831068660607404 -0.18398557111845731 -0.06997977162324721 -0.27170466900299656
Ni 4.833556346454595 4.4695065883396055 8.05242023877272 0.27980441529199557 -1.7831847408550903 1.152794725792479
Ni 2.8838739724020215 8.483252579863 7.416814503474159 -0.1323138537757786 0.6061825645784722 0.7791193340819356
Ni 2.67523640908814 8.960314351439676 13.284155089219308 0.39851919022710075 0.8445104578932358 -1.814811366621436
Ni 6.632255846773595 2.7064438247423834 9.093683781832706 -0.6074056383522959 0.01804014533116248 0.2623795349473288
Ni 8.548332355382243 6.2555705773145 5.107378445163592 -0.494643995676832 -0.7498516954660699 -0.3317602395339964
Ni 4.2918191357216875 3.446627484548726 0.6498429700079619 0.6909531213576487 -0.19452915096225853 -0.44706418901533973
P 1.800904971389971 6.391501110988695 1.4305778912392293 -1.2721018828959447 -0.5441415881863274 -0.7598406883579817
Ni 2.9722398466456035 7.323101280829751 5.455551568406427 -0.8743938757162295 0.9815073189669806 -1.04609291615785
P 2.123831883494142 7.413442889574412 11.025734333619145 -0.04324749783472552 -0.19482997003212896 0.3235599631113912
Ni 3.181162283306152 1.7162148822646743 2.122310108455172 -1.5174717706591543 -0.33299822570615556 0.6475127907858267
P 1.905499436930783 5.225707481798877 5.7425541136033145 -0.04917749016591531 -0.03768465903496735 -1.0098812421239833
P 5.080385317147463 8.440935103688739 7.515629715862747 -0.39107533235454583 1.5020142984535034 -0.8325286029410114
P 4.5416163028975705 3.0489902399154034 9.645336422922188 -1.1739628752296623 -0.6397871400067949 0.8040778037994861
Ni 4.0220165080395365 5.321838452104837 5.084810043483598 0.11871477493510522 -1.504630653030428 -0.34788439878936867
Ni 2.3994881989771626 5.660975576580648 7.830903643350648 2.1002128163852345 0.4636799431951498 0.46668504857006077
Ni 6.676227426251084 3.373617202636782 1.8195439587785165 -0.7953566218764043 -0.4681508344823099 -0.5681209818200603
Ni 7.690211130055713 5.343056921700139 9.538869144863611 1.9580691210032277 -1.821732262110985 -0.9818472188049024
Ni 8.367042633348406 6.974085483848549 1.9374034138649414 1.6654791239107896 -0.2724220067849954 -0.8670970849445002
Ni 4.596210901366905 6.435711616498872 7.299304247973971 -1.0082030830906121 1.003514162255375 0.07773704697116289
Ni 7.874423101258588 0.5629547613819307 12.078389134760695 -0.3526985323485603 0.12153090422766165 0.004742399780991833
Ni 5.350197134292409 3.193384268824451 6.129905592529395 -1.3258927034641552 -1.3377125789172186 -0.045274298456767184
Ni 1.343591355361284 8.07386201231396 9.224455351093388 -0.21010155147921883 0.6870614996127264 -0.9387005082140996
Ni 0.9594258631864774 5.767371176829419 9.619916530936687 0.11001287628573311 -0.6561388418919409 0.9875098164073187
Ni 3.080932812593304 1.1469184726074217 5.822996833024432 0.435363869859276 0.06164862604973254 0.08963122730558758
Ni 9.105627326628294 3.0072149420460894 13.237229097452994 -0.5826819103533707 -1.5580378650069746 0.09685242764437514
Ni 8.345649563959984 4.944013689259072 0.6500028666606072 -0.5177664406269082 0.6824106311042764 2.2002400422131654
Ni 5.768832301413938 4.575975704290744 10.591671896356171 -0.43004374319794325 -1.1823318160196477 0.992761294614245
Ni 0.44645718468183077 6.707747283640382 12.973251670237048 0.6398323914224335 -0.13384571703927273 0.35700307326118513
Ni 4.076510022418118 8.611601806730732 9.654899896853687 -1.789066396446848 -1.0658675276816159 0.3994483869095895
Ni 0.49478824530960686 4.52538771160034 7.372766651455465 -0.7642367605431484 -0.05752149125523642 1.373453483962254
Ni 0.8874098811490292 7.022219889972496 6.726387189975208 -0.5325191734560506 0.00763026285174815 0.6915627299171896
Ni 7.0364727467686485 0.7031133668884338 3.411464924107208 0.27624703695804037 1.1128294982534512 1.4680754796142135
Ni 5.063292916347435 8.950987046702027 12.5423504081758 -0.006306658944318171 -0.23681839864877283 0.7446464971160466
Ni 0.5144068294321757 4.335303673671005 2.600621646972064 -0.45189400630381527 0.878365715879784 0.4761976160461863
Ni 0.7209326541956022 2.200747687094265 6.545905221721113 -1.0789176759973549 -0.07516362981703184 -2.168408242414549
Ni 2.859981369133166 3.413628123649319 6.699769910987423 0.4573126062162253 0.6326865244062717 -0.24518811076970676
Ni 3.599613661171766 5.261114481950762 1.7900081064068136 0.465213863341173 1.5521968328451654 0.0418398188539215
Ni 6.243036150061146 8.862556846218874 9.178174459615335 1.6308769604558881 1.2886675005641097 0.23718580929052058
P 6.409172447944852 8.474954494958471 1.8418431091985952 -0.7491179026238389 0.025206324062298523 -0.17312137471044378
Ni 0.160380018388471 0.0021236848520894106 7.213454448643855 1.228378473866065 0.6941654576473594 0.39586735442655047
P 6.138781694643774 4.63206818519578 12.770322601211864 -0.25287082412594514 0.014548330127820103 1.362458418403331
Ni 1.3514023987376405 6.20478041644259 3.7130070373394735 0.46017013026967846 0.6239293470389319 -0.03395116013446411
P 6.620833344518523 8.21126286003547 11.217889676462633 -0.12854718764449474 -0.603640771993225 -0.12105499303250765
P 7.7159967626604855 5.794764965423441 7.3635128624201815 0.3838222503365583 -0.3657196271985766 -0.9438506849564712
P 1.1534429911923783 1.4409261452934823 1.0108206907103443 -0.08173459816633022 0.5535772796779305 0.5609558315301888
Ni 4.500015604821375 7.629744464859918 0.9851269527335291 0.057010870167405046 0.6444750324007675 -0.04392421218677597
