# total energy = -340868.3775716675 ev
CRYSTAL
PRIMVEC
9.23830825220983 0.00000000000000 0.00000000000000
0.00000000000000 9.23830825220983 0.00000000000000
0.00000000000000 0.00000000000000 13.52119794961378
PRIMCOORD
 96 1
Ni 7.202157177516286 5.474408821200015 6.178160026489731 -1.5593488705089145 0.47452485632945374 0.647661400548549
Ni 1.0044997020585005 9.118108343772002 12.902548869093962 2.719096887690775 1.8078128238164157 -0.5675242287763258
Ni 0.24472277809227896 4.631311597663606 11.033324140713406 -0.029231643171607723 0.16957505212008217 1.8200846992052333
Ni 4.564694158900926 7.330662041361646 12.577539651768436 -0.9015647797040666 1.343101354032958 -0.18120466593921053
Ni 2.469575247899204 3.9754564000378925 11.5789044276085 1.1993689740075926 0.08699713211685017 -2.8221510732704878
Ni 8.905691928646453 3.5423829990786677 1.8663312903247444 -0.5135801704597026 -0.7147047152512916 0.6160450591948486
Ni 0.3941477903328817 8.047721029280352 1.6086166797360075 0.3490725055601988 -1.8562197543648935 -0.25368380694554377
Ni 3.369589686831103 8.587404504198991 8.872122688980394 0.0032843271782266015 -1.0723467076480564 -0.5276536178336332
Ni 2.3269357728616513 1.8380999450030309 9.418230483260507 -1.3988914644193844 0.22859703918024502 -0.22615012030164922
Ni 4.674556117265341 5.446758565449536 11.125511368272 -0.12834432760506928 -0.2577440930578464 -0.37934004619548867
Ni 6.4222407421781815 8.568974079801329 9.282342363686515 2.3545926209565384 0.8899212819278673 0.06927168981262909
Ni 0.2929698414590939 1.1266024184815149 4.962346963277152 -0.22327202742290578 0.6509827516122981 0.018538425123819684
Ni 6.376492641116915 2.527129906544538 8.48325366782086 0.04221211459167569 0.14994647925587723 -0.02084470465949313
Ni 2.0039552879660616 4.540933230805291 2.207321856605419 -1.7139608735612613 1.8885794016425217 0.813189022072135
Ni 3.6620190872740253 5.689005477006189 4.813100250380346 0.12465839411304981 0.5696731567985286 0.026085641343458303
Ni 5.062066183322673 8.087889192328491 4.88335665865192 -0.08607333475100015 -0.8947971219629298 0.9744064462561413
Ni 4.186237634652971 3.605258923114004 6.145181114702875 -1.0597367321935298 0.033185485613033174 -0.46968681151086206
Ni 2.5593069331997067 1.5231198348083816 5.544434271772369 1.0520990131426138 1.5165752269868138 0.4435173522043459
Ni 6.383319750705823 5.75302695122965 9.086028319350506 -0.79155678851434 0.2669278164396435 0.21281637930722058
Ni 8.81064821626392 0.7592762076743151 2.540267704306903 0.10390676338799525 1.1466587880980703 1.3955688278040546
Ni 0.22396152859409935 1.7914557280687946 0.6218997966865606 0.9155788345949716 -0.09432400479556659 -1.1169581757098441
Ni 0.9534118589912939 2.634534474989266 7.066637666430251 -0.5169534578073096 -1.3046610477788887 -0.5059007995375738
Ni 8.549961642001634 7.395866019005108 8.540961682378473 1.1735694964459853 -0.22038879233783978 2.69539594452941
Ni 6.897237584699609 1.9149164757632158 0.7821225432810424 2.1374349339614866 -0.4325497974492486 -0.9792547754873782
P 4.000575359404933 2.4579534564745122 11.74585081474264 2.393489555132052 0.4092977688998435 -3.163764808559797
P 2.605941911825974 2.565228688607678 2.020391161673271 -0.19086738583995516 -0.9670826589012184 -1.3785846345412323
P 7.15766548633877 1.2781199074770402 10.2706750267997 -1.1137162717337787 0.7720904522596123 -0.2552748055817475
P 8.182350891308996 9.1459895572217 0.438049153631195 -0.9172101995508075 -0.3360411262975374 0.8562465153832416
P 2.2006573412367603 0.0171915672990533 4.226212717064564 -0.9675544563313143 0.3613605788989325 -0.48313496659596794
P 7.999986692005803 3.814608219993926 13.03285243150084 1.287500219728886 -1.8222716795542229 1.0358848652765966
P 1.2828776360809482 9.047213568419789 8.600266076553089 0.3183925599778388 -0.6907464046634814 -0.4756381439982906
P 6.396659867412703 0.35524435164566404 7.323350844435175 -0.7866333830707937 1.4930087525207834 -1.102653586161714
Ni 0.17610339799276897 6.473226963857733 6.33777766391226 0.25088336138227113 -0.4863251913984915 -0.7447213162180399
Ni 8.950312956135534 7.462658985619196 12.61236992047223 0.21281535086595607 -2.32190027292984 0.9548583489208845
Ni 6.514032570155717 5.902484297548144 3.528315827534647 -1.3348882220945464 -0.06477868703828199 -0.3047538861484816
Ni 7.6267775266841005 2.2973547107457026 6.333504946476712 -0.1980083677601106 1.82782063439691 -1.828477551254619
Ni 8.026897883118782 1.2380533658165565 12.28960561198311 0.22316121287665436 0.974918095785237 -1.7956880155284238
Ni 1.1146480479699479 3.557589253995236 4.5468947109375275 1.0259352102630526 -2.067421995107459 -0.11780768973980357
Ni 7.701016569521004 8.015895058327997 6.71031335658304 -0.6120457082274684 1.3041175165705927 -1.9540435447836024
Ni 5.848985256101092 3.282574064073415 12.505931679041035 -0.09560569972146761 1.326394068580606 0.700772935661548
Ni 3.827107650675649 5.809362153223109 8.063082487770796 0.4565024516101041 0.44209321816330954 -0.20111606015115685
Ni 7.275814206951157 8.263527903430433 2.489320283520821 1.5731176421582327 -0.33851015666332024 2.6489553936786834
Ni 8.669800972972304 5.604262478008813 2.5424719645882474 0.8112121008514221 3.4752534423289507 -2.381342892467189
Ni 1.8214894672752122 4.779290814707099 6.508171787580339 1.071250132149768 0.33051891092772756 0.16900838098333476
Ni 1.0701933100243064 4.08107797504465 13.301788814779224 -1.9659780914376592 0.06852709833712069 1.5120377441277766
Ni 7.196817435510346 3.781701367009226 10.538218273236392 -0.8359348004090829 -0.3683058998685141 0.4405546700315961
Ni 8.474419997741137 4.650379465311114 4.406882610686288 -1.4238527623504122 -1.3086300597289655 1.5088032963508788
Ni 5.439063054911564 0.8988550312818203 12.30687200957671 -0.10744845799266656 -0.5749341480871518 0.2075690148653522
Ni 4.316968930718801 0.6429880822868341 3.271521352419598 -1.4735730123936752 0.3030674995849942 0.7873391508885665
Ni 6.7168134300698545 8.128685560318507 12.545020807718425 0.6481275415516903 0.5328025090244244 -0.6275869983961773
Ni 2.1678613479476856 7.343327761586807 3.448716718414273 1.1851944822794234 -0.784490882806494 -1.5475760462437025
Ni 8.920454744780521 2.5575793696095497 9.438512264575106 -0.047028047923080296 0.5049152956958529 0.9727192883617053
Ni 7.260681858498339 5.628143504108041 12.301003836354957 -1.222402201677972 0.0287107376711312 -0.09769600659159304
Ni 4.00148995189384 3.8238465279626794 9.126551233424646 0.3887299720508208 -1.3787275878769998 0.7562550278892525
Ni 4.360250403552411 5.046398013007668 2.1971809659481183 0.5520765267626879 1.5351375633700337 1.2850985522659286
Ni 4.728840414889737 1.9486270615411971 1.2593994002091582 -2.575404873985042 0.20484698794849884 -0.7173436955360356
P 3.5087925113042804 9.39166388103476 13.447966561768808 0.39002632226474115 -1.2227770685188877 0.02878555677312462
P 2.5750582482864313 5.906761634137676 10.4414469972637 0.0016210805431907565 -0.9639924500116687 -1.3007725113577597
P 5.5685009878617695 4.488478118158709 7.403098690313845 0.9516866360611222 0.7406805704897631 1.2504141135098659
P 5.229575183412111 5.386829661656233 -0.13182326406773676 -0.10136111414800608 -0.048884898626160966 0.4734071977852427
P 7.985842842505641 7.002923827862149 10.805599849283633 0.36018789874707 0.06338257802170374 -2.33944445246119
P 0.8676304741782306 2.035559539527167 11.333711419640611 0.1558186217659381 -0.016277654114101 0.2817782511889147
P 4.555003173841703 7.78152842346869 2.8749577445528876 -0.06548188375289367 -1.6703837603012588 -1.4185889428483118
P 8.821577134590955 4.362245878073662 7.035836223831629 0.806642993423501 -0.5611957154551367 0.3044648941531531
Ni 6.911187429732427 0.2970337731345485 4.681538430428125 2.585152697400425 -1.5554886162225599 1.2216110732352443
Ni 1.68884584145985 6.6629079030721785 8.334912309104991 -0.3303942124244052 0.09066198256294708 -0.3633007333444388
Ni 8.433531246671434 1.0289627415597598 7.889551034716527 0.49292906986825435 -2.8029063661082634 0.44121081555835634
Ni 2.0887537168112496 0.4546531645434356 2.01123784613783 0.1142909348357967 0.3422940491857847 -0.333828949137567
Ni 6.376141585414103 1.6523637632912427 2.9884411196410543 -0.8700512824768177 1.0827265082204838 -2.263363967256844
Ni 5.470242344306108 1.8493891573408476 5.124574422700853 -1.7690971524137726 1.6421113957191267 0.9521916007219988
Ni 6.526199421750564 4.114215785728569 1.636618915020096 0.18312605133163945 0.604548885629791 -0.46668941944543496
Ni 4.238073780665647 0.4169904306164215 6.827637096293818 0.6835190336771066 -0.2263177562277651 0.06627918284320843
Ni 8.587034971880241 5.085559200487213 9.104092906752605 -0.4878511411247147 0.5153863704305058 -1.7858360624350083
Ni 6.535964313273537 6.812319057850828 1.0356586671755121 -0.3261614052899802 -3.102110011862477 -1.0195712157182375
Ni 5.552380140456294 7.318716909158048 7.349460150416466 0.14789165360937756 0.3932366016719227 -0.042480537761713934
Ni 9.196199761031876 0.19698105017135487 10.085529172967114 -1.4497949361374711 1.0599786730010066 2.109527408917941
Ni 3.4342024127645647 3.260531461259969 3.8034049239202186 1.0404048646341373 0.07204848122681785 0.7658609264101327
Ni 2.763843071627908 0.3053648792607704 10.959471259149595 -0.02427764160044206 -1.130320713059679 2.618567782525761
Ni 3.4667674483544206 4.15445785524046 0.39080444667898984 0.38127917219973045 -0.6150592982428117 -1.6761497162507584
Ni 1.1039870405740064 7.493274738227645 10.510892282095616 0.03038478293944444 -0.5640825500846285 0.6314356827183062
Ni 4.65558987100549 1.2410927691382763 9.768456586017543 1.1028263642941523 0.40810374859174237 0.18103137358613985
Ni 2.485178750058429 2.0770210656909325 12.96004070724511 -2.3674843893175423 -1.9878471235966084 2.2114857903303142
Ni 0.8798656892520477 8.808634265126729 6.528250326119628 0.7536692694399472 -0.214932654319275 0.34060740551198115
Ni 1.3597588349969147 3.990422458947273 8.900680146573405 2.1347234485675948 2.0622736181373 0.2906048483416092
Ni 5.629159717984604 8.87266497765816 1.2597763231742833 -2.6690845603283906 1.712036917065671 -1.624430433499596
Ni 0.05696802608931817 8.085514947180522 4.248428076237026 0.3136750998975114 -0.2951284472435756 -0.42787836011550834
Ni 3.0735481079723987 7.457374673461069 1.079392817099591 0.018338393297871642 0.04918237526192175 0.4481610216239443
Ni 2.295987441166327 6.1939621522702835 12.646280977533133 0.13079356047651022 0.11722687753566907 -0.6434435058124597
P 7.9723271979473544 2.228945040237083 4.034522445866915 2.0940732791464 1.9504720253822603 1.0434264250692804
P 3.212233587199326 2.3679446219349476 7.605795481625468 -0.049951649327778486 -0.20924023192018804 -0.6569086301784299
P 1.4212120596050626 5.642074872524922 4.459290607962229 -0.3187851674305671 0.13561129358012775 0.44119718871160146
P 4.871664656086665 7.826620604664175 10.28806244622769 -2.023459730593896 -1.2491342183561778 2.2528453271137074
P 5.575374288990521 3.9168762892080267 3.6470049891632073 -0.29856806905274386 -0.6892952740392516 0.4534099287277094
P 7.361739709368533 7.41912807847043 4.694194912345317 -0.5870520143966083 -0.8096442421436701 0.313792342201666
P 0.9644423987059856 6.052246508029605 0.7733378362335548 -0.2619733006478456 0.4460151789255351 0.9550136435518262
P 3.5495981176022644 7.422444631031212 6.559862892157905 -0.6548288648312658 -0.31299478600103514 -0.05554842668926563
