# total energy = -381169.19721882185 ev
CRYSTAL
PRIMVEC
9.22320285026843 0.00000000000000 0.00000000000000
0.00000000000000 9.22320285026843 0.00000000000000
0.00000000000000 0.00000000000000 13.49908966699616
PRIMCOORD
 96 1
Ni 9.20786441940832 9.005415122221086 0.9001993314054504 -0.8545873825132638 -0.7551882771876348 -0.3322616046504471
Ni 1.3552389444235964 2.4354143175481076 1.931476973597486 -0.743933530209422 -0.20135440141420807 0.6337995549647923
Ni 7.699630990167328 2.995050582032384 12.449535138225178 -4.161003422219105 1.2560890524074562 -2.035161078191224
Ni 0.3990556955239865 2.393965245039705 8.347620924009469 0.7690398383587466 -0.3388662544511583 0.5511794688697154
Ni 2.8153088096594985 3.7520818286761677 3.0717313661729286 -1.2308845281173704 0.02308927771929572 -1.7625367255874353
Ni 3.1368480988868965 6.898918655984649 1.8387782534922459 -0.34878351356487025 1.2509018517795618 -0.8067774621188364
Ni 9.342827543132275 5.039889938852117 7.204288748724624 -0.06855460914094645 0.09371156802254829 0.22953960559917244
Ni 2.0841947623367223 0.036605968820337904 1.9793038907074818 0.5936720908162872 -0.06754262293666433 0.5128679748840264
Ni 2.0445995535519934 1.5159255802138474 4.1462049554468186 -0.294521409787196 -0.27597707112610537 -0.4189728300957623
Ni 1.8840235961930067 0.9795779023080572 10.921316873578931 -1.2564178965017845 0.905454601676776 0.9743087443360122
Ni 5.3824027908040595 4.533739026276213 8.817996878319775 0.30701517137883255 0.9098198206240072 1.0698208559024092
Ni 2.797259002160846 8.113503760676794 10.73061516955012 -0.5114826645007257 -2.0481006690710277 2.2819697552834897
Ni 5.3672306225182735 2.061228987849423 8.70059473235639 -0.4162006666672639 1.1786605378156474 0.13016055487820163
Ni 3.0315283483365074 3.089145695012073 0.30976863806246185 0.708200852694503 1.502733178897399 -1.7574022325743475
Ni 6.3531448650162 0.4470283392351466 12.40158647484079 1.557408716063408 -0.9249247945862459 -0.8006952604804984
Ni 7.948233193191689 6.364701537880692 1.77425272806528 -1.4671431976079314 1.251442040553748 -0.6850845783920138
Ni 9.008283538231346 7.296466357882662 3.6885994474638664 -0.18014408588518005 0.7802102531532692 0.9685168202445835
Ni 9.087658419852911 4.451329710997491 2.278119975676101 0.19457080283347136 -0.9306766094683584 0.6964493685855295
Ni 6.700444559120316 5.502525781536021 3.8495489445283693 -0.634154881421682 -0.013098999275803248 0.20055298855883524
Ni 6.274812205289039 0.41247822227553926 9.910653089209834 1.4455999242195168 0.21599863368994413 -0.09675395439329788
Ni 3.626526371609661 7.886280941291614 6.821994379295323 -0.48354788576367047 2.271660145827365 -1.495677043381566
Ni 8.848685240348527 0.7746171270513879 3.482846399103398 -0.3090028912328227 0.38214306286192246 -1.9810666103396652
Ni 8.516603830543223 1.0726769094063693 11.195078128670144 -0.030626980857237574 0.5357937304422644 0.764526009648793
Ni 3.6444655006770494 3.620752646778717 4.999536582813229 0.2833674500529055 -0.05946061725947824 2.0180884389796536
P 7.6489033758379525 2.278112597114017 2.081451781881894 1.9579935305702862 0.4380720128190585 -2.5758195929249577
Ni 0.39887953235422446 3.2656501232704835 11.182604669466679 1.1435593232371402 -0.11579605862641348 -1.3674800399876383
P 9.247367396166997 4.376677109109861 9.200911969284414 0.8302799161161508 -0.2523630312515912 1.4185532045143698
Ni 7.344288663391355 5.304983228134827 13.197142116446825 -0.47298373709457897 -0.5178955100056049 -0.11734977626677855
P 1.90995001871662 1.3707708176109905 13.635160309056815 0.28768896024639484 -2.5395739803293615 -0.8194422020706985
P 5.456612678966633 6.591112715436603 2.264323909219032 0.386358900715483 0.689434113609961 -0.401184909984722
P 8.411108839143333 0.360364360594581 9.27477875431007 1.4807222218439464 0.10809843287183964 -0.13062361055754923
Ni 7.44274635120337 0.5621080827825075 5.413958133877713 0.3980671902913467 -0.21007635466823818 -0.3661572289566275
Ni 4.530243432488788 8.20924982692284 4.702988483365263 0.33742180869514793 0.41705041626206885 -0.18414317974224415
Ni 1.4594519106613442 5.75552745220313 10.15018150551106 0.9727329152084602 -0.8322771490518376 1.6565836211933727
Ni 9.458670967855358 6.982139613092641 8.757939072234837 -0.43654786286504815 -0.3224836993280769 1.5519338089917658
Ni 0.2527102174647803 4.252993962172238 13.29426797380263 0.31524630103937323 2.0140834315853184 0.05405590130413916
Ni 4.085823414950432 3.387258049621905 7.2532501197550765 1.0586463273428286 -1.2672247573093014 -0.8691495965981548
Ni 2.1325058975834987 6.098335446638444 6.302076914510687 0.8370622291453068 -0.8079198032533956 -0.6846917138289692
Ni 5.305859432382335 4.066491582289638 13.005576198333893 -0.289000994189599 -0.7385856356339474 0.05536305015133691
Ni 7.215717219072902 6.21181773149456 6.651419547991885 0.626072875744496 0.16362603362549885 -1.1589106088822299
Ni 2.7236486221676195 7.0609057633422525 8.567656101604307 -0.5382121100757699 -3.169949340103954 0.9309625161398934
Ni 9.138404480587496 2.1434353926708276 0.13950647332734586 0.22434829120622007 -2.9891771337164714 1.439044382489186
Ni 6.952892837631104 3.9526680389371243 7.321703807171657 2.760805066062839 -1.998840903603951 0.7547571031874872
Ni 7.5407521020877235 1.414571806783755 7.579496009271979 -0.6117261201045207 0.7020314906589974 0.327802540437829
Ni 7.4549025322372096 5.495221005072591 9.114058914990439 -0.10732375948934421 0.745347122727497 -0.3754296553974889
Ni 5.7523731169121035 7.040716172839161 8.28125905894378 -0.24475359433544946 0.6024958597555043 2.807003933216404
Ni 8.868026296211927 2.556155262854627 5.958403783670992 -0.223698316327047 1.1137995754762045 0.7530606893216708
Ni 1.6499848300824786 5.837060563234344 3.5802148266877225 -0.9482876376819024 -1.0129115443098748 0.2606782359855059
Ni 1.2983410075512476 1.1287170884364213 6.41609045583687 1.1607389203402203 -1.1057450806028442 0.841897445750421
Ni 5.512247037082051 -0.01818262161616925 7.602269018824827 1.0497230567112694 1.7865053205878911 -2.25297465360272
Ni 7.5215955102764305 2.981040537274871 9.453506896716629 -0.740534274719886 -0.17634245275090274 1.9150316822967794
Ni 1.126328278961638 6.461886423733171 12.752332879758523 -1.3373189430232257 -1.6752706560799149 -0.0834729210136756
Ni 2.091351967558467 8.302976011798314 13.20138017804398 0.9637857333175014 1.613369290589428 0.27344350607097423
Ni 4.4028064420907915 4.750327493057435 1.585994250406623 -0.08092701466337031 0.049738247765391756 -0.9112436975547274
Ni 4.052961144067602 8.812004563587085 9.12685610860535 0.17897037729205306 1.268613667237028 0.4587007448130036
Ni 4.077319622148308 1.904369981140389 1.9218654741624603 -0.2618923108982651 0.19000838027376954 0.63644624855902
P 0.42892595948164386 8.928382934061277 5.0366452161755575 0.9495022268152937 -0.3226891304706636 0.18191994683868024
Ni 6.599127678500645 8.018513997044387 3.7937439571647538 1.43141797629218 -0.4300113472981111 -1.1022445236487532
P 5.699109121866258 4.2278884046805 5.871185490553846 -1.786847277308342 1.2140440595212638 -3.8347209179702277
Ni 6.730687440463228 4.181883070085059 1.6810411978951831 0.1515441627603003 0.020982001568305802 -0.43159231863198566
P 3.757551187821135 5.886377027565103 10.269162663760481 0.1984608819164969 0.3716300791457406 1.0220618433505753
P 1.109643505448576 3.537411788036856 4.658630412755135 -0.25890520324548316 1.0378838979844967 -1.5108480946950495
P 5.738704330650988 2.7068255006154778 11.148276831689861 0.46080185031640636 0.6493678417166945 -0.13225548973401738
Ni 0.30833258541681025 8.242582481138543 11.400790594939147 0.16307915998309336 -0.8041168845675377 -0.7855074969964665
Ni 7.730796191770775 2.9496263092010793 4.051927223055544 -0.5444591194267462 1.281643503837793 0.06781824519555417
Ni 4.802696837450562 7.082183691752775 13.207940642057158 0.925421017496374 0.8080617281478987 0.286505481461255
Ni 5.580129808257361 2.129923400854003 5.670400059116614 0.11285780193369598 -1.1018488308722314 -0.28048087253372983
Ni 5.737560653527926 5.251839134722853 11.113800500351097 0.3138044263865241 0.5038495734355 -0.6707666191074448
Ni 4.300032295459477 1.0842151358656509 11.205148943594915 -1.2958233948826008 2.137340317365151 -1.3851617735381176
Ni 3.048978647665813 3.397597259742492 10.94854468999016 0.4375305384932917 0.6262137721977344 2.4840047277044897
Ni 6.90707196708777 7.434685272126303 10.451156742209589 0.5053420988206264 -0.1940954058589496 0.4150830081230529
Ni 1.932722105949207 5.007617952936028 1.1452238541392001 -0.12047212394584414 0.5507837760931934 0.17209241922529717
Ni 7.668355110132617 7.440458996957245 12.762079960271848 0.16988152761690742 1.1465885969817673 0.42407081344396
Ni 1.5451723556753836 8.984330881065276 8.485419260214305 -0.7682919044491284 1.694957850096197 0.5745214860297654
Ni 3.935614337319848 5.7645016283381265 3.6986287579769144 1.5117724062815316 0.6308782675529393 1.8549360025564634
Ni 4.803370131240752 6.047838412374202 6.67484094868789 -1.0066604211938404 -2.4738612115125846 -2.1768879977507862
Ni 3.184181574657506 4.439653136499129 8.903472908464773 -3.112485184449214 0.8695152074676897 -0.71795638941937
Ni 2.468617846927335 7.9892672215828515 4.147946296098707 -2.278364554430734 0.3821577181499418 0.0747514819802777
Ni 2.9456234392703617 2.1395708707791896 9.182026539629717 -0.5576095407657752 -1.6682415171472753 -2.2814907587645417
Ni 6.658386755239961 8.870046177582495 1.2786540815901473 1.143012449594735 -1.1484446763538996 -1.554773078212774
Ni 7.853640027271312 8.253069262500814 7.777891708914168 -1.793431358283763 0.010895820976897366 -0.20448600506465428
Ni 4.118528891388971 0.46001091922242465 13.33365842748952 -0.9039183675379078 -0.6057791584924664 1.6318339250525185
Ni 8.564979528208237 5.576080822313615 11.175720471042053 -0.02488493616713779 0.19759159193766618 0.6481499101491933
Ni 8.682612254236757 5.2336970951981465 4.981973760412138 1.443605262386991 -0.7812731472001448 -0.4724885426257153
Ni 4.632473410166388 8.848048839368758 2.2943860157908804 -1.4763418333880638 -1.6537597785913325 0.040922449245974685
Ni 5.359566141153235 3.519601783805943 3.484978803545753 0.05958711553501351 -0.5697680305051801 0.18279952123015614
Ni 6.299871646767751 1.0772792875064345 2.993180116544021 -0.8701649252365464 0.399879303799421 2.1155232214900597
Ni 1.9117669896298723 3.5690473729731758 6.587028681322959 -0.45276561027549117 -0.28838830030626467 1.1166946376358122
P 6.2466906605453545 8.077505600908149 5.958808682265366 0.5408539185739911 -1.1344079957551754 0.32864971892947276
Ni 0.39845895431542094 7.507991286433553 6.615485028321217 0.6062689536446914 -0.05614003752667751 -1.879358397264886
P 4.18746310766129 1.1633502142194767 3.9215664774316537 0.47608114507298005 0.02352122305039175 1.0089075653568043
Ni 5.882042122340592 1.9289405928810173 0.4219071022989794 0.92864826618442 1.431060078732129 1.9150360531721535
P 0.7661290136936925 7.035984669902621 1.7508322496895377 1.4114759859526143 0.12187234672748043 -0.883256211202866
P 3.3052545552578176 0.8234798098139634 7.3837861062284675 0.1312393897646772 0.64733127090264 0.2768183360804781
P 5.057386354194447 8.378421809110003 11.221644641454567 -0.054698677094460635 -2.233167389068806 1.0795825632748632
Ni 3.301823523888631 5.517135334462881 12.434766946213507 -0.3109666998274128 -0.4044142155552971 -0.29504334372893704
