# total energy = -381170.32480890845 ev
CRYSTAL
PRIMVEC
9.21197951965881 0.00000000000000 0.00000000000000
0.00000000000000 9.21197951965881 0.00000000000000
0.00000000000000 0.00000000000000 13.48266318817988
PRIMCOORD
 96 1
Ni 6.7630943484955175 6.033155533837073 2.100787270166473 1.314249205687956 -1.3464918677717457 1.4326197099097648
Ni 5.717543911521858 2.1176497982493663 0.6445336335006682 1.035223577543514 0.031029872722611075 -0.8872625041487817
Ni 4.210832579515306 8.673585156562913 6.711992735802683 1.1902377011302856 1.1711560019084863 -0.9829234825882169
Ni 1.944823854866052 2.828722479330229 7.865946981419371 -1.9343725487172365 0.23100076352573118 -0.9009325454367065
Ni 8.064240362736564 2.7807188552712523 4.517608992497386 0.9159267048526935 -0.17703485083223705 -0.1348016531946388
Ni 4.824764939026046 0.5535238841453323 10.892738069772218 -0.5027866793886244 2.5918884734623617 -1.2251309134630448
Ni 7.497132493936201 1.310560657071266 10.5487682904232 -0.4627466327476031 0.06903077744641659 -0.30038249655366334
Ni 5.907246200956995 5.872010380188317 11.081818550605554 0.9290223616943871 -0.5653184793742586 0.9738186920734713
Ni 2.808529820735472 7.216913296037526 7.709359915121291 -0.4056246909236304 -0.46274251898254504 0.5027488841721536
Ni 1.456846888131819 4.926898153369141 11.649357540036497 1.1432731594552892 0.2797707338405827 0.699281438717686
Ni 4.6084123935167165 1.120121409293255 2.3655063917186445 0.1991666497342699 0.1165481063010896 -1.5573107570329632
Ni 4.105604140132138 4.197162002254987 11.730913956248612 0.47846558614475665 -1.011580227092961 -1.2101321260613676
Ni 7.917659348338862 7.291456632419263 11.405928223812037 -3.5831248467916486 1.916678988092215 1.5766567656597428
Ni 8.424373480940675 7.77198110791118 2.2012872005821733 -0.7966506580974797 0.005032163107268753 -1.0138960197103315
Ni 3.7333664811463176 2.2167062115109615 4.274409054557145 -0.43201217977822376 2.6468979969290216 -0.2982579940114928
Ni 9.042488079047226 8.580074354831446 9.348379220819927 -0.5017839491557229 0.4761852747510122 0.40905274276857295
Ni 5.584965105638768 4.6481620841355005 0.22720057231643934 -0.9443471649769156 -0.6017458689633571 -0.2617789252488524
Ni 6.903549396668078 3.1694920170753154 6.808057098192209 0.9239143510438605 -1.3372924606606647 0.26672984149622453
Ni 3.015965170296022 3.396733122100613 9.637447446020667 0.7854918132671828 0.5445820181578558 1.082573270472071
Ni 6.216188350269197 1.4153653454072805 8.565495476413535 -0.3047937382474815 -0.5148420678912617 -0.014049279004214512
Ni 1.1050321872229032 1.300326148084599 0.12410286374210737 0.7830235542323482 0.7270292982549157 0.5640578674942802
Ni 7.479998212464373 3.7473226297645 1.0702836801584503 1.7925075609179129 0.7179936704152087 -0.8543742380611932
Ni 2.4041239300831876 2.073201998194759 2.168012610203469 -0.4444812587795119 1.1839192151114255 -0.7735225567204485
Ni 3.5192248106656114 1.9002286631428693 0.07720007120779968 1.2474144074515936 -2.223337033241945 0.33528085109274514
P 1.501506563710003 7.146782497733748 12.18267771121193 0.14726456154833995 -0.5732112518587742 -0.5818984952201269
Ni 6.063158950371344 3.664691175569717 2.941458681831428 -0.8594639938792746 0.3582058353200347 0.09317703567531695
P 1.5226480561712101 1.3403245621441027 9.472473793780678 -2.9148267438293542 0.8212802837207017 1.5348796817229566
Ni 8.351064549783251 7.1507436488266976 4.556074533203711 0.3680966120711854 1.3152411372875799 0.5320134374642257
P 6.145265321746829 0.778714402581582 6.349754680331739 -0.3094091255323059 -0.14964308908284552 -0.48562019491166686
P 0.06920683678139905 5.773912012772458 2.3720321578447967 0.17450359976995108 1.7773303389568422 -1.2617462506932335
P 4.085724688833103 3.63230185640039 1.7236506805963958 0.008683386706610851 0.017105806442351185 -0.2413707939061456
Ni 4.258467724402845 6.277291408872764 5.88147476770668 0.14313974074668895 0.4782154178071635 -0.8066324519005398
Ni 7.632751252983648 5.484453199649996 6.08704469146183 -1.124755817377392 -0.3517971035802135 1.7434313722165524
Ni 0.40719527798006394 4.200008503854338 6.000108479346731 -0.504611391302189 1.238159464512229 0.6202513839667125
Ni 7.381872209110657 6.239218298484019 9.109385472621643 0.31179125261123725 0.4131230561832047 -0.2012716118924147
Ni 4.245147202355391 9.341960313653495 4.272426636614813 0.2684000301097958 -2.753701365138522 1.8007880557591502
Ni 2.3486954507197524 5.696199755516361 1.5918309418064658 0.41093144784852453 0.5418461072839313 -0.11569707115470397
Ni 6.529036378798633 -0.27769419437640214 12.129569729430619 -0.2795367634529057 1.3805967798752545 0.5532270954273633
Ni 1.4692646362092514 6.566648890223081 5.664673598806126 0.33079916117230773 0.37495322998170266 0.6045134044061654
Ni 1.247615202610513 7.392309381641615 3.428344950218207 0.3771777484368472 0.5617181636175099 -0.7510012356894809
Ni 1.651035411479203 4.977517979545321 3.750337710584785 -1.3272967829005333 -0.7343104052973611 1.4004392685224785
Ni 1.9057834866522847 5.422346035304263 9.211719508113172 1.2904798711825 0.04402448521006612 0.07534334992800573
Ni 1.9495035403433039 8.204326931737688 0.5340672626955215 -1.121411069274875 -0.30504030704064883 1.5528331808775837
Ni 1.2642704611594726 9.245971489494112 7.638157763626561 0.9619144844367175 -0.2856829855599596 -0.32979206006403206
Ni 8.703284577780748 7.362932379698787 7.283846616331158 0.6858240276611995 -1.0745509143882268 -0.4451669719926269
Ni 5.707355462431622 4.852207425318828 7.995165257258954 -0.6546087784006597 0.012605090358520227 -0.8499619679261103
Ni 5.081392257973457 3.9913571730280464 5.731830770196406 0.23936507633002646 0.3116295302223923 -1.278329351862895
Ni 7.390476197763714 1.7777277625985852 2.2782864506415397 0.31617678327344256 -1.5680679955494672 0.096942159144704
Ni 0.20394493060911148 6.47253930983803 10.5072010762913 3.989112320371336 -1.9857267348194967 -2.8352148484329818
Ni 5.048284404419828 8.09498073761371 8.821032097013493 -0.9838182264883442 -0.4053868638812115 1.3975678605119544
Ni 0.5118765257936472 3.479134276813248 10.151406800330863 -0.6525274703915989 -0.8182229849516166 -0.5412542393362033
Ni 4.524224114822611 7.712757293081943 11.53630536664579 -0.1831615325552652 -2.0866818717783353 -0.9578241164174277
Ni 2.71098417207677 3.7253152112504155 5.694065339915811 -0.13663922062400985 0.971852569486036 0.6804208543677572
Ni 2.419360543822114 2.3665206306380253 11.673478186598775 -0.9086381416110803 -0.7669739569686533 -1.4994151702677596
Ni 0.6802346592232862 3.8373052434294546 1.7911044777196825 -0.25480352237228376 -0.9773040795189105 0.3934425470351418
Ni 1.9760524646453512 0.490714766978011 3.731650289405349 1.5413092393983843 -0.4755005899791617 2.422875207383021
P 9.364990261868316 5.413907862278351 8.196353042467788 -2.0272482511020504 -0.015798657595153438 -1.1244909937517795
Ni 7.905002088799995 0.40362747840262364 4.5750447621472246 1.4295372143296994 -0.6591475468112777 -0.3626157914622723
P 6.772877470497175 -0.09833695767936385 0.7613590336068915 0.16459276841414236 0.5453268667436801 0.8665337562418625
Ni 2.5126041981542877 -0.145883667565758 11.933046890532182 0.4170892399198043 1.5678810763496416 0.3780681214616005
P 3.4889634587113347 8.379594049631773 2.1157668696833225 -0.10476808294702601 0.3309547129135655 0.8765805989549034
P 3.3941261319626954 5.087241864820022 7.367560478092037 -0.10777653075604664 -1.0353616457832748 1.0393959637536487
P 0.9725915610291016 2.6597839912055763 3.8207301291002826 0.06847670471515947 0.1862432568043825 0.4490783912318911
Ni -0.05133099097705377 6.013672197647333 13.466645226480576 0.2345709973754928 0.3239690256243517 0.8308579001068078
Ni 3.7176508444845227 5.95846480578676 12.960641337481709 -1.5860978564679844 1.307301313615213 -0.4045633395386517
Ni 0.33643161669934285 0.9160309294114258 11.315688595925005 1.596523936897315 -0.4248462581574038 -0.669515263198847
Ni 3.3086942360649894 0.7761893990593088 8.810731261775967 2.128308803290502 -0.8971453104801322 -0.2934824269997203
Ni 6.056728988829765 1.7775803709300102 4.325588969073909 -1.1272122493376844 -0.7476983965684929 1.1449400056347507
Ni 0.4027016744843877 1.9756010776603408 6.156345490431946 0.9595806940972185 -0.6298721948859282 -0.9345597465728485
Ni 8.52958349636527 2.259459007376958 8.395816345154294 1.076639164375823 -0.13452037450879412 0.4192710780624715
Ni 6.009655774678668 8.294530632905504 2.633069251276382 -0.09752605667263203 0.5813583064459408 -0.5777834446104889
Ni 2.5960002466298033 7.742419866382634 10.074704176004502 -0.3299087881475544 -0.5149793648000743 -0.7311759734334375
Ni 7.118455661429516 3.8564477363856153 9.6094577681583 -0.3853196608176912 -0.8284436342383603 0.38638255486456685
Ni 4.280677806461219 5.668103218694277 9.639834269853651 -1.4155727817298072 0.5627730872445856 -0.7749289501496719
Ni 6.1431649904696375 7.068406977969064 7.064214606196037 0.752721046594065 0.41470865550276964 0.26906568871825276
Ni 8.71273606852811 8.745429383013873 13.289509919187303 0.32880861310484016 -0.6232670308645847 0.11869060656538913
Ni 6.1621877276950805 2.8377870669475826 11.890265537530398 -0.5212780533245925 0.2122283680142345 -0.5066291930631661
Ni 6.65700919503876 6.811144032450923 -0.21912166648267958 -0.184632717784153 -0.016149356066352833 0.4788700206720269
Ni 4.797626448049699 6.625642405570171 1.3155360470835962 -1.2814534993141737 0.04523444635776726 1.4035639301943892
Ni 3.8658992271329784 4.801440207474074 3.7314347290900582 1.7924641092744873 -1.5752953665358418 -0.7933385630051112
Ni 6.177359857579006 8.047907523462612 4.900665199956601 -0.8888151933478822 -0.7263929502224974 1.1406326365086485
Ni 7.772653582399053 4.648852982581945 11.93676760896577 0.8154670194730343 -0.1613362091500576 0.20209770733813584
Ni 2.7795857818190832 1.3669287583218657 6.302376549666278 -0.048073715578775274 -1.375506766946857 -1.6001728465038119
Ni 3.567458734206736 7.012610019434192 3.7268508481973797 0.1200052116117546 0.8069661810908748 0.05500720947381494
Ni 4.3014047598545595 8.565851058813973 0.1496559730833459 1.149643324647691 1.474246898532248 -0.23943963832170378
Ni 0.2712209365321798 0.48995846347863614 2.4919196198656626 -1.118051665884339 1.0787955485971936 -1.8186813910998034
Ni 2.443394597779103 3.7936036136970075 -0.04365649103394629 0.44375646479834546 1.6048041746282362 1.6896629202458446
Ni 8.200550020230457 1.9828601173376528 12.868985828378431 -0.9035545564405859 0.5887561415719086 0.5696158211980319
P 0.8943892264749929 8.883609072302809 5.478180762954207 -0.982419546368605 -0.9261005600619019 -0.1135309167413206
Ni 4.385436434900805 2.4741902445319637 7.473278073575289 0.744987168284917 1.1518159068189775 0.20964878021251634
P 4.937878832677968 2.767066701969506 10.052052840138332 1.669442479433912 -0.6992446719424796 -0.02587918175960704
Ni 8.245366299456501 0.390438687658959 7.006239014560044 -2.2098037746422006 -0.3555563135123296 -0.03139111271677174
P 6.886175603734816 8.501007936620317 9.712572979493277 0.5143124206400368 0.4118943259824261 0.7800906968562695
P 0.35673574024345905 3.726171925324007 13.16568525721963 -1.83684546360334 -0.7206048827858107 -1.049663664228244
P 6.279539131818531 5.406869910103902 4.3086813022925154 -2.0806778316761005 1.1041808214395177 0.4412228997432143
Ni 8.277046296220812 4.940163403540879 4.003811769022622 1.055454302768092 -1.0066146555575695 -1.4454479720226847
