# total energy = -340867.04875339713 ev
CRYSTAL
PRIMVEC
9.29598972212322 0.00000000000000 0.00000000000000
0.00000000000000 9.29598972212322 0.00000000000000
0.00000000000000 0.00000000000000 13.60562061136864
PRIMCOORD
 96 1
Ni 9.489625341029283 7.734756260963568 10.36178254761181 -1.0487084994038263 -0.42143209026953227 -0.07131031750921267
Ni 2.5589629080034655 4.012102748803948 13.145478799567732 1.9813977684268391 -1.4475133391921458 -1.5470641396042903
Ni 1.7062975329845391 7.521617805178453 5.648945293459872 0.24117693272778462 -0.3489195249221023 -1.3483772577199165
Ni 4.656937678254668 3.353574826271778 0.8031642289505493 -0.06400838453116074 -0.16360700746210532 -0.6865598773859596
Ni 3.1992335064270354 6.718760343893679 7.257619129605675 -0.300457829876289 0.9028912118249741 0.9656927205322272
Ni 6.642105611409203 8.277279525883104 10.559417151488411 -0.05355222219484325 0.5590629853828502 -0.2486544720517524
Ni -0.167891154682164 1.2848080561983861 4.784838414106494 2.4188043797477565 -0.0960417588176217 0.8711879671844223
Ni 1.4427934040729515 8.444235503984146 8.448519096117161 -1.512216692907802 0.15143771908942308 0.06997745763040207
Ni 3.629516989632096 0.48201473724372945 11.005477788704225 0.6681260961608041 0.5936245254078034 -0.22324528795002846
Ni 7.039527770416759 0.6251887844552443 5.983902118923567 0.8679931143962084 -0.48759840168396024 -0.06575107825388031
Ni 5.04088065194783 2.3207717595133217 9.917436090928394 1.416474210498154 0.5358600649038255 0.15971384305528624
Ni 1.6320318698971663 1.8308916852388963 12.770480427329403 1.932808032443594 -0.5659034053434512 -1.4676113954936014
Ni 2.777530221873826 3.2949729061187183 10.626697807785966 0.946881501362995 -0.18418945959914731 0.43566931691483674
Ni 4.740806098879812 0.24599699118565838 8.850374512694671 1.778953219272246 -0.39340783714246436 -0.12480211877976569
Ni 6.677448964902531 9.110767273796103 3.5508496753403334 -0.42350568496910934 0.3945149541637141 0.2623648796593095
Ni 0.9409772788028842 3.5421718687948256 4.069617967740972 0.4304566623656457 0.38031603695551275 -0.735819642853036
Ni 7.600726678989135 2.126978258651829 3.548032990409119 -2.3403062862408532 1.6527123111634245 -0.6855345214452387
Ni 3.217834782160898 2.0107504972822676 8.514016781557268 -0.6198970859510872 0.1546919643606626 -0.40767925945981404
Ni 4.679220165977841 5.777030089911163 -0.12832184419302747 -0.9436704506248652 -0.8655901613816706 -0.25551803194080513
Ni 7.241631886223816 1.3166840054694589 1.003424020367002 0.9900575225298368 0.5864912567971319 0.4583364194950494
Ni 0.06132750438352948 5.653068064968101 9.26727827767697 -0.49041813052094246 -0.0725750431542492 2.188544093932476
Ni 7.174607799246728 3.7686965499956147 13.540721978549293 -0.804573512488982 -0.5448532695413714 0.09281476723989177
Ni 0.9863417093782229 2.0169416265370166 1.6793828535081503 -0.11515893926304682 0.5138863888462117 0.3035832628791481
Ni 0.41554562086199925 9.12183879773365 0.7974258144025663 0.5393076571327938 0.2510743943471547 -0.9620795492596721
P 4.018228806129593 1.9051108683769096 12.626383288323598 -0.03802584442447 1.2064698467184318 -0.6953301673794218
P 0.6522271005969308 3.24075869318524 6.160162453287488 -0.5352041764873815 -1.7061856004912164 0.5945948597408728
P 1.8717940406756772 0.2298600823668612 4.948827112240394 0.3607869657836496 0.837996568034118 -0.5621002295472771
P 7.062377313522125 4.613980909056176 5.724102441975969 0.016211062542223695 0.2150236713711845 -0.4668516560549121
P 7.307893702031401 6.280547381327805 9.830319651441975 -0.24435610178671466 2.1237906037051744 -1.596029770869716
P 8.144235318835104 5.596436894667904 0.5495742732374448 0.9960736468169297 1.15495573799954 -0.8784729308816097
P 3.3121333034224216 8.100358246639283 9.164446967311942 0.3440413708941946 -0.3394984887185185 1.2110304695059209
P 5.485712359302565 7.198535677177245 2.932637531284022 -3.446003801435214 0.3283640693682538 -1.3171704930998092
Ni 1.007183318671237 1.4960501300496143 7.50121403700841 -0.37597190105420414 0.8398829864235535 0.5626368187770374
Ni 8.852775666878609 4.785817281840015 7.312613276089413 -1.9466840190947376 -1.288570312864613 -2.1912365531629745
Ni 2.2002957307722584 8.088775443258777 11.847339364293916 -0.353299656267669 -0.9237940234159123 0.6916825433245055
Ni 6.016810852669419 6.162869445538213 11.485497606521422 -1.9606967884340618 -0.22238576816321054 0.3213526710474272
Ni 2.9091521424714117 0.1793187150318082 6.94320644175909 0.11304883489857949 -0.8474525712406954 -0.7502095930261209
Ni 6.617759413934447 4.258474368381448 9.240529066820303 -0.7901743063445165 1.168572043231394 1.2486184550620238
Ni 7.210871455737383 6.5797388153579845 3.6115710811842083 3.553360471045022 -0.18144814940858428 0.5699042989727282
Ni 0.06186946059306682 8.99886214771702 6.458452176300083 -0.6668492863309096 -1.134897533797084 0.09691233434803309
Ni 1.9010299288231034 5.480655340812199 0.9535612602926046 -0.6478665745808198 0.9044837531230746 1.0824742830003615
Ni 5.145070106433157 1.0190542977377754 1.7963226877019065 -0.8907080394952208 0.42167968750396406 1.0333016779304527
Ni 1.2536664901272008 5.594252337047986 11.736970865340675 0.9785747187012177 -0.044876291687400136 -0.007880688299657396
Ni 4.445574756535104 7.384120818981765 4.917969073860305 -1.1623384036168563 -2.679026244922135 -1.7046439670357094
Ni -0.05569320492211294 6.762962775735018 2.0335507716413113 3.015519885376058 -1.8867492904123184 -0.28060479970610386
Ni 5.072468425532872 8.35887042898961 6.696577323262136 1.050329322836701 -1.1442375802510876 2.924612619571524
Ni 4.387251716078203 7.794594547769603 1.1286456519377188 1.8126616672682847 0.6071361867409931 1.3464551009965393
Ni 3.193776760372174 0.629812609817575 0.528016872724287 -0.5046939237136663 -0.7884694078382679 0.15232783500386024
Ni 6.262011177523047 5.388941104735091 1.5816810703544892 0.28323041025440904 0.9336516329362824 -1.739097777838205
Ni 4.9583694458439975 1.2247652576151664 6.661257209743489 -0.7335974383907365 2.499453458159392 -0.17219269224858733
Ni 9.07721804634807 8.077871247138926 3.9873447389778622 0.5934766869760295 1.574743864907746 -0.05152722134501449
Ni 8.652484269096592 3.091483687820734 8.832592213668532 -0.8596611974917453 -0.833729308117332 1.1369022229319388
Ni 3.0714787176161993 2.122962391027127 3.5964827600229725 -0.2695876226599938 0.42891322913792584 -0.2276243908543306
Ni 1.9407888775056286 9.040814950009336 2.5406051872042483 -1.2497597677553185 0.014948393779716193 0.2697002369784581
Ni 8.22037877187662 5.590255061403027 11.611907265597782 0.7852627279755121 -1.7539204446733343 0.9750695337614368
Ni 7.63745513497339 8.039887832521952 1.5732180011750245 -2.3283956508461965 1.3280729989449258 -0.9004512349249137
P 1.1439831056275245 6.01723846820353 3.725436731527296 -0.7944243398701221 -0.6807052183773955 0.9450740158406109
P 6.360706701994024 3.178047945508757 2.090421778480206 0.3620216095216991 0.3846938543082342 0.2806757621533553
P 0.5034159651270378 6.779742037453971 7.487812938008941 -0.10420758245786568 0.30147778650037116 -1.2577409861885822
P 0.7308395685484489 3.6525245645652853 10.618030226829319 -1.0547894154905835 0.18608050597427309 -0.07463912477212953
P 7.199325836316365 1.5800115105734789 8.57242534512099 -0.6560483390606637 -2.230814829676229 0.5542200554682519
P 3.6632986168269284 5.232089867624909 5.890744215619337 0.20854192030158278 -1.1211272194858692 -2.2789271118024237
P 0.3850129421274296 0.01659891951543537 11.666452415770703 -0.7487193816338396 1.5732310278076453 2.0881908522236943
P 5.176202376514471 1.3861994177322423 4.398669980437975 0.731230995041089 0.5903481686493769 0.6661288632251173
Ni 0.27779206534484496 3.905310417154462 0.182727554517869 0.37348307319407936 0.5571583121609694 -0.4448802939901435
Ni 8.852961586676049 1.8385422849035489 13.142417630102884 -2.189183013068056 -0.7360011627362228 -1.4014620533600382
Ni 2.9524993432445275 6.62149640186299 2.747260619652634 0.7044426712036513 2.395103950807023 0.3543144706854285
Ni 7.237337138902955 6.713443037686898 7.561949386837092 0.6441405318794842 0.32769352566379045 0.07829703323969096
Ni 5.779753814943659 4.89102929521126 3.609421848325803 -0.9866816640790684 -2.2141525385292 2.789925637577879
Ni 6.649709731124497 3.048433958723522 7.265877687007956 -0.6513738164031299 0.40349376062355674 -1.7448331376600852
Ni 9.03803544903761 7.478242716435721 12.94611514157494 0.08335490737857258 -0.9068825923725542 -0.24450008356374667
Ni 1.378427970199254 3.7390981182431804 8.449960904146307 2.896445413108689 -0.5034006588235395 -0.7902234144148972
Ni 8.19672047765239 1.43761553771425 10.578057470379738 0.2439382975230057 -0.2907501156702218 0.32339849783286234
Ni 1.5230363886480178 5.163280950592397 5.955643239311687 0.9577032745688474 -0.05961025546346507 0.09471455536576591
Ni 4.971802151209031 6.7751870024166925 8.959627492863275 0.9029521469698965 -0.2491463240865064 0.694706417752494
Ni 2.828639574190058 2.5506894770173894 6.139264138456254 -1.4348524558950257 0.07972785214894657 0.06982267722009265
Ni 8.718513685157376 6.247146889717726 5.479921887211298 -0.7663008421610286 0.5556555023631978 -0.34673100191121575
Ni 2.3904823875634165 5.562469347675633 9.44036867949454 2.3142353001854143 1.1508023779527987 0.7453406949695938
Ni 4.93551060674876 3.895029052356035 11.809447979976675 -0.35664620414239867 0.011423411345593229 0.5977642586077898
Ni 4.8503593395212805 3.3156750755636524 5.48237138054257 1.308092956278573 1.0902888939487738 -0.871387227679422
Ni 8.583731128003311 4.199286800866451 2.4029157740172105 -0.8259365515457904 0.3266709979365471 -0.2070349967387531
Ni 4.545376503800848 7.907940552278846 12.41593137361149 0.8220112483494552 0.6196083510660748 -0.7505512926362558
Ni 5.439046490145146 5.38120684116159 7.000717942300166 -0.5417800299326863 -0.9873900030000026 0.4668688824460927
Ni 6.254797489382378 1.558463406050193 12.04742346150179 -0.7128370659149337 -0.34691277890471867 0.8721030227995238
Ni 3.3888716998157458 4.688181500214444 3.6562792148745844 -0.6507120144494148 -1.9227339360370437 1.0893563548321754
Ni 8.039813464602977 8.862034472791116 8.452560062914516 0.05940405298992995 0.6059660776922918 0.4987603318380507
Ni 1.460939176303087 1.1318518388445702 10.154119429861302 -0.5431319159748904 0.4232102652158776 -0.503843402787913
Ni 3.8775154074371954 9.210754940859289 3.557121679706969 1.0018653137980422 -1.2995962316614715 0.4253350248683642
P 8.751635297071296 0.6445021330133024 2.581992793312347 0.4327914811464094 -1.4364126012932938 0.258964852838825
P 2.3862434161817863 7.543249573610586 0.7827818415572116 -2.160762038723201 1.3672967203322388 -1.037588992451897
P 6.093261073376711 8.96508981651206 13.890386919188458 -0.5585428512133219 -0.013521688635518649 -1.4601387412656401
P 3.6579069427011706 5.922242747701606 11.426381618128442 -0.20545171141203325 -0.11452619077505438 0.44067834009365403
P 4.010736238292765 4.017949926433433 8.773815528905878 0.21873043079881044 0.18771264226105736 0.40185699635108213
P 6.623011648212124 7.743959290936844 5.355988679836841 1.4772463474802042 0.17629617289399963 1.2553478033660574
P 7.075865794826391 3.55379185613482 11.407183539844796 -0.21264411539541442 -0.7777476505453896 -0.9997156144448911
P 2.6599359499930815 3.382596906652149 1.7147568837680551 0.0177282705176985 0.6796621218248617 0.7683222434664316
