# total energy = -340860.4063812609 ev
CRYSTAL
PRIMVEC
9.39217862194830 0.00000000000000 0.00000000000000

0.00000000000000 9.39217862194830 0.00000000000000

0.00000000000000 0.00000000000000 13.74640278918556

PRIMCOORD
 96 1
Ni 8.691997054875564 4.960596795700611 5.4035491436049945 1.1270916645994202 1.4988497846825928 1.4005012321086654
Ni 1.3584318248168472 8.394099721973243 2.865134462479068 -0.33266012564044645 -0.8616077796951549 0.8693768821176123
Ni 6.324930377919725 9.019582301611338 4.372364110107402 -0.5568472086784538 0.3636475751608963 -0.013890384828847045
Ni 3.3379151973563506 7.206611451817605 3.913593921037643 0.4299231584596789 1.0212365192358026 1.7104646874825444
Ni 7.812861467397194 1.0605910582794027 0.7692497670664363 -0.7223959132479624 -0.8241450068630065 0.784566730349752
Ni 2.5564791497497046 7.663460270027009 10.153535221273723 1.3278413425500937 -0.5363187497077989 -0.5793772714601699
Ni 1.5188823187931946 4.534369236345145 4.468484505626284 1.7787729849406397 0.49380530182562055 1.2643176109648355
Ni 3.5962914966639348 5.633783676385791 5.649464815502712 0.2855112358687857 1.50831375830897 0.5825333005906483
Ni 6.5316710138212075 7.925692509873774 0.14220124189396796 1.2606144510816353 -0.4038259471519949 1.2138795089189418
Ni 7.636921217171763 3.4160427749802995 1.0724209707208812 0.7371123935225306 0.948124886851793 -0.6065165508791232
Ni 8.10148191645953 3.5473710187719747 10.315556374648182 0.6166659806082994 -0.43197592722364964 0.83969195345867
Ni 5.190510785747099 0.8241219693163062 1.1235249102971305 1.4709322323367184 -0.8266939985371053 0.5576923302875686
Ni 1.1225218000932946 1.2371912494284092 12.87723491610292 0.29381204242499726 0.37580837889314633 0.053166042500018114
Ni 7.58726537653639 4.226506795496821 12.566521530464744 0.17519085564496278 1.551779285691773 0.2814244673939218
Ni 3.2568933073961457 -0.010166861314066222 11.801219152894042 -1.89235969462056 -0.6217937887531678 -0.7826520298255425
Ni 8.26938031514481 7.902575722093647 3.5906970831775045 1.450957074766372 -0.7405836399005826 0.2847447900164064
Ni 3.298337597396735 0.040455321387972525 2.4005681065548137 0.6652598303566026 0.7514437225435381 -0.0483519089408264
Ni 5.5152394310565365 3.0520476447180753 1.6349621561592664 -1.2548376964988583 0.7789131316084004 0.6945470093564942
Ni 5.236442674028006 7.8252966399428665 2.442957054848865 -0.029740721597542326 -0.18566090193835122 -0.7372023821331756
Ni 8.347771869138189 7.912776523226639 6.083507960938815 -0.9111997316906694 -1.7596344643389759 -1.1367433287565714
Ni 6.135536760580819 2.2550747022249484 12.776561870984109 -0.05489125272124096 0.244210834458102 1.2582094411845686
Ni -0.32896263772055284 3.8637938361718307 7.771124917844736 1.8626621675561275 -0.6066535906776197 0.4404399988306027
Ni 4.4737018100135275 1.2839999163649252 5.746398823903088 0.749076250752626 0.42513216482893873 -0.20433816663288035
Ni 3.8967625991682047 3.928798017144092 12.94341190637365 1.4327582923701583 0.40239821356653277 1.2955284893500012
P 9.36754086743066 8.94369852312755 13.4285373076128 -0.5889224919464439 -1.6587816572859564 0.8716679921446342
P 6.2656111166177 4.950132018198187 10.941577277525365 0.2783579126534561 -0.7457371590770641 -0.635120844879377
P 9.129830146758492 5.36587594459627 0.6228098188976129 -1.8289082110341341 -0.8994544182292832 -0.12849885090506255
P 2.279228540027839 2.6467684958224162 0.8461498545725338 -0.21651979630073678 -0.39528165712640956 0.4316594244244953
P 3.254489236888832 6.29007606942742 8.105929918284435 -0.2734527620423549 0.019319269153902214 0.13315254762699003
P 4.550594355337641 2.300167522760166 11.333038206254086 -0.6852437296776973 0.20255587792147697 -0.046998994457357765
P 8.363695300851337 8.03059483353996 10.198696864219542 0.35963768267055485 -0.3630503078965296 0.0472879864526863
P 4.603399056951222 1.879398617615424 3.4654761212471534 0.3763331410483648 -0.5727404828699426 -0.6827762419738111
Ni 1.0582529818644468 4.263765174496441 2.318840079806382 0.18657364356060768 1.4237422049144772 -2.3090948936350557
Ni 0.5954995779345316 3.537999857657192 13.50242806450739 0.431732700864592 0.9216790339554385 0.6182202124692966
Ni 8.004791143428129 5.76415029197454 9.484393778450064 0.13285301410870023 0.776656731474056 0.9665129024406773
Ni 7.2307841450754555 1.7936440084604295 3.4277793529197296 -0.9305349416841717 0.05139712352505342 -0.47462384380116324
Ni 3.9315697690231124 3.559155678121551 4.810492289860442 0.7293625743737826 -0.5034009159338556 -0.1632820200225188
Ni 6.687464210422602 8.100039474155142 8.447124089637098 1.8651448247686653 -0.3124142309072168 2.4511426868691464
Ni 9.444980220948594 2.8650298147040436 4.442722297515362 -0.2024949427765545 -0.9375831067802047 2.7441335189444285
Ni 6.370211753004536 1.289006039656625 10.560505704479233 -1.0435364682845834 0.056344954448631995 -0.6275983112500868
Ni 2.122473715223519 1.8369455607745113 5.970195161588024 0.15224144593764102 -1.8662396004947408 -0.5528231751207253
Ni 7.270314606397673 3.0966219402419117 5.624862217871788 0.10806629408232357 -2.4356631031763087 1.1680398248770076
Ni 4.116579493083976 6.567194690964569 12.835839650285223 -0.336474357180214 -0.2798887474756857 0.15515502004001022
Ni 9.418148908541479 6.913889941301616 7.956562660733176 -0.753461010083883 0.103782321994989 0.36938010676929933
Ni 8.493618813248542 0.8041342442866773 5.421252530266302 -0.19227172238664952 0.17639875991013493 0.14002922014216526
Ni 6.242824299299359 7.07695191578983 10.681573752454794 0.4165894174652502 0.0751911406208576 0.7428948045322625
Ni 6.355089678127161 4.079952771825494 8.741997007563945 -1.4248004709756623 -1.0903958518402834 -0.15005215159580612
Ni 2.2965755585904155 2.8158359327151734 11.544692573717969 -0.5572845533261885 0.5848676051507798 -0.6803930864536153
Ni 7.925324828502068 1.7782108185762246 8.918174836521864 -1.3457768439825921 -0.8667659268573266 -2.2174831455643296
Ni 2.1741093786296215 8.423778208079215 0.01504476751204273 0.07389453329662113 -0.3411573644781802 0.5352892800020201
Ni 0.4941967606200801 1.5238507311749758 7.6981590210159005 0.20018249259329396 -0.8865410526017248 0.34119618813591557
Ni 5.274888946690063 5.473295471499525 3.2909811416443553 0.7503708011943335 -0.042523475184507414 1.6167649465345382
Ni 1.339425526217851 6.291716494008881 6.0604373690233375 0.14195446218933616 0.7795415092210188 0.5615952648864005
Ni 7.1791390539418725 5.847444264257344 1.76694468423803 0.11018668285943603 -0.2176215140053478 -0.1798962315404321
Ni 3.050671196506045 6.6928474428134885 1.7389056799407707 2.4883673755485596 4.073797002304926 1.2752640826740103
Ni 4.074446978977372 4.05644001949122 7.292692260343396 -0.24012792263798002 -0.19638008812806823 0.6790039194155725
P 0.9298709029101656 3.2664247398780826 9.666933437911258 -0.28766839142110456 -0.38564644802949066 0.18671891088922035
P 4.804369923635152 8.614519990447711 10.549867456791183 -1.4028422215370162 -0.2933227614934045 -2.142814967326477
P 4.633520646248738 5.307037497395707 1.2552236637787564 4.922466219561541 1.8819271864333265 -4.797211329515074
P 7.018122896316746 9.0329036805401 2.387156221442248 0.4448108742047887 0.9461531078374028 -1.9839295337097573
P 1.8290356974190762 3.771647227785626 6.479330156399627 -0.3120897576882626 2.022612809212568 0.778720298871304
P 8.438589167949763 2.279549082762148 12.813376204019436 -0.17538677370585276 -0.08219765384567779 -0.7638667787982394
P 7.608402341545789 5.232624444398744 7.391350600099803 -1.0528099231667092 1.9030469991310777 -0.8565601899689183
P 8.435421451516596 -0.2983159240024194 7.706590237700961 1.315571009823173 1.7664100924999129 0.19410260494780118
Ni 6.108017224067689 5.109922571250959 5.641268349231894 -1.2545520469376394 0.9410985761326309 1.5091100289580202
Ni 5.554892452835989 6.321611817846884 7.708673765473966 -1.2102845924788317 -1.0922658151694866 -0.2865345349269775
Ni 3.72093548167253 1.5844804465966744 13.293189080823797 -0.5312804159529431 0.288762910036864 1.0493168224117864
Ni 6.170136520431175 9.137014075097994 6.552005679222088 -0.13355235416857 0.6183721646661285 0.24371126911386418
Ni 3.501995366412367 2.8174952127515938 9.473520780347773 0.5143962386030948 -0.10559752082685685 -1.0322159010654417
Ni 2.326631153795574 0.7982720833398244 9.743500726637322 -0.2337472159226168 -1.00482413931605 -0.05105028170859595
Ni 0.7259369014793787 0.6340344712348971 1.386452916431895 0.8981410987344983 0.4629232675347834 0.27250531052742105
Ni 7.668211844676757 0.3606464014614489 12.202215285195694 1.873417863410735 -1.638445002611133 -0.1018992460396632
Ni 9.573668701045964 1.2985186166836027 10.51021066392074 -0.14050667399921607 0.7571741972694122 0.5153663158258479
Ni 8.63903208189483 6.932943378538011 12.026064796647466 -0.8384688796848463 0.31461843764738723 1.0046667878025792
Ni 3.388542093922129 4.4684694212623155 2.3459815644475777 -4.006909239343441 -4.190302942514171 3.2557689069729348
Ni 9.226596341609731 2.5553949610895432 2.3965669790124458 -0.6447447411223863 -2.425254506248475 -2.217224235475988
Ni 1.0438851251854437 8.712323235321714 5.400058056119277 0.3243176672130221 0.2043921597992673 -0.2427427345530078
Ni 1.6191650559943467 8.517621807411757 7.873095218264746 0.35792044286913194 0.4608602143581676 0.05690905448221812
Ni 2.408284701496916 2.310198624798525 3.5320679315269894 -0.2879381001427235 -0.3014477045933841 -1.348660079067658
Ni 0.9366899781962043 8.609485583973573 11.51635093936861 -0.7841553538439463 0.10678022828104836 -0.7680725893494709
Ni 3.636312199815095 5.036640845551554 10.2599488096549 1.5318997731590265 0.753241180763593 -0.06371476455014187
Ni 5.446021055900866 9.193486162701163 12.385031177072038 0.9155947754345715 1.1043242889959173 0.5775116790063409
Ni 1.8366155903127235 5.739958743261731 0.50309653536088 -2.562588438946664 -2.4795204666808908 -4.417778466495462
Ni 3.2933597572874733 8.62845417166265 6.207983189625525 0.9444381820288252 -0.3975123462291412 0.16930174385403748
Ni 5.023196906165559 0.22469197179550415 8.665787972482107 -0.5438777930019795 0.8693241745028061 -0.3612893593413649
Ni 9.313491705789765 7.337996261974158 1.3705379696734796 -0.5146330372042491 0.623931403921461 -1.0254333309259696
Ni 0.3301995555658843 5.0073771794546875 11.446737542431544 0.6589549711844974 -0.6445889322708124 0.3980494496795338
Ni 1.4452329117220841 5.529409305458467 9.495790958200226 0.15698101750515547 -0.03485258890281095 -1.1544587437584632
P 5.541222247990481 7.0639133686854585 4.938942248452578 -1.4793001446854395 0.9139333285717486 -0.024885450387770045
P 3.220266586137663 1.1358808899319741 7.829037562206796 -0.9785112124531342 -0.006413873946143793 -1.196502708203391
P 6.150441997726164 1.8779467475835565 7.2005183115475 0.19834081139886484 0.1419511197552265 0.4011643411594317
P 2.4501720946890493 5.165140771099332 12.072441673665413 -1.1949502761146065 0.9510757419500008 -0.2512227469995609
P 1.3825196685273806 6.320687900553878 3.320634172886132 -0.2963507496864509 0.03509915769597826 0.013294917336693232
P 7.234366681517726 4.511252448565017 4.035379419074405 -0.24201099859330577 -0.3883620471884408 -3.912351007049882
P 4.405473346243222 8.378921080730988 0.28759282676705317 -1.29690197265876 -0.03484281871079806 1.3146644388485036
P 0.8701000534618641 0.8247696541941589 3.806490223004957 -0.7424782858201342 0.2389616702440207 0.6377744804521404
