# total energy = -340857.82047991466 ev
CRYSTAL
PRIMVEC
9.42544962068170 0.00000000000000 0.00000000000000

0.00000000000000 9.42544962068170 0.00000000000000

0.00000000000000 0.00000000000000 13.79509825891176

PRIMCOORD
 96 1
Ni 2.863244159260236 8.85572808450168 7.306145563438811 -0.9071787834567343 1.144044747513991 -1.2951597931566727
Ni 3.332574985278592 3.237330819376767 2.3599138522679994 -0.5188833278401709 1.7908445713931933 -4.1148860590357526
Ni 7.115535643338266 2.162763612848375 1.2656040994854798 -0.9067365537129933 -0.051766848159646335 -1.8031025628249397
Ni 3.9591600086157066 2.3996534319092935 4.074409690809133 0.506145054337896 0.5542527084784004 2.965501644476402
Ni 3.987992458243978 4.407038511863894 7.592021327974738 0.5216099827427145 -0.08951809876649099 0.38172011639189096
Ni 5.633817300297142 2.4877342562885665 6.7442030995281685 -0.09107772994412701 1.4310253688394516 -1.2424305810837573
Ni 1.8743354366225708 7.399760069144256 4.827732134033997 1.2507905230126781 -1.0168733571711004 0.7730214487143139
Ni 1.4327437081053598 7.987248328487232 11.295743175710804 -1.8556677385161653 1.4809983583234687 -0.06150541560364891
Ni 2.1387569932984545 5.141384697868557 0.3074185716200647 -0.002066652721041602 -0.20832029120907994 -0.3535714218718169
Ni 4.566912984108007 0.8001772945969143 13.284141630450893 -0.11136887609299528 0.4089193025145022 1.1883176012894372
Ni 1.1585385349815693 4.16879142809344 7.383826346981264 -1.949105741162353 -0.6350910200827061 -1.6489513014590955
Ni 7.70487129075811 0.7689215619351584 6.520873674478428 -0.24275918961324 -0.6130111574645314 -0.2972452364762623
Ni 8.666144595837718 4.585302035832347 10.130347626311265 -0.34734318157391797 1.6298382347787284 -1.2882293845854265
Ni 0.7459941563383065 2.7257551292740976 9.991293029184474 0.7231718721820384 -0.24845238334327535 -0.494330063980839
Ni 0.4169385231403862 7.21480447612184 0.30275674436078287 0.5260610765355327 -1.4187270110880728 -0.17353455098846243
Ni 9.089130487295039 3.346345566810761 11.949520620485501 0.1810858809731591 1.0809059100719773 0.8050584225452005
Ni 7.162936228228941 3.6153101900838425 4.972622026866856 0.05973726795963261 -0.4949522709458702 0.2680673293607254
Ni 3.1037627763292885 0.47804371141762847 1.7224424349064802 0.674176159009626 -0.025930346712516636 -0.16834400792645846
Ni 7.688489859749958 7.316420245798987 7.139128485660764 0.919272481396475 1.5805972383647293 0.19787647016793664
Ni 6.562949823018986 6.560301271745516 9.137983533933905 -0.4555352026008284 -0.4591499165352802 -0.5272556110642662
Ni 1.6752322440931142 6.467479446332238 9.12418844623337 1.7993572368498945 -0.8651165641793617 -1.0437102748582863
Ni 5.648558703114605 0.9660237315629863 4.763571215070424 -0.10345604900382183 -2.209246359476834 1.47361852091963
Ni 2.4039137350253372 0.6391142731870202 4.300152973442985 -0.45947079020980863 -0.5571523986236985 0.854693826184141
Ni 1.5566600909961361 9.312117768532582 0.06045671736046391 -0.23643864671185086 0.20226868569836134 0.8192552828708729
P 8.329957667645111 2.8537998589897136 6.6215365312240895 1.1522956746688737 0.24703184884666488 0.6816984355286001
P 6.782129222710331 8.206041284754335 5.2580840141753615 0.3020627124695636 0.8698589639603536 -0.0954041252336228
P 9.319403640896967 5.871065286434187 12.094879900697073 0.4638072128016335 -0.18585579155797669 -0.3739178467386528
P 1.4343837362960492 1.5286193791150942 2.546313424134172 0.2968001785190437 1.1288153321587464 -0.23508958888312417
P 0.744751882111106 8.792662402755107 5.852460391919234 0.39881718108349384 1.5289144652784572 2.171531875645196
P 2.289309696113878 4.2608309412088605 9.057558059534392 1.3300203524792837 -0.5233112817045376 2.661018238380488
P 2.3533933263926023 0.5735188008290624 9.17361550273898 0.16669541657944195 0.08024901475973921 -0.006575596334988676
P 7.1621256395829676 1.5815809791351196 3.557797040562185 2.4214664999609523 0.6021711294262339 -1.6683700723053396
Ni 0.9566925366849252 5.009814850087895 4.4390690164640105 0.9539517779462151 -1.0246815403616094 0.936136347031349
Ni 4.884296140803916 2.9701664569336956 11.184016726492548 -0.3055732967259834 2.511187715877185 0.12609049857388607
Ni 7.063318653818611 8.717843185641927 9.247971930288005 -0.23870378859694374 1.2415636050977714 1.13943578798707
Ni 8.680820020509579 5.437673698870425 6.084148305471867 0.4282185170637464 -1.035875609305216 0.11083280108386719
Ni 9.308300461537012 7.488839991156937 9.917723626657992 -3.8735003527312712 -1.0476268363038732 -1.384678406143796
Ni 6.03464396028141 3.7428270946346385 13.107895152648 1.2601624511458813 -0.29387272045960355 -0.2567261933162933
Ni 3.759085994800957 3.1620686061431127 13.484445625230315 2.5726702486626984 2.7608950546734836 1.6744401897588193
Ni 6.727923463373231 6.286812432773981 11.522148124890554 0.49229734982152634 -0.6318740558073053 0.25220850795159794
Ni 3.9871158914524027 2.152923443704238 8.602057195379247 -0.4412984901761561 -0.48429710522486924 0.22526797480701205
Ni 6.1351098251352 7.286108000619347 2.9269470013843404 0.8129396250654902 -0.0630089967323689 -0.6872779864989067
Ni 5.633232922436092 4.7193507767977865 3.3701014694073925 0.512423174037124 -2.0046186866279925 -1.2712356782409076
Ni 4.275939936551822 5.621837554145611 9.988837699623126 0.2613089275909693 -0.2837770267864984 -0.3008391244751077
Ni 4.704543395834722 7.694786059930306 5.571164453233053 -0.9780772102395091 0.6076979727817341 -0.6867138864653205
Ni 9.055632440227736 4.963177726596334 0.30071519202685554 -0.6752596218817918 -0.7259414645073756 -0.48128917163648083
Ni 4.261933718785358 5.870603439414971 1.8015568292983801 -0.7051461250285791 -0.2944892709976799 -0.21145523729363583
Ni 6.743795920115307 6.085927830313259 4.794445217032623 0.8556641605172101 0.2886868053832899 0.7310471611650571
Ni 9.040005045169327 -0.0229085546981085 8.448214068188134 1.3856402558364331 0.39001166697672185 -0.2520529562103401
Ni 7.121200338410704 0.5524538640280738 12.856079191961934 0.10375892495622131 0.7924111660948353 -0.6324715801819881
Ni 7.635829874109829 2.2197404543007786 9.183451901703368 1.242500515089744 0.5653087091822458 -0.08225421811522607
Ni 2.2365648814294037 5.909662501611622 11.369519938123466 -0.011891609231263391 -1.0581513899842807 1.0893291011386659
Ni 1.2143748970599872 1.7766595047828264 7.851894162783801 0.03392879153696093 -0.46791146477799417 -1.164801263335052
Ni 5.721030983334212 1.241831231079979 10.205738025656377 0.004182156402147636 -2.2306399946612614 1.0373457660928393
Ni 5.461953656452127 8.577102375622523 7.4017318731528325 1.3988480127759586 1.0371760732841944 1.5032710536787401
Ni 5.8299420508251165 5.965970136158629 6.887299329345577 -1.4136603951984428 0.8850148457651854 1.2287322576610582
P 7.331171074065821 2.3153333618293597 11.507649898666884 -1.1855958314829 0.12653992740647882 -0.06880734858170084
P 3.952034368890642 7.063412908312328 7.770571385604094 0.09196347498319 -1.723530262417251 0.3302823694368892
P 7.771499792367214 5.688814797381472 2.911634416334949 -1.1909663517661941 -0.07737632119763448 -0.35294612958299215
P 9.144203387974343 5.916373421564328 8.188591007787423 -0.22182552478436637 0.14749261839874597 -0.06755162179772882
P 8.548533838576663 8.807168169338274 0.3591558057666959 0.20325650353292735 1.5252598992450055 1.3418510265656245
P 4.744205686791167 8.11843173284365 1.4458639336308758 -0.34153454531194083 0.3860981908549286 -0.8993430894623994
P 6.125797481155883 1.094021334031743 8.13312035314463 -0.05599682708059388 -1.4953703107744247 1.0580405754380293
P 5.228391021019447 8.951462373770838 11.745670771652417 0.7478894295333764 -0.6381223507098622 -1.1204972992113542
Ni 6.570575011560756 5.645523708416891 0.6789556476815293 0.3543090713687898 -0.6351432134768803 0.9010865545160675
Ni 1.472038406536306 8.351815284738267 2.821442291296397 0.14369432769857834 0.07377909076467938 -2.3480730746704657
Ni 2.416402455442944 5.938513802138638 6.731539065752246 -0.006552970627169359 1.5373451125443136 -0.90150744410357
Ni 3.1982811826294872 1.1260961382439065 11.069972559273772 -0.2626649273982315 0.16356766958373767 0.05811027387917089
Ni 2.7922516745919976 7.349456445847073 0.5079205008362931 1.2908868768129316 0.5310634148461305 0.6869236884832814
Ni 8.064009188171 3.4981330034938876 2.6818221672072995 1.0674621258622454 1.619089995123289 1.1068971919294162
Ni 6.095136494349487 7.687632143857126 13.53522617626571 0.015127085449425558 1.2939408331479072 -0.8304447238287891
Ni 6.753475856620124 9.257289929536945 1.3821855976751378 -0.3358701479373119 -0.5129042274386005 0.7348493085199667
Ni 0.5014895167299284 0.8929783840215745 12.174808653914695 1.4073120843829117 1.4692530448620824 -0.12892436847825536
Ni 3.629259855154075 8.158782081604237 9.617652192823227 0.060416039194212075 0.40314023393887993 0.707709000659749
Ni 2.2253203203288714 3.473278093500507 11.736690203490985 0.016899346858499927 0.3336939662215995 -1.064360089898154
Ni 9.343259453256941 2.299621137726604 0.046160195753349745 -0.04019534127196303 -0.222300664648572 2.3389371738074685
Ni 4.671337537697945 6.062703523061195 12.70774052720394 -1.4142334940930934 -0.9416595908424235 0.11897599901629187
Ni 0.9801524801712828 3.5826133062131413 1.7542533265362337 0.00781769627220589 -0.7036823959988591 0.7605767951930579
Ni 8.481829933372584 7.981762716952857 12.239107184439096 -0.4777189377867192 -1.8155443881327182 -0.15227024229304742
Ni 0.35964969931377716 5.909935839643404 2.4151356750473774 -1.3441920159939753 0.10756544318650507 -1.467034954164841
Ni 3.215246991498689 8.369120409784852 12.15309524619693 2.983922055965119 -0.47315985766112706 1.9302477279155852
Ni 0.019843398562406016 1.5343217759850205 4.424612262217575 -0.20337323161644977 1.8875062231830007 0.7391237675256045
Ni 8.976392687359192 0.6346060807524984 2.188564837958683 -0.8026922363058692 0.2438537082289994 -0.9415323212359397
Ni 9.010936959306761 8.76538515227318 4.188536801982379 -2.128616050118276 -1.993094488038477 -0.0771302666250994
Ni 4.225890800387677 8.542822016257364 3.463645284242549 -1.1354891446344961 0.7662298797137772 0.5261171265844488
Ni 7.130597511434368 4.335442798435862 7.833960360264118 0.6629527794899808 -0.4134205328189654 0.6303686749063725
Ni 4.073349327754808 5.919163354578375 4.474094928874478 -2.121530346916088 -0.6473029887678659 -0.9687816438701962
Ni 5.234121694237488 1.283048721182768 2.4165975622449403 -0.5382108245241892 0.3438619078935368 -0.5479295944738499
P 1.6832438760591262 2.9303816351354164 5.185108414959301 0.02682560483327638 0.36344934310716115 0.5927166688815534
P 6.478742858331514 4.639941365840549 9.977221775817346 -1.4046427650808648 -0.895455067261903 0.641606966824353
P 8.809411426288758 9.459946516479562 10.851996789467204 -1.8936434464289904 -0.6859299571114444 -4.868800868827602
P 5.109121384668957 4.407358977142534 5.6660193480758245 0.139488774257663 -0.5595697498159395 -0.9947855241331255
P 2.319612515844147 1.9207463493292096 13.214144473236315 -2.4795698318615877 -3.0578312445497593 -0.2010013889501635
P 2.2773205245129753 6.216837896637895 2.9174423782378387 2.4925461895165975 0.32613723692026414 0.13704494070286075
P 5.399387523522259 3.731478853591017 1.4166186493201203 -0.5277279227149945 -0.6491066176355079 -0.46018684244022684
P 3.7973721701491225 1.4672125764579549 5.934664448615203 -0.7815960777572022 -1.0998122600581768 2.128335028542747
