# total energy = -340867.6761315805 ev
CRYSTAL
PRIMVEC
9.35575024740776 0.00000000000000 0.00000000000000
0.00000000000000 9.35575024740776 0.00000000000000
0.00000000000000 0.00000000000000 13.69308618081120
PRIMCOORD
 96 1
Ni 0.5212079182792837 0.2813423832268108 0.2593329804500689 -0.07194435154878577 0.1674538920120213 0.036681928802065854
Ni 7.487865463533527 3.8182314234358374 3.1219418636333263 -2.2649806769246603 -0.20061700902755128 1.3666068933540656
Ni 0.3646347577393626 3.995775498459953 2.8329352496925058 1.0052859094438171 0.5824258284785067 0.11423745589004197
Ni 2.3923308632656104 5.645531098051691 4.799509302389537 1.1612423423392 -0.22860912336510306 -0.023472886310959576
Ni 7.897563128569152 1.4442191194207528 1.3826863491497086 -0.03139394093024915 0.5283185051111416 2.5319817698044007
Ni 1.1151025324365966 1.9852808755884632 6.9352877142189975 0.3298144286615352 0.2457380697359058 -0.5453538633268736
Ni 2.0864913832351344 3.9775130737117275 7.968952181869016 -0.8070991071243133 -0.6883491080758983 0.9037695006648694
Ni 7.480081479214612 4.3176975133993425 10.145056684575668 0.10058258411076872 1.032348569988564 -0.6658750953430983
Ni -0.1578839011686232 4.24193464679528 12.978170629100495 -0.1626533852995844 -0.4121468083128644 0.33501191370207467
Ni 5.909456816364927 4.15646051129334 1.2945851189401343 -0.3415965088981278 -0.5642280745235573 -1.2513749347612384
Ni 0.5665926633887312 6.736018651229794 3.908129893294046 -0.2937238535865651 -1.1683730398467103 -0.7123855801998118
Ni 5.725990551348176 6.81572028874523 4.4239077340508555 -0.06253077154436973 0.3079711075341986 0.8808907962944829
Ni 4.095011942775745 8.66055263957941 4.532781536836498 -0.4309387442083869 0.7681119272278384 0.4862665702464141
Ni 3.3297770516734913 1.6754184228931635 8.102158420251577 0.975787642874384 0.010682676524826764 0.17110408717009887
Ni 8.36856902586662 8.549294056021061 1.9302325759080927 0.31067256562576173 -0.06303727886714305 0.905882176132498
Ni 8.735398642645908 2.7275661110004523 4.9017143263019545 0.6901679064521921 -0.27351318296664506 0.5382221373780989
Ni 3.72273727927337 1.3331663623708372 11.166753276335351 -1.957652088070467 2.2999510223522583 -2.3356158227437196
Ni 6.304802760312552 7.069747623152923 9.813930482409175 -0.32772617867393883 -2.2582659839086463 0.47304595779108216
Ni 7.867755707847919 6.29807597578695 1.9878116060671494 1.2957575746416718 -2.780266003000928 2.1398697686552244
Ni 3.890046163378142 7.786959447537635 2.3236895938533255 1.3144741772145685 -0.3577396943168936 1.2019747870615556
Ni 4.178343611439907 8.571991106450978 9.606932634028317 0.0814612899002855 0.17815868002403512 1.3882126445492995
Ni 1.2551206926732468 8.783627535871883 2.94102878289618 0.553158446972957 0.1878370836540636 0.25654004544741627
Ni 1.1600007785261117 6.030941235092237 8.426889967031073 -1.397796945803625 0.4297763484691695 1.6791301390353213
Ni 5.823402624339223 2.6835192381958186 7.495951638589824 -0.2742284638661148 -0.6587258858928268 0.8383094712888465
P 1.1665498037944302 1.5128716157334976 2.796771532160851 -0.835136987098136 1.6590829905764588 0.5173553212314187
P 5.840065215771902 7.3537882047902805 12.185190324661491 0.22281411394988077 0.6834375297068939 -1.7525631593144915
P 1.9829980724949352 8.003376665404414 4.941999251877458 0.12121080188408156 -0.9553342601160386 0.11149460303758219
P 2.871223658136211 3.428901226984684 10.076838295080709 0.3573362882308878 -0.2909807436237892 -0.01451104913198146
P 4.9148750603661595 6.407697303028219 6.697849996390995 -0.020789940162157745 -0.8368344294052169 -1.082962792601006
P 8.108610145715907 5.994313472341569 8.673981883679616 1.5113371185163262 1.3180207569152462 0.3929902899890716
P 7.972820784652516 5.518255469837112 4.370887761053587 0.16025608871200142 0.44799081459466716 0.044033226960814485
P 1.671835170496355 3.6669208724865294 5.3613361465330085 -0.6810798281079947 -0.47923923108598754 0.8210915647486633
Ni 5.281442716134714 2.1110034492394125 2.9162032992540614 -0.8372740880457968 1.960002847690831 -0.9482547275614379
Ni 4.906604577027311 6.324730508629006 0.14056079375888234 -0.4291795954254351 0.5429455109956971 0.28784065533291076
Ni 6.503322427696053 3.9246343725452473 12.310605094124828 1.6990713580439383 3.077012188353584 -0.6282189755532213
Ni 7.943817958464247 7.765095058891834 4.479857928068177 0.17355177737964303 0.3204702684424739 -0.22406135609342057
Ni 1.960965280342235 4.871941521857139 0.5266988081792496 0.38810416554136384 1.1640445876746857 0.2069820320136306
Ni 9.062466320296119 3.2424130545941225 8.292067990557316 -0.5260813882505069 0.9434477930910978 1.1413782564254216
Ni 6.168349140971943 9.43817454418917 2.807329496468419 0.4000855062729561 -2.174266500967539 0.43789537803187806
Ni 5.9755551928230295 4.515749393263678 5.482547377349125 -0.08837318652877038 0.2296553052414303 -0.37262483895884213
Ni 9.02066482758348 7.934565121335152 9.821626522674489 0.3435307498063632 -0.9448174197451147 0.9502391049813182
Ni 1.3230060174545601 1.7695466274996676 9.580737468530081 1.1713629757129698 1.9769459033030727 -0.6395979068141243
Ni 6.826881698952521 -0.18421285389734035 0.16564636726165732 -1.3940755310879795 0.297098683596069 -0.6607987092614555
Ni 3.9315108490769815 2.5402452768257757 0.8048546228255044 -0.5391467060748972 1.0033856070973108 -1.4050238025693673
Ni 0.9744575369242644 7.430776674694557 0.9964912646520029 -0.5247007058528963 -2.8126341349189885 -0.41227124970587053
Ni 2.2546142176232546 3.0676757046850005 12.596900411604564 0.3014425623870615 0.9531236256179649 -1.1595135325735515
Ni 8.40373729155749 6.0041089429928975 11.62252707643375 0.6059151698496984 0.7373617905291753 -1.0882669784227388
Ni 0.3598567760186051 0.2345935697114765 5.273591370413039 -0.5626057084287859 -0.12570534732032543 -0.38474501926114385
Ni 3.0876689432541387 5.506644983611422 11.714216236915323 -0.16362063430886015 -0.37903897001530207 -0.234173504826758
Ni 1.0593235486512893 2.660120506487155 0.9835223234706555 -0.7372962273985624 -0.4881121080955852 -0.4962589055724356
Ni 2.778264922327621 8.729635500409788 0.7796146794414047 0.13467669758100032 1.797998408829155 -2.5849688635243937
Ni 5.570526047228678 2.1815270956288195 12.828066969950633 -1.0208223145165194 -2.740672556979022 0.6074804574542892
Ni 6.261925356305832 2.115924573941035 4.996511467060865 -0.10190258847377288 -0.21142746937949394 0.4039316194919237
Ni -0.09345833287905879 5.087947086707051 6.453948390623161 0.9143817289630768 -0.8317130490182515 -0.9099494042233361
Ni 4.745077546659426 9.310693089466158 12.351807818812937 1.0742639792754274 -2.5640508824248034 1.9952033068513637
Ni 6.20927119314855 5.179371479452778 8.170281381092625 -0.37817842178721967 -1.8428505321468391 -0.014541131038968506
P 4.952176437144424 0.6408221225049684 1.026875935171886 -0.32877236055026604 0.4205214055298048 -0.3472269677110278
P 7.957776738036149 3.523955650879136 1.1223494966835101 1.7348258899357283 0.8694691847211026 -1.9399811531532654
P 2.5886145063075 6.94387535749584 9.934949920342435 -0.13625021271570728 0.12687185682460086 0.0877718054993456
P 8.409584635547061 9.141223027022841 12.381110964588508 0.9861831271760951 -0.6058100117304018 -0.6852090197850199
P 4.460775004011336 4.3426118766701025 13.134025268010976 -0.05498381243504724 -1.279387103703448 -0.20298576637004395
P 2.4798071293495787 5.986173969508089 2.444927956345553 -0.34945559993123043 0.056123839576761404 -0.15983802733797636
P 7.672080188580944 3.692340446277989 6.740229674477323 -1.0936932916446325 -1.136700648444094 -0.4575422057285281
P 5.823617806598039 0.6220872323623857 8.938970415236398 0.39858526757834584 0.38086291059791827 -0.21274053176396265
Ni 7.714545939570799 1.373826453536712 6.9318513471032075 -0.06757630438807717 0.7169819413212427 -0.6629360673194324
Ni 2.8088114473291355 7.132898938240279 7.314066495387852 0.02490961875748613 0.49440334042093564 -1.6457135112480883
Ni 0.9258403800573827 4.474125659808322 10.599900523085964 0.1860974752551376 -0.1211542376145333 -0.026189513911174255
Ni 2.5624184052342254 1.6487826015518738 4.718801921707893 -0.10699748649817702 0.7127846154104434 -0.14201873976836832
Ni 6.160677425657627 2.2716978178231826 10.326901598050993 0.390837762422443 -0.7372046961260206 0.01617198177417215
Ni 1.809598594890627 8.827898946685716 9.107655530222555 -0.5549173386455927 0.012144605782333924 -0.7730623292545784
Ni 4.046820472551304 4.050656330208462 7.02122589493995 0.3015744599792355 1.1837770331066064 -1.0483979101419427
Ni 0.16211924936714864 7.491383225677653 6.756757543104482 0.6087937769490741 1.0003558191320514 -0.3581387295275251
Ni 5.065596199041319 8.46677633764025 7.456912898965378 -1.3281460182747062 -0.18339653138420672 0.6267416196767465
Ni 4.141622291185407 6.017889963307517 8.743035741683807 0.011015891494529414 -0.3550642043672595 1.095125653215785
Ni 8.154341053589539 1.9241597583342847 12.901666787066075 0.27625834981195 0.9369868679571025 -1.8669628518140104
Ni 4.935729027970561 4.31421717425675 10.22718801046565 -0.6148453824597927 -0.022271666914006803 0.517463821784825
Ni 7.537039287548216 6.9787161719232955 13.494248789444608 0.6070842504571351 -0.09314026890011057 -0.5461341931363239
Ni 8.431467735693628 1.1301185118018127 9.363633538585168 -1.0866186441860382 0.129389481040132 1.024356810032339
Ni 7.489137845585658 8.454735486896926 8.238226582676392 -1.0150499308091163 0.2747048892819011 -1.2434345968682392
Ni 3.16060637324244 1.019458696267996 2.4246213001385737 0.9862312068052114 -1.03467593257016 0.5145728733902751
Ni 2.5166313628582957 7.9744673967199775 12.0756588126239 0.055722233262968546 0.1735126966115915 -0.7187403187732461
Ni 6.952108417833155 8.968684278453798 10.735571066119489 -0.6392850035593959 1.41746999875252 1.2112793522919332
Ni 4.831842775714264 5.697043859662208 2.6044247888802587 -0.8811792740691791 -0.9454450260267846 0.41519150867645915
Ni 2.431849552884721 -0.0159730726294289 6.479376384589965 0.9114131332530562 0.36324056953046474 1.2614161210473243
Ni 7.236046086216297 6.417548908181846 6.486921797274107 0.17467252124764757 1.2673191167953206 -0.5958747548945609
Ni 2.843231252989341 3.5780880225969804 2.527113545587759 -0.40187525118352724 0.7523379522230333 1.18307615038484
Ni 1.0260077215363146 0.5274351057344163 11.442956545876608 -1.1526304323004728 -0.6716734471924303 0.23800547697833846
Ni 6.356296810422301 9.059771864185725 5.791792350519125 0.31618861034798446 0.061292271151578315 -1.6512082158140724
P 1.1778702617582382 6.335330573813298 12.60307520685755 -1.1976779594584148 -0.9082352497457068 0.7077593942817102
P 6.253271287201268 7.438513880261556 1.6029263266231075 -1.675848382960256 0.40452400166028396 0.7574809298765535
P 8.81709305499299 2.8535506456621347 10.835654205844971 0.28488105848395456 -1.20117157443397 0.5149914489849324
P 4.409159329146602 3.817857193420505 3.97577383971547 1.3685012821633014 0.3668483414863811 0.5651654987361622
P 2.426675822922749 1.0146685520717402 12.968379836324358 0.7621156004350874 -1.0428386708866104 0.5621727346564253
P -0.07368963231912014 9.571493987151369 7.604893738353265 2.5326893373943866 -1.4308492482729034 0.12653452808984014
P 4.4744063323198215 1.0792512969677444 6.037624047591037 -0.01823529206110408 -0.17963295057671644 0.3551840177745754
P 7.792919060531805 0.5569468847435363 4.285621323210156 -0.34776072872731073 1.307479233953974 -0.1143960929550933
