# total energy = -381163.2695554515 ev
CRYSTAL
PRIMVEC
9.27349496065550 0.00000000000000 0.00000000000000

0.00000000000000 9.27349496065550 0.00000000000000

0.00000000000000 0.00000000000000 13.57269725416382

PRIMCOORD
 96 1
Ni 5.90337713775281 1.9338761165854976 6.741273584685045 -0.4070627089217377 -0.9087684965413574 0.50426532081668
Ni 5.546495953169299 1.5630568688996835 2.0826628536661866 -0.5233992134326534 0.7005829311379289 -1.3226806242847606
Ni 6.058773094775622 4.142887558641534 6.807101489496552 0.5158196013131826 1.2701699559805544 0.9676981809980302
Ni 3.6115255641645923 7.396048179010127 5.249064363482615 -0.238964241347182 0.1491664065567431 -0.5344960946767633
Ni 3.9181073114447833 4.832613028566261 11.181677121818472 1.1598089523267832 -0.13970423270257876 -2.0164169648145016
Ni 1.158111159326661 4.367983104670937 3.035438430275744 -0.6049090971826873 0.39237682477478875 -0.18619697694747933
Ni 4.937338608482633 8.968545465899261 0.7140016253400363 1.8345489542596793 -1.8995137891668379 -0.254194170923059
Ni 5.4786417896832384 8.480815265764523 9.593711645139157 1.1682876792217558 0.5543833205189936 -1.3133729737305897
Ni 7.2410417087805925 4.65234555774413 3.6674651411743793 -0.14719796997646264 -0.13531844493005726 -1.776076411945083
Ni 7.451893166370118 2.1735866908579013 3.3064720888732624 1.9942530271229526 0.5046340170100084 0.18207575569025417
Ni 5.820546279715706 0.4778641287212036 11.560260139583628 -0.2198275205177311 0.47907648025587823 1.4519274090994414
Ni 8.363431365066623 5.23307036652151 7.625861151985733 -0.8300516021554285 -0.28094058577896774 0.20427723148795787
Ni 4.093302180459223 1.4555863344402116 13.235280551308096 -0.97820268007378 -0.6272360428146617 0.17337000038614012
Ni 2.2139913089129464 6.63679931648529 1.7604061176555743 2.2949581971233575 -0.00022137198218671555 0.11142621169349196
Ni 1.4178617564627218 1.524414214909467 0.5833631181270829 -0.69454263848112 -0.011668951697496032 0.6141373006491746
Ni 7.0389537040398205 3.90569010153528 1.0116965822869364 1.5759391707674277 0.03057607301464411 1.343089526958416
Ni 5.092122514830293 3.4877336783677597 13.55631504066742 -1.2055866727825302 0.4250411477770293 -0.9354583471277179
Ni 7.091330404240623 0.042041389936320256 7.678360262321564 -0.086752877316528 -1.2385006499017315 0.10451328662374258
Ni 8.901915403763502 2.7976836361153 13.039874099771053 -0.6343101760526236 1.349169928824541 1.717231831003049
Ni 8.360278376740085 0.5699063494193307 5.574076254880914 -1.3014613098946684 1.0032912476112916 -0.9580462597305629
Ni 1.2522556813589811 6.145489547250428 4.822854529695634 2.581745471491089 -2.0606584511313804 1.4819080146219317
Ni 0.15818913374031943 6.843653897696178 2.529991217794401 -2.1122450649594207 -0.5436335382016573 1.6840558584717127
Ni 0.7587295468004663 3.004853516158841 7.85318975562993 -0.11379856858041047 0.6266377471090304 -1.9663113064073623
Ni 5.455198394125939 1.7006013478972575 4.534177119362626 -0.32869445612447906 0.5394164147965161 0.03170273041991959
P 6.4307329823560355 7.774638615571344 13.253277623206058 0.20041337765717743 -0.07594318829553373 1.1372338952397445
Ni 5.265805804147011 3.976669432862642 4.66572350174372 0.035293790205287605 -1.4454924521073749 -1.0583910167989126
P 3.882320893938605 1.2480455145935487 6.0223551522546295 -0.4306284120568197 -0.30462121722535923 0.17478590689706028
Ni 7.720926532079302 2.153101540230498 8.401594579361303 0.48037000225632104 0.8865127704669508 -0.6913711827316738
P 0.8361762135952573 8.667388713239726 11.621799052921537 0.8187750008003446 -0.08455561255489309 -0.11005427104662982
P 9.103446998799592 2.866020021345419 1.9679320999101126 0.9865636504439654 0.5302164934648029 -0.26999951338643174
P 7.102421504353965 1.7600537248426085 0.2572745739502223 -1.0864494655980257 -0.3253728479504138 -0.2718846462242866
Ni 8.92038820595897 4.889645023296243 5.064516247332459 -1.3023750799581892 -1.2043273464541324 1.3551096913477436
Ni 9.170160522391052 3.472794077797028 9.89578554646191 0.9083753748679969 0.272067451659054 -0.01989699603424315
Ni 2.3245406437383296 2.7133968393509424 9.891673678744306 -0.15097286363786258 1.749499175677187 -0.6100561886012655
Ni 6.004949729342645 8.829647056620292 5.569868870164005 0.5298866209292099 -0.28450593453272294 -0.9180728046614188
Ni 6.982849058817644 3.919980557450548 9.730239749076178 0.040819090898890985 -0.12839163590323693 -0.9462158427545381
Ni 0.4535323323354272 7.568609375422401 7.886225654495959 -1.3007519425324696 0.49593443235348134 -0.7902766362503357
Ni 2.88698739371688 9.07930809111144 1.3816867795127732 -1.1441920717251326 -0.67938264291123 0.9966058651713159
Ni 2.6278117532756586 7.226037193744315 7.688675170896875 1.6110295867126578 -3.0296984908692854 0.30394064621856687
Ni 0.37497933757782537 6.5904411145901385 12.35582400883409 0.9247849265742718 2.45747557106571 0.7446179578709563
Ni 3.071233193927492 5.293533554430367 13.109990996056158 -0.9863826447814108 0.20732218896186874 1.0646868771099534
Ni 0.7677749138995922 2.2212895495393683 4.043333806930189 -2.193990461759028 1.222927735164139 -0.24839041975708834
Ni 4.865533936093324 5.957821827356016 0.875349311503938 -0.44760412067920974 -0.5645941996137245 -0.8057852734088963
Ni 7.3655012862230445 7.483423049635474 11.344901763386172 1.6007670284443851 2.5576886876522016 -0.5140241999756567
Ni 4.301733255833379 7.9027334030843885 11.613424159516555 -0.8897785857024161 -0.18459286568515304 0.04104843330087769
Ni 6.216376143627009 5.9758773222729715 9.836921109104509 0.4957166599157204 0.5488374510001 -1.4865609400129107
Ni 5.770877440077693 6.166475466612045 11.98562794001752 -2.950351161988209 -1.9927440466775936 1.9986280162621965
Ni 4.183598202034155 2.5966528098134245 11.201289636559032 2.4499355539349223 -0.6393413107186279 -0.12956945826142202
Ni 2.0468272866360944 6.133406183163734 10.835708986242805 1.1222448780300802 2.0893771592223116 -1.4765192395061926
Ni 7.740948007952803 2.0205276545947566 11.110298102853248 -0.9060032750913946 1.5745173507192367 0.9986666043550866
Ni 2.6817185801643384 3.693067406385848 1.4011639012251924 -2.709471191675553 2.385817126188459 -2.9950053103624743
Ni 7.5208879697507784 8.778939585533537 1.5086186707430318 -0.26073274337252517 0.5722481166145564 -0.6424394900279774
Ni 3.114874261764776 2.9824302050601266 7.439982289291876 0.6395835086364211 -0.9014745339831056 -0.9339694212870172
Ni 2.294021571436481 0.055376675858549995 7.073261926430558 -1.2760757799420281 1.4410513856168858 -0.7568952325764126
Ni 6.911508061182238 6.460463807576251 1.7194024318184875 1.1435570092442953 -0.05248367172101283 0.08820529349233842
Ni 2.8118442630994758 0.6586277315300098 11.114478594434429 0.9124613720119126 -0.8718322856366405 0.6470481924445824
P 0.16272201813446818 0.5546366124238207 7.346955223416461 -0.44144761415951067 0.19749980355480826 -0.2913913487986465
Ni 0.8861779717065721 5.026725827539915 0.6091267421529094 -1.3558815365167618 -0.34824152501847117 -0.3177155885154722
P 6.492271895693947 3.9977109931947274 11.721747855523207 -0.7683785506256637 0.10069545553954916 1.4692409606772245
Ni 3.636934940678437 1.0271786823197337 8.737749502445382 0.8334140908697584 -0.42997612318480144 0.7557217810936017
P 1.939440213632325 4.496810498295148 6.543261281031073 -1.1900189002512602 0.8343576857299501 -0.48325092334854197
P 4.288685448258568 6.830114594882231 9.567543696727927 -2.845164760556842 -0.7822535088355431 0.3396607253279957
P 7.931240126954301 6.8436446242011 4.2456759054361 0.4439881211931773 -1.1006481256959109 -0.48623803100132384
Ni 2.2275213382318153 0.6093752718210012 4.3806284425593605 2.031643294845953 -0.3850774628998981 0.3554213305963621
Ni 3.890277552715568 5.352689179533222 3.4164242106156193 -3.654200679692552 -3.844741278320708 0.9838141127232863
Ni 4.4522513544451385 8.42829946313755 7.183023941523815 0.9326748708453099 1.47155109686764 0.8639603390877314
Ni 3.9176529101859594 5.274476522044984 6.038601388281857 -0.4603737616400522 -0.5044183014547765 0.85431201736469
Ni 3.0173078200486567 1.8840032600557677 2.3895682459246017 0.7472363693304099 -2.0893555619557564 1.9800127151538545
Ni 0.948928930851184 4.434001116131545 11.619341576725855 -0.634628735734307 -0.8105019621582751 0.7478688607080862
Ni 0.7636074052115184 8.325029821948435 5.24686561779961 -2.2325194710721616 0.5876857913258653 2.892315450100716
Ni 2.4369446775793215 7.5412803854274015 13.055387729687117 0.04649685800995863 1.1689834197371995 -0.13342611300335086
Ni 7.748116419648133 7.364462654774303 6.358550878717052 0.4049531187779026 -0.4366373372550609 -0.5544157164188259
Ni 0.6381472176501457 8.403353761377609 0.9646196845232373 -0.04127931836476117 0.28653967713330003 -1.4804504562397987
Ni 7.811751142873682 5.522199396064819 12.667425499000027 -0.15821437569162428 -2.4014692309034187 1.668724884541597
Ni 0.13074051565881192 0.14594812023729908 3.0881962711242537 -0.44077758467567957 -0.15070906845351464 -0.27967148925855706
Ni 2.747959155506819 3.30314475883926 4.574677254416975 0.7950164649281662 0.1300440839049954 1.0167491728884102
Ni 5.996149182513579 6.067564368109609 5.03738478278262 -0.03715552600437472 1.8515146355797403 0.3461411908460168
Ni 1.7718403370868048 8.454051958969284 9.5740991303986 0.4499543660789412 -0.2618226340025942 0.769016698430295
Ni 7.906600450531934 9.463601727145653 9.937779641573334 0.5865131111740027 -2.762235627861778 -0.13501505475702552
Ni 4.480442779482398 9.043846245932992 3.791791180287707 -0.5228258574276867 0.014666600873239257 -1.7861739053904013
Ni 8.31632201007015 9.43448295260059 12.74563166504171 0.09030048545847029 -0.08019116493861028 0.11182524690412354
Ni 4.9497465448970575 3.1226176301549438 8.902861300261463 0.5758497179228856 -1.0561076200813746 0.33058164584486294
Ni 2.3860239161057724 3.0028875352022952 12.549030787338618 0.758199553210133 0.41251036229987015 0.9532946039781904
Ni 8.208944210561459 2.961360824242807 6.013831882928397 -0.5267547601684476 -0.4582297187138559 0.1871228311958584
Ni 0.8480972915180852 1.6893618718626662 11.54923859068337 -1.0456159765214315 -0.8333981500301584 -0.1849818735934556
Ni 5.6975797349808195 6.487458951748442 7.5307707334554514 0.5979231527831573 0.12280077207902076 -0.3582811686426604
Ni 1.219510970238402 5.329347792421781 8.569190746508793 1.0555448055993693 -0.5093771881219485 0.2812506608202188
Ni 0.6225121049485606 1.2386978315548784 9.273830778567541 0.4768195659009013 -0.8662635332996114 0.2668799939208436
P 1.9742343671651525 7.675226748334693 3.823021529662042 2.7775241785897324 1.7860672046092076 -4.458864695012811
Ni 4.883876909357698 6.931659365986831 2.9255679152900735 2.6295782747036522 4.616949487105106 -0.6753400974107401
P 6.715642571638835 0.1325061891216718 3.397558212228843 -0.3952155797751645 -0.24339862296945175 0.9377558849126432
Ni 3.882293073453371 5.077813511924869 8.452058157527505 -0.6834241599704551 0.36927032066431237 0.1799898196955029
P 6.085044906331726 1.2849725719943266 9.546709862685592 -1.3345323814170242 1.201242022660589 -0.38270330624076676
P 4.4493487504857105 3.668353542002856 2.191406638999874 3.7381860215662717 -0.25180484475527604 1.4417556107727623
P 7.73991864999914 7.297647122736984 8.6235760857435 -1.118323431488487 -0.7672727191559947 1.0554895268814015
Ni 8.662807606671171 5.813507696951469 10.405848177443598 0.3517446530757233 -0.17874360599322764 -1.9646133498796488
