# total energy = -340890.6130987504 ev
CRYSTAL
PRIMVEC
9.09125205280897 0.00000000000000 0.00000000000000
0.00000000000000 9.09125205280897 0.00000000000000
0.00000000000000 0.00000000000000 13.30596633712370
PRIMCOORD
 96 1
Ni 6.538810464055919 1.8109229043592485 11.332532327054482 0.029808341610684144 0.8980487961310083 1.038608691965663
Ni 4.6490936762861175 0.47543067387887505 6.203774180708079 -0.9657138035781498 -1.0255490305682273 -0.8009927371162593
Ni 2.5636513184291134 1.3275864775077395 4.835002512173861 0.9013598627821123 1.3269288580381535 0.11679647486646981
Ni 3.4660217448374686 4.328845223878119 4.671884536597864 -0.72183155610406 -0.2165467928839303 0.5263721800180483
Ni 5.150048950033859 4.68074032543255 2.5073501022559035 -0.0712648089832579 -0.20897772228742076 -0.02046109606782928
Ni 7.23911871754597 6.3165748023539505 2.5472279712061803 -0.05963159561970375 0.10508432863586417 0.06063021208754719
Ni 5.382175894203888 4.3524915710283265 11.707787401312666 0.2839228083357433 1.7510474940009135 -1.2111325423014236
Ni 5.519562898484524 8.13062509749354 12.996842424331083 0.8630833357994168 0.0291406261196982 -1.3008712417191532
Ni 2.0170761407983497 6.353730750375056 0.18673068509281013 -1.37240575942403 1.8773647638736248 0.9841766382690276
Ni 2.641172426522085 1.8009043443594297 0.20941699600347044 0.3094206954965316 -1.3680683083909408 0.7210483980811324
Ni 0.6066447178692413 -0.16774360473017727 4.674452815363699 -0.633732963392915 0.22357078961024723 -0.4602449493716719
Ni 8.91639112230691 2.5449687950174735 1.5194219007492777 -2.0230331845794387 0.7732487342337715 -0.9867081464416299
Ni 7.107313742158155 0.7066875852068143 4.7666899335035895 -0.5938826641651965 -0.17156380041533678 -0.044676259861452086
Ni 0.6215080062029108 7.418843683640722 2.443014946453075 0.349840751184791 -0.48444468654632705 -0.18034617459365715
Ni 7.550812301569368 3.9583221464256573 3.660550906126145 0.3516227827858783 -0.6291039492613358 -0.007271336850432638
Ni 7.798367100838936 3.7152675170289666 12.548963699576936 0.5912377703431818 -0.04900805446758656 -0.07455839213286515
Ni 7.957254916734428 8.756075979805274 7.1405004494388615 -0.09728694407863245 -1.0880314653731649 -0.4884988020110425
Ni 6.87173212212612 1.109341875551616 0.2985821800018571 -0.4150146167789627 -0.7343361163289741 0.8211507001213729
Ni 1.530503228139277 6.586157705869944 9.121706145286861 1.5263256215053584 -0.5712052771723388 0.2641667087547386
Ni 0.1833741947553028 5.009980026334034 1.4766430132001425 -0.564299551191441 -0.1977666840629497 -0.07829703323969096
Ni 6.470671528303975 1.691909320913126 7.119277830143419 0.29384675231767454 1.253757833171118 -1.1256353917688677
Ni 3.4490392856000263 4.6172742933465845 0.5531299705163077 0.984199263976847 -2.389092968726253 0.13705728199803494
Ni 5.7448441296964186 5.383994144657575 4.709047757620786 1.703887805595975 0.5372469179490231 0.5139475811014503
Ni 5.327010175439006 2.8666809390406907 9.175089069481905 -0.05644728435445117 -1.2069817533578437 0.11232018426267107
P 9.336170604549768 5.503153188139993 12.560965970821728 -0.4095682489524108 0.1871192316514326 -0.7150744398858846
P 4.071899161015254 6.31349286783495 12.818409325183678 0.5242304510846971 0.9852968679163999 -2.0478864961776924
P 2.2955502890328754 8.500457239773601 1.4005855967223897 0.35603968090665133 -0.13828549797818118 0.8520229642201972
P 6.208679820432128 8.003556664537582 5.979967550614124 0.6477156508252522 -0.7492197183090259 -0.04803874857578178
P 4.6646760826742195 1.4080440600834163 12.800513195093258 0.32429092774014473 -1.1458236937912847 -0.3511849239175113
P 4.178748648926207 5.963752393068138 8.219322082000105 -1.082088874636485 1.5337352837058682 0.3849676767949112
P 4.71054145036849 1.209418380522582 4.031920379164798 -0.324523355465925 -0.6291304316238971 -1.207434010403914
P -0.049040032986408515 5.735880154959738 3.7249524280705337 0.30735429988580615 -0.4897067062762147 -0.855883732727184
Ni 1.4087531777603546 1.313022291373702 2.622339897448015 2.3653976819918427 -0.884743851491986 -0.16573536665901778
Ni 1.8916714070075153 6.2785460941150735 4.61855434166598 -0.23987646874880622 1.2352032100973824 1.6052332917458547
Ni 5.915514208531806 5.2039964409947705 9.19693807605864 0.32774366217543555 1.7826149843945494 0.748436303175782
Ni 8.704192203109297 1.8818437633053338 10.162605437260769 -0.2115017742608551 1.541890565823151 -0.630010006015373
Ni 2.370625850265637 5.413149790682455 7.035423755720254 -0.36876972687881004 -1.107334536577151 0.19825313678106501
Ni 0.5697496887882394 8.7897408869553 9.133681142774847 -0.8662316516204114 1.273744303595374 -0.6129594782909895
Ni 1.4917199459621202 1.1032961927931044 11.280784919142533 0.4724911137288766 -0.42683474934234233 1.140449573963565
Ni 4.282134369722884 7.217017883281397 1.6291424061266029 -0.6690162120752413 -1.3744179047580523 0.5863961259801643
Ni 5.729607190894517 7.825077200003607 8.25230696348045 -0.06779407682583809 -0.7813451380886608 -0.1807881472270822
Ni 5.30754580433228 3.00218605410176 5.069440452670527 0.8320593766140767 -1.2626785326995158 -0.4411660783633499
Ni 0.9030377243248586 7.4262348717349616 6.668923557396576 -1.2002452059649587 -0.890284321694241 1.4246708873763336
Ni 5.105656365207076 4.447022412115545 6.955135270436771 -1.8705312858915593 0.09836577896510802 0.7069309848431438
Ni 8.059404227222597 6.9837636238300815 9.30671221982435 -0.2757574989161315 0.004245662650231398 -0.5307268574423182
Ni 4.7075504283721745 0.5982053083884504 10.683054174122494 -1.0410206438412652 -0.5922554129744187 0.009196578897603518
Ni 8.084441535969876 7.062130218384017 5.069932289418249 -0.7700713649470544 1.2554123380554056 -0.2315108703929303
Ni 7.03412007014496 5.967388893975513 6.972153185558059 0.34343330499655045 0.766473620293467 0.6839404374852416
Ni 2.37666244177188 5.386085132679315 2.6297383585440706 0.5640588959355447 -0.7126154368224308 -1.7879821622437333
Ni 2.6122167880471094 5.297681795621024 11.344866429007071 -0.5349288113388079 0.019741187182669227 0.09214293798384775
Ni 1.0352390783115775 3.7304862733263313 3.9574202942006287 0.03898383746236511 -0.7823000458027624 -0.10145007431738658
Ni 3.6488559192080268 2.7530130119284095 2.692595276728051 0.014526989971581434 -0.03941552568314502 0.06887445437421041
Ni 1.1153057370397113 3.2596957746052673 8.074446613225955 -0.5271167714935567 0.4443280210310993 -0.18614349800172458
Ni 3.590090064544843 2.6064802078657254 7.1563746850247805 1.046168763701108 -0.5884635500321542 0.46502848680324427
Ni 4.119873699235802 6.663369711385788 6.005608518512027 0.598432231209092 1.7023472005817328 0.24823049714045636
Ni 0.6618286191386603 7.397079225710081 11.376242158835906 -0.3840672764678289 -1.4312487977041672 0.9013824884899314
P 0.1038593750398631 5.524844916052485 7.979135742694105 -0.43970080667173306 0.049861146496501224 0.24984900658048584
P 8.771912941256893 1.448836509011898 7.894190717998726 -0.609551223940389 0.40589671363809454 1.4897174833640214
P 1.7160556869380976 3.2276309278544866 10.257409925041268 -0.049946764231772044 0.5884278116982125 1.505144102331737
P 4.040834352014001 6.298265020285316 3.7948487028859654 -1.1114876395135762 -0.6439253305448847 -1.248719242305946
P 6.948235009965026 3.6853027495521946 10.362792993961321 1.106710529839907 0.4910159120059415 0.5874795888523301
P 6.34928512801579 7.785466613870023 10.476186365255094 0.6678445603646433 0.6454091141792626 -0.019440625223114908
P 2.4837937585031535 8.302831597962294 5.7228696638383765 0.9653808457187633 0.7598067497962527 0.15681415290998799
P 7.0649666890917695 4.048343726387731 1.3644605967085244 1.4656866676670628 0.6989736776692802 2.355255194241202
Ni 5.542509219210061 3.2202942872738567 0.327900559442343 -1.7667553916544732 -1.0981155890820444 0.4306168420925938
Ni 1.634025317719981 0.8228856078254014 7.074676146514462 -0.017280898567634755 0.18473659035186893 0.03354929671035512
Ni 6.750045710513077 0.7566612898011913 9.21547332118353 0.774507289231221 -1.178529668664738 0.6181068268198838
Ni 2.7508492938885216 1.670863071911692 9.319192690938461 0.5047463742181566 -1.2568174459330483 -0.7605847656128578
Ni 6.213161807800467 1.895671558005628 2.5372885051010967 0.4917322213466757 0.4803044391257083 0.612236741192352
Ni 4.3019987559294215 7.300348301573901 10.6031920685704 -1.0667108495185178 -1.3832501583377017 0.038640852300649585
Ni 8.028348509473613 7.144742427747315 0.27981510794412046 0.22737807917147937 0.461936735251798 0.41745433656870684
Ni 7.623360494671504 3.6607290946706064 8.235714518965324 1.372869843544642 -0.34547604645819213 0.33441027556233377
Ni 3.15078257242938 8.581887586342 12.721089287900503 0.07858268280090983 -0.23489469926349868 -1.287518474561331
Ni 9.179982890578003 4.774462045067878 10.15120137041524 -0.2037678959517071 -0.633906769966618 0.5453631192982543
Ni 8.770921994759632 2.3635437647485236 5.887491332539573 0.25336473304322815 0.8525677809800736 0.13560255182937936
Ni 3.63905554926265 2.9619663540661896 11.590987537793907 -0.9110089558361021 -0.8239552594497035 -0.7084173395806832
Ni 1.2627749400860449 3.391782578813404 12.63675610448279 -1.3012311961617333 1.150345235810722 -0.9672837191684308
Ni 3.365917966109697 8.333105468016193 8.364675750643572 -1.3230261805496375 -1.0567457678860057 -0.30968860444593765
Ni 5.522426642949081 7.849723584903343 3.7707377927448413 0.5223921123243778 1.0465878535163975 0.6657352273311244
Ni 2.941992872832431 8.446473383803616 3.529141400212007 0.44716934713463635 -0.4821718313517502 -0.03296025697610453
Ni 3.4686672992475844 4.184148852773658 9.297863703991478 -0.7014064554804889 0.7775458189472286 -0.3427859012205387
Ni 7.353713952389631 6.049091978111966 11.508609882739137 -0.14424043001003545 -0.2875058977013113 -0.052698873055612466
Ni 0.7097722471014953 8.948337782778202 13.43556716717614 -0.7438551115630028 0.2007638190180607 -0.20192544342632968
Ni 4.25014225299025 0.49807880153000794 1.6341325944967486 0.7461631908708891 0.9192835371400684 0.094764691877411
Ni 5.970516284755856 5.7497715884259115 0.42583607450409183 0.303475019436058 -0.051324104195272904 -0.35233574969250286
Ni 7.9418361528871575 8.813559967898607 11.595444978781122 -0.6392958021926731 0.06174324264606786 -0.31252247435030694
Ni 9.119344237947521 5.051108851596448 5.898760848851528 0.06619587910078277 -1.421698692121887 -0.041012437856619684
Ni 8.350578854876131 9.309805972971299 2.196854745281485 -1.5169320961056003 -0.3024802596229565 0.17586782710732937
P 8.798332120348974 1.7713668657392745 3.7566736254855675 -1.2657373741304976 -0.01674739466166793 0.0834531235193337
P 1.872097940873568 3.2996245545682474 1.5184100443718005 0.0015547460816295806 1.1528399772081177 1.28182168128687
P 4.66007590902639 0.903064998081664 8.387495702962578 0.9132381022769369 0.9843748703227627 -0.053600816044591555
P 8.693255426630367 1.5548223279573488 12.553593874357253 0.6123773805352744 0.8686464317094911 -0.3700174832429821
P 6.288164639015081 8.351615257634734 1.7253314916275848 1.1863309098767116 0.05636552327392228 -0.2227441799438938
P 1.9908569692561742 3.193875108181776 6.030636736007036 -1.3503271823574359 0.7504211948162948 -1.3570650153019015
P 6.944462140273624 3.9193661304554004 6.229880620722125 1.3433332675381058 -0.7133158053235651 -2.179998775465626
P 2.2047741351325216 8.28091258874309 10.337046567537103 2.577398250265987 1.1038288374167378 0.4706746293454281
