# total energy = -340892.05289361574 ev
CRYSTAL
PRIMVEC
9.05327313368261 0.00000000000000 0.00000000000000

0.00000000000000 9.05327313368261 0.00000000000000

0.00000000000000 0.00000000000000 13.25038035002066

PRIMCOORD
 96 1
Ni 6.189940179204274 2.103464659799654 11.41275177207876 1.2437786104712192 0.46957188319955256 0.22108813239770955
Ni 4.783984954654506 0.10089058209316969 5.92321173826358 -0.55741927913184 1.0685509880510502 -0.045120803598038425
Ni 2.891153749595898 1.3540528091783925 4.739157672304713 0.1842658213630375 0.0826609666353415 0.1994600126049726
Ni 3.101343593949154 4.035161566792557 4.48728112608175 0.23998111264747057 -0.8415696300973571 0.6606339015488171
Ni 4.935591067999884 4.675753073307081 2.656303694318154 0.4291862802936544 0.359364117294194 0.26338509339370764
Ni 7.318086661719153 6.30841131256374 2.5967965294418156 0.058183807429583664 -1.0835214933179533 0.4740180918963643
Ni 5.181586607939009 4.56214354766686 11.613070832640037 -0.39075728689349476 -0.9832150456867066 -0.7198633766340957
Ni 5.510374331476813 7.8866050601277085 12.265970264097417 -0.7739555304928091 0.6173938599132593 1.3994560786736028
Ni 1.6967282538359751 6.45880428729761 0.3890725645837574 0.9532411250324357 -0.1873758277469289 -0.4375266818385497
Ni 2.887804038504426 1.8092061203236716 0.46770386381043483 -1.004627964144844 -0.5220519553761396 0.035339041620926236
Ni 0.769966402140391 0.048858704914745754 4.696835430654947 0.1413271130179824 -0.0040739129590575 0.26595876765815485
Ni 8.710099845509822 2.630256521936332 1.684441151421527 -0.8305822778479179 -0.3558543043687226 -1.5478434409724762
Ni 7.004155359535688 0.6752709749118005 4.8188590684260175 -1.5232480110212991 0.2210714202271612 -2.146440737004523
Ni 0.6701468222691703 7.431596601353951 2.5426018252910874 0.5527267587521771 0.6151125200782503 0.33746191790446395
Ni 7.522545784124025 3.92310920414621 3.83264618214806 0.6082926689429395 -0.12654738360564657 0.4365941427219513
Ni 7.444035798758499 3.927400455652582 12.714641431617036 1.0365538663191634 0.007182119570736017 -0.3950942237059518
Ni 7.982307211338385 -0.05930618221085022 6.711357113030123 0.6784395622716703 0.1657101698480372 1.5489824396729257
Ni 6.768172739778097 0.6993400070950097 0.13022680863588798 -0.21586159389144763 0.19437488477258139 1.6744808131887676
Ni 2.014706369148867 6.614140349209708 9.29555239147675 -0.11696848166795984 -0.87549430786926 -0.4045186023436453
Ni 0.026326918524325647 4.992554263101347 1.3057056142005878 -0.6338967426642889 -0.19104453484776773 -0.011849186029102175
Ni 6.442716620785324 1.9713502436973553 6.971130829483062 0.09265304485104688 0.005547155070474318 0.5000800790907387
Ni 3.43764553425972 4.2339261803419275 0.39161925034059814 -0.11933569634855579 0.13589951424450789 0.858512942819915
Ni 6.050429238881076 5.7309392269404125 4.856211063077897 0.19990558478282347 0.36326988010650335 0.03482842053309486
Ni 5.040980221556168 2.924967725073324 9.336788240340093 1.2154612515837646 0.02079251126531903 -0.5168457285848519
P -0.0380907417466464 5.7370139732711625 12.393464794875449 -0.05315987185243102 -0.767151105976466 -0.8039394784494089
P 3.9297633599630526 6.090535239246538 12.706491675064216 -0.3693258564925962 1.4449579197601436 -0.4825518403989883
P 2.1783804956967634 8.563835163364358 1.3199790047595463 0.6912179449832612 -0.1442622843869064 1.1186841572620152
P 6.424447115426973 7.800834349639584 5.771242588662075 0.2394010717742845 -1.3995573801381576 -0.5271044301983826
P 4.665767312945206 1.0297464558845846 12.702092689606525 0.38518544923267206 0.029736350722168143 -0.9231486765224295
P 3.973246231239647 5.761494024058569 8.197771492669725 0.05794443772526795 1.6046517082107719 1.3959740336622732
P 4.776841922083773 0.8378786258743582 3.4922440143960687 0.13680377122633217 0.7350310855134696 2.5156200406169256
P 0.2734459696700771 5.572751383963953 3.4947617296786047 -0.15771172502359287 -0.4036094602658145 1.8161732799659691
Ni 1.56151761829237 1.25479272159218 2.5938152865704054 0.33347927910763214 -0.9670554052077088 -1.0483516302850397
Ni 2.042201159918598 6.60542204709866 4.929273693946832 -1.454859495144572 -0.6770126000171566 -0.33019855147383137
Ni 6.05109012782615 5.741929900629728 9.161047911244319 -0.3259140651658645 0.0028819495334853596 -0.5399771723959926
Ni 8.503422671166 2.3346852578434216 10.225928309841835 1.1177834998246168 1.5138323741343542 0.9107377044525863
Ni 2.5050950196671433 4.877550533385217 6.746894831728674 -0.4603519072631814 -0.07402334556500155 0.7334308309058852
Ni 0.5139778592208151 0.11347553719656209 9.538723310171173 -1.1210184618221468 0.36948269378543463 -1.2765650608736208
Ni 1.560023828211038 1.1299390306124772 11.558783785102465 -0.14281860996184437 0.3038051490819671 -0.2719648646429187
Ni 4.068694890800158 6.934390836100869 1.5863489360807197 -0.10311486361431918 -0.3546836810993892 -0.5302668870867642
Ni 5.6322676021135125 7.842959229933149 7.947088167857183 1.3070336617761231 0.4975699110743753 0.6409305095826188
Ni 5.1419061114148965 2.710043018825907 4.949732280769828 0.3586256964662727 -0.18513485423155213 -0.6999319278174914
Ni 0.8545647137464988 7.81360851815328 7.214474665695993 0.5478863999407404 -1.403379324987409 -0.20431914046948685
Ni 5.144649253200615 4.493039913177115 6.900188475202296 -0.8781787966799586 -0.19088975443745834 0.7990099023582755
Ni 8.424423809046584 6.99498439376363 9.3466726040419 -0.18114553056650093 0.11788507994495825 0.12708217306319405
Ni 4.657302502484325 0.42521685258806197 10.559705292251289 -0.23541946141871714 -1.3002045546694316 -0.770624409237047
Ni 8.540323812811513 7.174999678473978 4.888635361116022 -1.0873884324725274 -0.38212506513979355 -0.2873529170632148
Ni 7.579336967034306 6.454920433086147 7.110101289395014 -0.6497756186780745 -0.5896156613587265 -0.4946062004603611
Ni 2.3115269849461644 5.36312284255035 2.6037657391667213 -0.25099006216346453 -0.05696047654544384 -0.24825260862764342
Ni 2.5935907653945445 4.884376701393243 11.4656600061049 -0.159107576929855 0.8450725010442931 0.06980545082891204
Ni 0.9307941795878586 3.167151836986748 3.7418409464221876 0.48157919207307387 1.7524770273585881 0.1033218374188027
Ni 3.8390676688431444 2.6178897507175467 2.6437558576349645 -0.8493605868966856 -0.288926946418554 -0.4476719978026677
Ni 0.8337132148657467 3.3416174652131163 8.098447126843649 0.5826418011440546 1.2649932968756215 -0.02809778667748064
Ni 3.7136707814702303 2.446429809200283 7.047307786339745 -0.13821530686187808 0.5224134524806164 -0.42269064526698175
Ni 4.089028542452715 6.768245165963859 6.2156605284228466 1.0121553828701406 -0.3570809776869721 -0.7673917612323623
Ni 0.8587391780283303 7.500736448936577 11.409306096291154 -0.6601669892147276 -0.541643761465138 0.6200079004973387
P 9.488011400228254 5.70429544385338 7.79085311591432 0.6709052015678381 -0.597336684152068 0.9772665414127556
P 8.52106750067216 1.7447106019030059 8.009019799301889 -1.547649322683799 -1.0002378054969483 0.2780720059819211
P 1.7230189592674199 3.057018768263082 10.4675221483413 -1.1338909469094407 -0.9848104151982846 0.5919836473702708
P 3.932714727032836 5.934981898777155 4.115514798585716 0.766831260743202 1.2276639642975438 -0.71118230392033
P 6.912617714006301 4.014040280369843 10.329082210240054 -0.5000073168712744 -0.0026713761845760446 0.39416554124409536
P 6.53744101848822 7.985656922429856 10.144106637132362 -0.8661501476501987 -0.26140817217299495 -0.5663479490800375
P 2.611461926731209 8.448197704522814 5.865055321751695 -0.7246803384067648 1.0214501779085055 0.4175854628299325
P 6.906226103112844 4.128600399698185 1.804887708997639 -0.17877265945895018 -0.25701235709814446 -1.2256721306784955
Ni 5.408823765765891 2.9373435495653304 0.46584251083636286 -0.30249928578635005 -0.0701440651152534 -0.6543719797995053
Ni 1.3752284152404275 1.0548873956170648 7.3393853922969825 1.1346213973175623 0.3034187122768258 -1.3978465680946377
Ni 6.928107864486054 0.9284312752773879 9.331646886478342 -1.3221409497312067 -0.9181975031647412 -1.0090155516895785
Ni 2.964267984122189 1.5252592590454908 9.220622070342488 -1.6106660327256517 -0.560902352584434 0.5216539486067725
Ni 6.303794143221441 1.9623965564825832 2.322990239497575 0.9589124643856002 -0.24617284328047928 1.745584928224445
Ni 4.263150146296716 6.5854595796481314 10.491889938540778 -0.6840239983379832 0.9815577125889419 -0.12592440530966698
Ni 8.322927562974982 7.2308945873354595 0.5426405222359509 -0.9974206477631274 -0.15054528918214072 -1.0999315592448604
Ni 7.4520660521048105 4.10648325322125 8.205284804115164 0.9868917232073455 -0.6330858167272193 -0.7291586858930926
Ni 2.9321650772833787 8.284523577974916 12.62305489841226 1.312559990910991 0.32249629773356714 -1.0522121416817105
Ni 0.5027173979895372 4.937564681561886 10.281433927954847 -1.291755395460814 -0.43789872046598777 -0.058643777785137706
Ni 8.721262531390321 2.230753681275589 5.5631060266751575 -0.37473725731615465 0.272815128458356 1.3567536547090697
Ni 3.707387809855415 2.5509136354345476 11.479361229796343 -0.3936358939928705 0.7636353795137235 -0.108768976576303
Ni 0.9751733249132521 3.3154987719728553 12.638226373674662 -0.009240801871977634 1.2309482914757703 -0.2970130658607981
Ni 3.337751717548093 8.136937117939306 7.980545444369734 -1.1752972777703694 1.116206128035168 0.8679694602471245
Ni 5.565925215955927 7.796796589783378 3.4598332962677723 -0.303117121876007 0.3265221310635086 0.590680355177815
Ni 2.9698266938793885 8.274727936350667 3.372513570731674 0.42775237606060523 0.17710761305170145 0.21680801696511695
Ni 2.978698901635179 4.057821909662704 9.216315428271642 1.0152887862928 1.0235803368776308 -1.5537371807490918
Ni 6.86833815468633 6.292088260947729 11.377995350859111 2.164988418099723 -1.5295562126275142 0.6230351173594366
Ni 0.4204484935829855 0.2033609603632633 0.3280263432599858 0.025126362753982532 0.17494634373432452 0.3756420285186111
Ni 4.549206420235202 0.29737196013640715 1.4819493052874024 -0.17686927178865022 -0.9160801997114223 -0.6642457872697914
Ni 5.796204273584795 5.484608715892139 0.4728253004710989 0.7043429124009934 1.4673159757403695 0.19105610481199353
Ni 7.919821519572601 9.009708869458938 11.549269700275362 0.5811701016945345 -0.6439348436265814 -1.1518475313878613
Ni 0.13674426002710602 4.820225207354945 5.754733039617728 -0.5356245518542517 -0.5739270469788761 -0.20273636936339925
Ni 7.772868788662405 8.837044842603389 2.3306230541495205 0.21756572106674787 0.593195665400501 0.5921865074096963
P 8.53459309086313 1.4759551330883116 3.452465742521178 -0.13662945043199695 -0.02691867876771493 0.8226216282399444
P 1.6984845888406928 3.544338359159712 1.4539248980342903 0.8297695521386355 -1.2389025133258407 1.3611844367869137
P 4.748858254560151 0.9123255022186618 8.19228611442561 1.200367847585752 0.14979041329398718 -0.22966121877870127
P 8.521248566136563 1.8287340306596314 12.543962787578677 -1.2538385658103826 -0.10961898328142411 -0.17784500543835824
P 6.2721167402239795 7.713859553813176 1.2202463363112395 -0.7430084472919912 -0.35491148083947904 -0.13467001271278098
P 1.8029231487088566 2.891063216863696 5.981208817166791 -0.07630494251032666 0.47916209799114895 -0.3182120685359165
P 6.867912650844981 3.9031105236028 5.96689830818763 1.5453350727283257 -0.27523736474660343 -0.8951550195229809
P 2.3518502638689105 8.541401152324715 10.259611012857569 2.3544730646595387 0.08047167229350657 0.009004003270823202
