# total energy = -340893.9069311872 ev
CRYSTAL
PRIMVEC
9.08594348958349 0.00000000000000 0.00000000000000

0.00000000000000 9.08594348958349 0.00000000000000

0.00000000000000 0.00000000000000 13.29819671825242

PRIMCOORD
 96 1
Ni 6.311350805059954 1.9607920505449872 11.504602658588803 1.958857421232478 1.259650287396153 -0.4546432869141783
Ni 4.5313054298074364 0.4024963966946191 6.229633645845888 -0.43256599539916474 -0.3569238832838176 -0.9421437295676934
Ni 2.7226393323324647 1.6473815132937706 4.708027032101637 0.1687921512074706 -0.6077445097489532 1.4853728332420806
Ni 3.4054207332374675 4.450885743334122 5.0457615488645144 -0.9567074863144813 -0.23983584531885796 -0.31933152685234034
Ni 4.795615528045909 4.662124845222958 2.707513053489309 1.4285581382458816 0.38303189322477904 -0.8203816831658324
Ni 7.4549258337464686 6.013668036115743 2.560567905438736 -1.525704957202224 1.5776440692736764 0.39103676580712654
Ni 5.039600370534659 4.836665821062115 11.384320211922926 0.23531713151289796 -0.6010884378850164 -0.7023659911802806
Ni 5.668165946201127 8.068590461970134 12.39685867114277 -0.22821857279490373 0.17945991533396188 0.11091044839933802
Ni 1.8715226550416184 6.404917851868473 0.4197605980580747 0.6510331452342594 0.7152233067589231 0.04754792498229231
Ni 2.8067569978357922 1.7520879269101393 0.3618013640717144 0.24838861998487546 -0.4326135608076485 -0.2515703601469667
Ni 0.42507042347610713 9.096846694959066 4.698359588150941 0.9933932717712892 -1.2359542293307941 0.46142302884017306
Ni 8.824550052328993 2.4685963503198245 1.4936936865253294 -0.05175553530573668 -0.9328785022156838 0.42056665694544343
Ni 6.857098005152558 0.5597595422549762 4.818269511130749 -0.8390805451269161 -0.3750496463502509 -0.504695209265247
Ni 0.6802509656227955 7.382074738260869 2.2719438222265205 0.4725361080341991 -0.0721945198863789 1.0038170382077745
Ni 7.705661532302291 3.8753820780737267 3.955109415647565 -0.23041018112958384 -0.755226586624738 -0.7836622162576117
Ni 7.863402598494045 3.8092000651631377 12.97985097108753 -1.76412566734111 -0.05389880690098459 -1.7531136325013228
Ni 7.932292222586315 8.743467091975603 6.859861949184328 -0.0377597352472769 0.1264280844189629 0.23344433997021732
Ni 6.971335573566183 0.8292477197298228 0.4864768644501496 0.13465381476286487 -0.3365792581891945 -0.30777698924552155
Ni 1.7826893848292582 6.425915467441834 9.229360638849029 0.20235944563995473 0.8562886814750865 0.387668620665842
Ni 0.036482789187244444 4.870601820268739 1.3712833118770715 1.4760176172794257 0.2509098437448324 -0.03718612213199402
Ni 6.391516085113514 1.8679791370521717 6.846962635108385 0.37778864254796873 0.16443104602529746 0.998485598692532
Ni 3.689401899289151 4.52559945725007 0.3172275421419001 -1.4875780684235156 -2.0776146193697445 1.3502832164933778
Ni 6.006126702958715 5.620501086271287 4.7291582110453705 -0.06682065716897524 0.47480562079466615 0.2093888416829104
Ni 5.160970404644989 3.359863812214171 9.277180868413788 1.6517080382686264 -1.6742303877408586 -0.16034376332980127
P 0.12877507811391814 5.771918335743414 12.553231394233984 0.5775728712615795 -1.3589617181039821 -0.7770768497306101
P 4.085494522960791 6.315866519010608 12.739752186660539 -0.27056052809622433 1.516921554582639 -1.6039024887495732
P 2.5736298579044496 8.46222988087985 1.4677487746820859 -1.4913735309102056 0.000566156916115154 -0.5184827499676425
P 6.066184789908056 7.75799656722335 5.829916639287093 1.2887168657448063 -0.5096990902377416 -0.3058378632412797
P 4.6913815834948 1.1927390693041964 12.599882262862227 -0.2344604399395575 -1.0029217800870147 0.8723750455139879
P 3.9651693723601684 6.140126198621177 8.15430816213485 0.4664487641895386 0.021364324608389013 1.1376496426209246
P 4.818284957234805 1.0481090196733949 3.8200532247487637 -0.2847476182298838 -1.0455576124796704 0.44641781368059247
P 0.1817006993665515 5.473172511402368 3.5488895992809586 0.9979371823882298 1.1412479014951442 1.424741592713269
Ni 1.7762383648997528 1.181563358722095 2.542681316941236 -0.9205030113694662 -0.8148908352545902 -0.5996396212536318
Ni 1.9237577445834877 6.607143697743126 4.932288108304513 -1.589697915114417 -0.9420732813410743 -1.4457588183948844
Ni 6.176479058815475 5.732230934261611 9.212432617397392 -0.3993650831671638 -0.7430488136116234 0.647491193519272
Ni 8.676476430087934 2.1203866492235286 10.120805276642846 -0.0421213546500823 0.8171266665636443 1.0386724553240627
Ni 2.1679061340563655 5.178597135156597 7.186996804186978 0.5212322876883216 -0.7075958721206522 -0.8730972683919932
Ni 0.7876177435143179 9.145456493019424 9.021735925309427 0.053557878621798075 -1.1067776356324166 0.8056477193897674
Ni 1.5732038700480195 1.2353430586696208 11.508272471193772 -0.7610874162808893 0.06406392035944451 0.5880328902526388
Ni 4.265877760510754 6.9150572391389185 1.5746258202155796 -0.47180848583955526 -0.05317349869918585 0.029173793350478792
Ni 5.922972147473033 7.775196258387511 8.060010605463892 -1.396773389635117 0.6143100787816129 -0.37384251341602714
Ni 5.191226596708727 2.980770988948313 4.936250488292199 0.7597165040752917 -0.5837448044002463 -0.33915524644648687
Ni 0.7583473763271319 7.2438593647853216 6.9401689699574645 -0.33281593449202035 0.5444966575329009 0.5488035124383709
Ni 5.077070801787167 4.7166223347119365 6.753515522754895 -0.8763926513138132 -0.18839527015037877 1.6840717993113126
Ni 8.31449243855061 7.38630878796108 9.0989319190067 -0.2103280656677281 -1.0867536271020057 0.014515420007355645
Ni 4.711497862542583 0.46735004465634383 10.466226501659754 -0.11574232257034262 -0.7913973801183403 -0.5341402539992414
Ni 8.180074989484265 6.994332096723335 5.073714454235111 -0.10388850855555011 0.2628760149677731 -1.290578087323261
Ni 7.2626036663551385 5.928351026062142 7.048309870240528 0.6249338770440463 0.06559861183641605 -0.07553052623814734
Ni 2.2167521666493535 5.374953461489756 2.7393756403749285 0.6743072852708516 -0.19841794449370342 -0.7793743875155351
Ni 2.4586744999493737 5.407826405299547 11.631307958759143 -0.8806835653796833 -0.4480774607712025 -1.3048358827938562
Ni 1.1704058200271197 3.2476433232714625 3.5333308295242185 -0.7579840947652171 0.5821473780061394 1.137038748509803
Ni 3.8055747736816268 2.6681054990692368 2.84331429176025 -0.7247888389601711 -0.04257746835089441 -1.168716282118742
Ni 0.8174659767120906 3.247943159409031 8.277715264791935 1.179389188451556 0.3479430199414459 -0.24758026515096718
Ni 3.4754915299928855 2.784251115631024 7.408797406873078 -0.03325182007459435 0.6962783902253041 -1.0074677475864842
Ni 3.8493235919359496 7.062249524854397 6.108419889964836 2.0215720266528794 -0.8035340154808743 0.15646062622531118
Ni 0.7404344385933007 7.434927671965001 11.232215156523102 0.5384640781855758 -0.330705830127553 0.29113938068884054
P 0.1590748827067562 5.4235541736065525 8.058826707017674 -0.8141860958780817 0.2742338631827535 0.4194906502724453
P 8.619643853103348 1.42495761487927 7.98649805328693 -1.2355379677289817 1.1013536364033676 -0.36430886289397907
P 1.7644175523247012 3.21340748792727 10.548675079330616 -0.10556898158176659 0.3163009675561327 -0.689362122721445
P 3.9535938802613093 6.223171722784106 3.911411478677193 -0.2310480718238989 0.5662931845827022 -0.30268131989016905
P 7.100955644431431 3.993590203824244 10.552025975316536 -1.6578995117913187 -0.37042114643930396 -0.06424184069820549
P 6.515057659735326 7.879457460769308 10.319107812087134 -0.9394301872912724 -1.0866667238151544 -0.43210988169835257
P 2.281698491235418 8.502071743402219 5.905303621621038 0.008494410624256338 1.5519345803227143 0.03720540540570367
P 6.981239252049509 4.0726379128195935 1.7786334196228764 -1.0542163165959328 -1.0371120528154785 -0.6862716567215793
Ni 5.349567335175618 2.8365498067778323 0.5901129539148341 0.31243814216661675 0.23283833095510223 0.26073634291695097
Ni 1.4346886604349043 1.1777109186515173 6.939597464107372 1.0407841023504267 -0.3299576391076189 -0.22968795825157864
Ni 6.983737886529246 0.5926506579518916 9.213243083563183 -0.8447840232695968 0.9523427815878825 -0.531814176969226
Ni 2.78132544180384 1.497445272622362 9.340360885571268 0.12527571598207457 1.0307164337017798 -0.3147827311393933
Ni 6.486291562415869 1.9916206570531734 2.7275666395265086 0.19801916639338799 0.35990147785490273 -0.2912429961462404
Ni 4.343608007689514 7.013885047270231 10.38583861598891 -0.6291237467556778 0.225505801849431 -0.18943039628311245
Ni 8.160076827702799 7.277622731064255 0.3398024775177443 -0.2974902626075328 0.30666678690047827 0.0483447098519748
Ni 7.464011777309152 3.6573466904000025 8.278831927255789 0.4643391740457036 -0.04644569305704905 0.06296683064052382
Ni 3.114852258102838 8.370552710332369 12.495823677021878 0.4859300128426019 0.09260496522193083 0.2932399719716111
Ni 9.094484349632767 4.779051852931136 10.267457857310703 0.8645984868923626 0.27890221519270036 0.46832155573221934
Ni 8.60509725745949 2.127927982380556 5.748158593326995 0.08787387829484866 1.012642092698572 -0.27632596982509183
Ni 3.81289804419315 2.790902026318909 11.42886950180512 -0.7642316183368257 0.29265016090641216 -0.0047218309557015455
Ni 1.111047350732106 3.402540489128097 12.669697744603534 0.4944624757936452 0.6711923937909537 0.13634251531919744
Ni 3.242600624594173 8.298910045340607 8.233738389354189 -0.05241450904597424 0.3329678866888524 0.004789708079159493
Ni 5.584938703166943 7.731565557399503 3.462703973022764 0.3520994653119807 0.6638580649130696 0.4848264953657778
Ni 3.0859316997428157 8.387461651302523 3.565778551175275 0.5676761809731578 0.07812399799693642 0.9061308018081942
Ni 3.24600785343018 4.422128731958227 9.459286800863236 -1.0081218362307156 0.6156365109025204 -0.17767634107097788
Ni 7.1734523881180845 6.093678855128737 11.559430876423463 1.0936529253250002 -0.009939884821531268 -0.3624137027537952
Ni 0.7808296350786369 8.9311463422064 0.2626382846229392 -0.0351210120728492 0.7666787943257377 -0.19151016163027662
Ni 4.551239989983964 0.3255448148791808 1.4828950426010798 0.68906824563011 0.35467211113516334 0.16991160952389447
Ni 5.90972484175864 5.451638825158808 0.26662610525260116 1.357955645436971 0.5495231642132149 1.2615508468529757
Ni 8.057660071864227 8.95846777449939 11.332470366388113 0.30946851801533154 0.7840460819595917 0.9274257066312285
Ni 0.06897139758433306 4.736466035452837 5.695165736091998 0.24193026595404146 0.014190689678085237 0.6955373982942216
Ni 7.840569622321021 8.66403777335062 2.6200908303122334 -0.3743055690953747 -0.016116703056204502 -0.07588636691566931
P 8.55604224816456 1.4177342897469365 3.5162556157868665 0.08465382869565422 1.712916748567463 -0.553494233045821
P 1.9997980062595888 3.429652944719146 1.4873371604088759 0.03799524829685069 0.017918789261949786 0.32237057078898024
P 4.791308790797197 1.201888614471819 8.224097294639826 0.1717203805978591 0.12441105398893412 1.1795550246054587
P 8.680910370546524 1.6695603015302818 12.597528094885135 -0.22729426120842144 -0.4276716434213409 0.04639889897951364
P 6.301165462326185 7.834300321262769 1.1959109722019292 -0.1450909509357888 -0.1524039396574343 1.5430922994407361
P 1.6929929499784435 3.2290716546293368 5.992805801101465 0.47998279412023137 -0.3333036727617163 -0.19424787227641385
P 6.951918912172727 3.8954074976858823 6.043884250027804 0.2900029530915522 -0.009431577726545048 -0.06308304450341394
P 2.4717310008489504 8.716963394603253 10.421184753636464 0.4732925265842495 -1.6142293245968782 -0.9128904891295311
