# total energy = -340872.7552469932 ev
CRYSTAL
PRIMVEC
9.24857703883202 0.00000000000000 0.00000000000000
0.00000000000000 9.24857703883202 0.00000000000000
0.00000000000000 0.00000000000000 13.53622735682431
PRIMCOORD
 96 1
Ni 5.680106161887546 6.2598162282111 7.593295508274742 -0.13910876521042492 0.47451534324775696 0.590886300541034
Ni 0.04638808857004586 6.366165617222993 6.391671343374572 -0.07197031969071477 0.5330161676971272 1.1263445020207505
Ni 2.0421783274820715 5.948194668652289 7.762985627830662 0.2567318497432482 0.30223831881547947 -0.09682183151675583
Ni 7.65500109037305 2.741518739650381 2.736903699636733 0.2053378115419883 0.3922426131897696 0.08177110783122046
Ni 2.5603391126616857 3.2678090241726725 5.922289403966462 0.962095490099272 0.016471515292461957 -0.686089108397128
Ni 6.825995626117885 6.371881237921258 12.899686088263538 0.29075885742097024 -1.3919793106805833 1.5228641453193192
Ni 8.033147665599532 3.6326838911434742 5.073933141674113 -0.12197596218488026 0.7359466553492036 -0.27176303304475774
Ni 5.730270444520864 1.4529052323526837 2.4713363550117107 -1.3816997831314461 -0.18589435810539598 -0.7347351515396056
Ni 0.12918227635797327 4.722369751840873 11.67666164062273 0.12138820800221028 -0.503427655406733 0.30200049177306054
Ni 6.871507874428828 1.0350545152853405 6.3545003868237675 0.262485978618206 0.5400828447359215 2.96417752634834
Ni 9.216863810502856 0.46360620295816335 6.528726008629573 1.1894393735987063 -0.3048947826017201 0.5783922818390813
Ni 5.115277056249282 4.021022398424144 8.892056554456154 0.06740044093184522 0.4261814320290596 0.7679077816368323
Ni 9.099776823383056 5.580249274057176 0.7925189024158029 0.19070772033363928 -1.5580170390713686 0.016088420921430355
Ni 7.17627623829603 4.299931740491427 7.18257914364533 0.3663289786478014 -0.32134290085541434 1.4531551108589553
Ni 2.684834210103994 2.7498794534226 8.27479079077104 0.12496564094082349 1.4226458865265046 -1.1263781834721633
Ni 5.0941533059663735 2.8453062727829552 6.876985806693525 -0.7774961966562158 -0.978854968945798 -0.3498168399253911
Ni 5.353751618878353 4.954980716536773 11.315596262593052 0.821612984469772 -0.3214357176795367 -0.514578786927546
Ni 4.153582255168859 9.025954680319057 4.112130132240664 -1.1694904412806053 0.7443065972781245 -1.0973393730376522
Ni 1.34577896285753 8.91167926066248 1.5698100225020049 1.2745022648073212 -1.5071999564195009 -0.7163139687199406
Ni 5.794797767517297 8.19270411913751 9.361154562544787 1.2829622226492163 -1.8440712919278177 -0.5029211480839597
Ni 6.782249856048639 9.133395401438385 12.415130008273481 0.7803724897627463 -0.9168944680826016 1.195595108787457
Ni 5.968486046988849 7.742094941692731 1.4401865890124663 -1.3274253380585979 0.9152970416884947 -0.015753920400147062
Ni 3.0425784240677367 1.566477760143453 2.238769783486283 2.387630268137798 -0.9355393368772984 1.4689260005399671
Ni 0.4513564624810563 7.672434658360477 8.697621866650707 -0.40892804426525053 -0.7588307590362287 0.5279765483906907
P 3.7543951668541036 5.5348110143636875 4.241969057578536 -0.11214252103422621 -0.7130288702107656 -0.6807563833303051
P 0.5593752196742399 2.52373324417668 5.802466687716328 -1.1148727539357253 -1.2664876220329608 -0.21855173912910103
P 2.3138182878845712 5.295605814137265 12.137705062843853 -1.0204862713333391 0.9901673086348237 -0.009696144241841367
P 0.06560385738037827 3.857590791047052 2.314966036312815 1.7793730804184837 2.047500059372551 -0.4104822761262479
P 5.4098534880622955 0.4994268672404459 7.765192338346205 -0.33454243026482383 -0.4169213468833723 -0.8900310680328543
P 6.2107340291080355 9.19652618928039 3.917154402670089 2.0618648127346555 -0.6023863307608336 -0.022809027474715558
P 3.6888320032133244 2.000809441748512 4.434170213994614 0.17711224103739176 -0.7106577988754277 0.6300115486772698
P 2.4654117164691396 1.3092840772987044 0.24258555518631852 -1.673047680286667 -0.014361153817678494 -1.3802802770761002
Ni 4.064074525204766 6.3078070952067264 9.664974947250867 0.14336316961140472 0.4035518675550017 0.05596623095297458
Ni 6.528626123996012 1.1712305657080841 9.571249866091938 -0.8080169909528923 0.5245132724324386 0.462584653248442
Ni 2.402012719888869 7.75139901033748 11.941809099843704 2.4104734912845585 -0.5864483193743384 -0.03398921246125114
Ni 3.8488786313419294 0.912924279028382 9.157920778408709 0.14854779913613772 -0.13191379012388246 -0.0013097199503590347
Ni 3.1565301435229545 1.0585551499039354 11.715834914133362 -1.5008904692617053 0.9245000483440015 0.3919435938921121
Ni 3.891015148981567 7.978544065919018 7.834903488852959 -0.4791248169953103 0.8777751334836367 0.5693504833517872
Ni 5.437229276520005 4.976021229625046 5.645283419083165 -0.3070892191498776 -0.5991187157531552 -1.0874593949197786
Ni 4.196847099224659 5.542339356189557 13.398929833675787 0.92232978016556 0.27028259184448933 -0.9513552208636326
Ni 8.173254361324481 2.0175956093332226 8.182311492958478 1.4252421864987712 0.768312987495051 -0.011592332823289713
Ni 7.514468960097745 8.014918719974483 7.3608926365654295 0.09005237400340621 0.0455280663387861 0.7630728221420342
Ni 2.791063367612527 0.697450002992378 6.722631677820231 -0.2338814275076359 -0.11951618779047803 -0.7612334549404502
Ni 8.753870788211836 5.900897444945286 3.6946863525693145 -0.12434497663768909 -0.056331841822509436 -0.43550116676808864
Ni 7.916985536197898 0.4531368135885256 2.3873306036129858 0.1381309746781879 -1.217303446998826 -0.1862787380280082
Ni 6.188500449563328 3.6847256349446678 0.5240891231530572 -0.12993044114526656 0.6049574339221194 0.9424028967663513
Ni 5.957064054169499 4.210183547520611 3.3346087225826393 -0.21692628771053607 0.5722622576819435 -0.5279423527186456
Ni 7.885355402236625 7.332207249578796 11.013210332207846 -0.22684174705203516 -0.7306062169728965 -0.9912181184968415
Ni 5.579777596620912 8.482452793661697 5.896841018993411 -0.5632528550944816 -1.2874379990323828 0.7760643493056957
Ni 8.114202196019589 1.2828054008276155 4.644564246584733 1.8659680920009087 0.29680737760789533 -2.0730437121696106
Ni 1.6810306371154786 6.2339757035655445 10.154120171238464 -0.05338021539335323 -0.1798296399685548 0.7885159448054871
Ni 5.889558689320572 2.131454843016624 4.7084682154791215 -1.0765494328754945 1.247747108200664 -0.906428278443955
Ni 1.336160442588605 1.0567979202394204 4.155013010058862 0.41096898595467934 1.3645728936431725 0.9566897457026685
Ni 1.5330534022089382 1.2981857846807139 9.577070920570073 -1.2494589486854484 -0.5965224157808888 0.9772094629225749
Ni 6.1371338518963965 2.078867433161712 11.938086547528087 0.1362332434348428 0.972966628485821 0.28966948101153334
Ni 1.9112924632072368 3.904342348700337 0.7500744071560164 -1.0870989262565665 0.3108846816365678 -0.4012934105381282
P 6.895017757624605 5.867528578473861 1.8812105410661732 0.5536641829647819 -0.7385840929720506 -0.06941644292060949
P 7.302519316825672 4.075820218225473 12.261060735577383 0.8942129673246858 0.6936368388373989 -0.23907994098943985
P 0.5186361620467511 7.990622707718265 13.0284299820631 -0.27461387222999156 -1.0947615850081467 0.1732445305518694
P 8.226664894548561 8.90989428526642 9.484510235278316 -1.5706223865402047 1.6836632510189842 0.5984031777433694
P 4.628431953406765 2.4396636775954024 10.476647653009886 -0.7766076234036754 1.1268805770298786 -0.028114755958345124
P 7.399166948374005 5.994326571634403 5.797051645776467 -1.9600907794189468 0.2018989610637684 -0.9888779003994389
P 0.25504431350773105 8.416778647094738 3.303746220527444 -1.8978950226164928 -0.5417566328939186 0.5903810787698414
P 0.6298160829206256 3.297173256724439 9.686754421655957 -0.33562692157825424 -0.5011686841692272 -0.16199749688314036
Ni 1.6193148815822695 5.589618082742197 5.072701231193516 1.53989693243189 -0.5963756057903793 -0.3513787850958723
Ni 5.906085896744196 6.796770122223843 3.677684693136271 0.5331040994252433 0.5246863076751931 1.8509024559170382
Ni 4.600602984667154 1.6998144973714275 0.3830945640186693 0.38680061623859185 -0.043841936885614816 -1.192525725833514
Ni 3.7415211474172345 6.880737954456124 5.842045973765237 -0.6370990516516705 -0.013040635234042057 -0.3533240817477012
Ni 4.111945160697031 8.19927985751367 13.481432691282492 0.9883099437111107 1.034697786947031 -0.6190252248690952
Ni 0.5596082838192177 4.137609962376135 7.173307445020717 -0.40687527550127994 -0.6384427101637585 0.5713099210710032
Ni 8.852127672189779 2.98784534430668 0.20560049503686514 -1.4151398079574466 0.6940513006669982 -0.3448458690733609
Ni 8.415224886128218 1.509321553160802 11.102819796520938 0.6173367814230787 -0.5776988553164826 -0.5984528000343822
Ni 4.840030150745935 9.17981401031313 11.217282037436584 1.0394910945706162 -0.5075604466281839 -0.6422733967637584
Ni 2.9016301078192575 3.650246939211444 3.3052352414536914 0.6948192891812743 -0.21023113507854763 0.22067469900937475
Ni 2.0712096112552985 8.16233179167294 4.281563141350935 0.2019012750566136 -2.410484547028152 0.7202631831756756
Ni 8.907415666581734 5.189145442199191 9.27948962603074 -0.09739390197014194 0.9124420887382029 -0.8323254857912699
Ni 1.9185340991404756 5.540609872256587 2.729120097080649 -1.441581547088743 1.5078584159391064 -0.8509865525358827
Ni 4.383881075569343 5.838164345922094 2.1831090714339063 -0.46476983382521886 -0.6723851285474742 -0.2559024118634174
Ni 1.2239104613348126 2.2335776322564995 12.062443841170388 -0.4513792714509258 0.7072775695492852 0.45850636941401035
Ni 7.392702192924026 3.5301171701988787 10.09052695453738 -0.32483085940401474 0.013196958306248239 0.20469169331755716
Ni 8.215224404574847 7.634210288868682 1.0356824936759752 1.207612187852991 1.017250538004861 0.17494171574863418
Ni 2.3025905151860373 6.774869491457676 0.45637566531754253 -1.752323018279227 -0.7176144326989189 1.270771079899663
Ni 2.809939713640292 4.063741576426225 10.176197449828802 -0.2261074399891719 0.1950091759224706 -0.2892825299857599
Ni 0.6965454921440118 8.607715523010082 10.918808255199218 -1.2673592260046367 1.4375729401499822 -0.5842780511958969
Ni 8.901394842836476 0.5799292576027583 0.11967381415750991 -0.35350637296183635 0.842613240870523 -0.7300295185338201
Ni 7.923034105674703 8.074192851131734 4.895322769426483 0.08265788131154796 -0.33849678692688157 -0.37052733299986507
Ni 3.424674141750787 3.5330674663198276 12.31569300584716 1.2569051205508481 -1.7440360956800869 0.9899567352859143
Ni 0.8981866712894088 1.8547004194326668 2.000302619718957 -2.516159200949847 1.7306383342169422 -0.44789619799833186
P 1.3404795281324398 8.000592673920094 6.913777571579881 2.5459611148026284 1.035895663909874 -2.2098235721365427
P 6.866199191126556 1.4311710759757854 0.5401668497256528 0.5432139341657354 -0.029801399632148676 0.04329377769162866
P 5.355980525979134 7.249173523641864 11.722021287410174 -0.2091008781288463 -0.9709061464123667 -0.16852707047154203
P 3.9720604308244427 3.7316991584503127 1.1302131259074275 0.9263934087119724 -0.5111517635238682 0.8974862387593189
P 3.558029376133125 7.857998110933278 1.996445038176487 -0.19937568042128245 0.4259867995197502 1.0355259392752811
P 2.83563226105094 8.319381880794689 9.845237115383142 -0.8237904517370652 -0.18995824376212445 0.23314994865825006
P 6.689690095614599 5.674557015578551 9.457044735621944 0.033703562900032284 -0.08355416787357223 0.00891709998397174
P 3.7845455284663108 4.821745713657796 7.256284754636841 0.7718559676513029 -0.621426121001104 0.18066807670945015
