# total energy = -381166.0134659568 ev
CRYSTAL
PRIMVEC
9.25060982577784 0.00000000000000 0.00000000000000
0.00000000000000 9.25060982577784 0.00000000000000
0.00000000000000 0.00000000000000 13.53920254599314
PRIMCOORD
 96 1
Ni 1.9053388398688156 0.7695424991754051 11.230876680048574 0.3102305929923367 -0.7195329898778705 -0.30356835048081265
Ni 0.482573783713979 7.716941910035611 11.08505931853858 0.25018633531524653 -0.43841036999508365 -1.7981781289401289
Ni 5.2608217655734375 2.4935943645647547 10.362323054582884 -2.298658014572448 0.47809329040700244 -1.955702420543264
Ni 7.657441988115146 2.2300814951887658 1.0695675252398384 -0.42589501113689227 0.8930356591871329 -0.4042938879273489
Ni 0.517978642415191 5.06599467360097 2.238247008416252 0.4688951688475021 0.2805922013006136 0.48446037027561084
Ni 1.269710942636387 0.45301623543657393 6.215481916726328 -0.902733088980555 -0.9075793613292626 0.6388389171609126
Ni 1.6796054607172013 3.0117857710042255 6.647369759490896 -0.708816889011947 0.13937487438761803 1.2770108901617878
Ni 9.123709886747497 1.518404335190768 13.052346716729035 1.9357727714988724 0.19823539616925215 -0.8891671773706621
Ni 0.8944830845986298 7.249268083448077 4.465905768911148 -0.474807420566879 -0.6647103856110358 0.4127001097131731
Ni 0.428688981912563 2.800779362576707 2.692744266474012 -0.2596410529702432 -0.9759851035971706 -1.2962034039298387
Ni 3.122811589239521 8.131757752504125 4.336010556905118 -0.558637210699341 -0.1179843245269839 0.2193775774645061
Ni 0.9888901824156857 0.16124275327031443 3.7776002744498505 0.7273913095800246 0.045674619218979404 -1.5472785696079419
Ni 6.695119556905239 1.9328871557082348 5.4617681358964 -1.3047024425397853 0.9445032309388055 1.5748482516960942
Ni 2.8742384546119073 5.057021582142194 12.033683446828737 2.0148614474019237 -0.5039017668296741 0.8334475152108549
Ni 6.81025264587012 7.275872837092862 1.0880872459619733 -0.15203961433948007 1.8341689452124412 0.7967581302096213
Ni 0.0651742459419221 1.9072907185263432 4.725561134020838 -0.38517079394465276 2.150167808147123 0.9866209860444622
Ni 0.9804721275419882 5.954386231678359 12.8885082423625 -0.8245304152268833 -0.332357249688047 0.719449943245761
Ni 3.79021533096772 8.768079445467903 6.4617738509892675 -0.8788709376509767 1.2053609299249692 -0.296454879364483
Ni 1.6243423180628391 5.724924856796965 10.15460523792196 0.6803879442472928 -1.051759113304692 0.3128276642955516
Ni 8.184865503086431 9.024469345335378 2.2904676255234064 0.06806738509188277 0.8240879283728259 -0.3890343906651171
Ni 8.633834596756804 7.658681569821822 6.541127431558007 -0.0480703731446656 -0.6645903150934037 -0.20771685329712614
Ni 7.626637457643264 0.3948909541251547 7.432846433962944 -0.5070570246292042 1.4645584675998906 0.2256407847653985
Ni 6.178528505952746 0.18518425636769548 9.411072678184329 0.888134879451406 0.8543097033718448 0.6376744645391662
Ni 8.009529445859986 0.14520404608348264 5.28023509519755 0.9533126017003194 -0.783452928460283 -3.1186573746981967
P 1.0914146902895216 3.8419539913068306 11.611789037778516 -0.21249884806680178 -0.036845965183755894 0.2543268398461814
Ni 6.065671066986691 8.533465480955025 6.190963175580466 -0.5479645614768435 -0.4345568005769484 -0.4114670086370204
P 8.689958046118038 6.341366989405163 0.9790762105305146 -0.4667624387752155 -0.8551162584335402 -0.9022435509386462
Ni 2.917161283858014 7.372587962042871 11.960247481317914 0.32644576929961844 1.2922878709255163 -0.29469393080931827
P 8.411940220651985 0.20490748141847642 11.297246104770368 0.10033575820728527 0.7848863184726999 -0.09105998933231413
P 8.059760256809632 5.715581740948134 7.361250414731658 -0.7383089849337929 -1.0525831518678839 -1.6607557502931916
P 1.0747913445664066 3.9926279229362667 4.624125422914732 -1.3323307457800149 -1.766714254003893 -0.41974698925762544
Ni 7.24394898284107 2.6997164510435785 8.634680102488074 -1.36378407919329 -1.0490915937748577 1.262316778484723
Ni 2.704730281528792 3.7319642413636824 2.6936239994613618 -1.4400327145443845 0.7208105710387134 2.212643558083841
Ni 2.078713767827981 2.817263949153552 9.224190934927266 -1.2812827780642642 0.17393075798561658 0.7765173776827143
Ni 1.639966597932812 3.493196753072464 0.3590133892656505 -1.7146067346753762 -0.09577590675074474 -0.47024448378654493
Ni 2.549403293194444 5.406287603912882 4.554966939352918 1.182470141369725 0.6634757418729863 -2.0172317474063135
Ni 8.660041574182282 5.504769595325393 10.800370878380853 -1.0639515416058258 -0.49138152287547626 -0.7077869050855359
Ni 5.962008734113444 8.32769491764675 3.299896011708964 0.4192379108316909 -0.24132065739450048 -0.20367353646568795
Ni 1.7314828802025817 7.395584977884643 6.9521505240284815 0.6943143245203978 2.9860702126563736 0.32046821155994487
Ni 5.134393682102202 6.552169884418153 10.424197608026512 -0.6647270977815842 -0.8324686962373533 -0.13632477470738458
Ni 3.180646401404749 1.7503448734855152 0.5727256010454296 0.768936737121979 1.0611004453102757 -0.20334417815072725
Ni 2.8635354991296347 1.0752076220052158 7.86760381587237 0.38983914595459956 -0.22294678287300315 0.45486465889636496
Ni 5.4165002770783355 6.00121281823952 13.473902553462358 -1.4304422426424719 -2.379658305675915 -0.4182277243996217
Ni 8.423410976743618 2.681418744955476 6.839720463232937 1.6732929635282536 0.33089146377579787 -0.6423888392957001
Ni 2.2251139177523087 9.063099891656874 0.10186401433759182 -1.2331098179034634 -1.5651968446492592 -2.921902676839529
Ni 3.7582729754964257 4.504279148281557 9.936948566144219 0.11507357863809216 -0.6036873089604441 1.2532780653212223
Ni 8.13790940798875 6.738338405663389 3.1279345769197997 -0.5355296781476003 0.4647801182378641 -0.34709172768474417
Ni 2.7989107394069404 1.8700200118382908 5.122719412596041 0.9980667659875585 -0.5123010466369629 -0.4605074590044391
Ni 8.965237691097702 2.6589397632597778 10.383741916401082 0.35060796836811875 -0.8590634160067462 0.3165436796945581
Ni 6.1587044492556755 4.2574821307261965 6.705425661229181 2.0473589058089967 0.0887645084299181 -0.21124286417251364
Ni 5.071212017500713 2.6543329596036225 1.762898875979026 1.4870903301538194 -0.9479837332882384 1.161590212596922
Ni 3.0594541630527576 2.77887391868559 11.822932355230355 -0.0539851959672038 -0.3480589766940199 -0.11392069598057156
Ni 7.252690809056064 0.09082248653842098 13.119608825291827 -0.9961129846952974 -0.17725005216683667 0.4550302379399518
Ni 3.7153871486893246 4.255493249629663 0.9613742437103963 1.7989137215545727 1.7590778205045576 -2.613171551210854
Ni 4.884738226133684 0.5885746707323594 4.700973938362815 -0.508428193945118 1.3578885396444615 -0.8392237555729999
Ni 3.633269485926892 6.445556607034236 6.251618498658869 1.522233710824172 1.112864722366761 -0.9591070968949096
P 6.49275321798545 4.415371537961659 11.06906963958343 0.36250703379854987 -0.017524124926692402 0.7617852136788622
Ni 0.25242508852806156 6.768772911745218 8.58524854422094 -0.9541880623267374 0.03567894145884823 0.7873725752296633
P 3.322634010477699 6.281154770533847 0.3686423489557954 -0.18483172116883653 1.1654172996524963 -1.3702210930678853
Ni 8.51980233035233 5.293726184458869 4.805834225198858 2.1933278884743648 -2.110902177778281 0.7231258494354514
P 0.4976476523037485 1.2121814005929525 8.292490797177141 1.8024883262797087 2.705093888543464 -1.3944833080493595
P 4.3536514697008775 3.1715623026289568 4.062735519058566 0.997149910600244 -1.6641568055549405 -1.6158342071901528
P 2.1886110116736157 4.8382169096943155 8.206746895392193 0.9222372204517537 -0.643294381829105 0.978460818831173
Ni 7.216826195050212 7.528617996718318 10.20329212210411 0.8805544960009867 -0.8935205692433515 0.682721991697108
Ni 4.149768030781872 4.188962864298198 5.801846452062081 -0.9256189924397931 -0.0022944524611315325 -0.2577430646165819
Ni 4.401292109920155 8.067771284854272 8.56548184130433 -0.4397784539872039 0.03750853846841928 0.5083603168216599
Ni 4.381745571515625 5.6370810665984665 8.122965972996475 -0.9012968707546607 1.652667573968418 -0.410416455885319
Ni 2.65755217179708 6.335927630871389 2.322216643250898 0.587519183841014 -0.2757538993717057 1.0005260261613285
Ni 7.551291241218794 6.660661035581588 12.48658404964342 0.09634514899065343 -1.2145508239543534 -0.10267494786342318
Ni 3.0294174331902344 8.716007763177744 2.144068400660054 -0.3318216888995511 -0.6980568222819655 1.408606120603987
Ni 4.810465080440367 1.1985552524292642 12.501097331282262 -0.21543067700161606 -1.5743828820239014 -0.75409478701314
Ni 8.742233241822726 8.966810294755424 9.186903577141662 0.44008904324908715 -1.0840362281708429 1.4377418616276787
Ni 6.788911489173834 4.555129750084542 1.3481699892421741 1.620417198575145 -0.7596280581265434 -0.8779880208253912
Ni 5.413586335006671 3.4128459567725327 12.821326614104544 -0.2779033416145408 1.7424286419836506 0.5096803211846641
Ni 5.613482761122859 7.873388222149868 12.3266992858846 -0.6252827757430328 1.52792073390662 -2.3792744399739347
Ni 6.714897360553553 6.299147206500156 5.293503244763863 -2.3334882348777555 1.2402937372464122 0.15255486341300178
Ni 6.182441513877554 4.729309481092072 8.94223697501203 1.3713765468285672 -0.2830555752394416 1.9144341579220963
Ni 9.06411745872952 4.43204113673353 8.683489094718942 0.5662803290668956 -1.1826480617084858 -0.49016924773493
Ni 8.351987018853707 4.056586638756865 12.641512336697486 -0.3723016512914685 -0.5923415449303218 0.7390679745870046
Ni 9.248463609853745 8.036948253162887 13.132755791870398 -0.03376912603064507 2.2150519104150175 1.8360952157008765
Ni 6.521698375897318 3.99975089244478 4.182083185826145 -0.9331682655419606 -0.027976430608267946 -0.6291283747413682
Ni 6.439367949110605 6.949687086651707 7.832509777658802 -0.20597878756009688 0.2925069504603285 0.7842571695291332
Ni 3.083746264259713 1.5429554534707606 2.8671830145545782 0.07192018317906969 -0.5166207570582393 0.6855700026688645
Ni 5.465158484370258 5.890261004882235 2.4652588218354983 -1.2945522414796606 0.3060327528609052 0.9492656853244554
Ni 0.8503354746214492 7.767422487448543 1.7587832797006655 0.4147739615230663 -0.021119812697750723 1.117369809325966
Ni 2.102238068425578 7.82954033192863 9.414241012024153 1.3819486659174587 1.7414413383697172 -0.17997670706938038
Ni 4.5045751677935995 8.607886636404363 0.5789096336641844 1.4768205727966954 -0.09768957883368981 0.07416424201824001
Ni 1.2891279725043996 5.3463159008951004 6.420872279973824 -2.047118507663416 -0.5206630454484129 0.09401855774000582
P 4.313143049599865 0.08992055208766767 10.434893163020984 -1.371758612758334 -0.26098316882043443 1.4389577363126507
Ni 7.168972790806653 1.7426298649529175 3.2809146855602385 -0.24340582205830338 -0.2269566753633446 0.06523994294541667
P 4.707404037200955 6.715868674577441 4.267786384928187 0.17910947397307864 -0.039839500594441066 0.5986325201453562
Ni 4.08135977167089 3.4080078878725946 7.89979963805085 0.3957436843644926 -2.545402928306313 0.4750259643355884
P 6.24708477481975 0.6148427021821964 1.4427241717542763 -0.8335267051882226 -0.2285121927759226 1.1036007805663317
P 5.410265366105949 1.1345965366086648 7.681006066334674 -0.5915447600606393 0.5654760879980454 -0.9229730701765138
P 1.1933286579197706 1.0369100976347674 1.3897043019646083 -1.1223343524200928 0.9375759076913531 1.3276767919477717
Ni 6.861982055599479 2.091155837943501 11.6578894514742 3.620521799382868 -1.159910510901654 0.8950429194251489
