# total energy = -340897.0853121169 ev
CRYSTAL
PRIMVEC
9.02200001938395 0.00000000000000 0.00000000000000
0.00000000000000 9.02200001938395 0.00000000000000
0.00000000000000 0.00000000000000 13.20460898611158
PRIMCOORD
 96 1
Ni 6.416238826818833 1.7887017012714161 11.353441663923897 -0.3035488100967869 0.6039269357750761 -0.10125107093270305
Ni 4.530334098565181 0.41944540640820094 5.889347716935641 -0.19651044305834545 -0.7882061268745523 0.3811151358180404
Ni 2.5914702308660362 1.6187362450510379 4.717623599004168 0.7384578518068314 -1.365099455570604 0.5140501681175856
Ni 3.511019527237904 4.278863895198197 4.882523202277588 -0.4165351671885471 0.2820235344305014 0.23326204875608214
Ni 5.172592227840424 4.455343235350372 2.7260387726570374 0.5673990160523712 0.7662532767525448 -0.20859874168144718
Ni 7.288197073689003 6.06076300854084 2.54686546333307 -0.04715326064703492 -0.1439072150403328 -0.31377228759700804
Ni 4.9052072166400755 4.546591742394955 11.37567818709107 0.3676669807329346 0.15789915844405064 0.04793821844217551
Ni 5.545002339941107 7.852838937776926 12.325696581543912 0.3789201850492506 -0.016948969149512747 0.7428865770021463
Ni 1.5961451572875776 6.608966788800878 0.3174246314764084 1.9014971381454542 -0.12219656283611859 0.08197165387780077
Ni 2.7090539556348765 1.6029026352168234 0.48552163151635047 0.6799120330521387 -0.0457214132965148 -1.0519462896148335
Ni 0.4626580793557431 0.03680254201465934 4.626882128354275 0.3949564125765069 0.020091885653868623 -0.05155961724484669
Ni 8.594185692014662 2.1610576813726663 1.2122545503071005 0.026069700503858328 1.1963978071944106 1.2474660866251353
Ni 6.868304176085487 0.7436852566132507 4.811086104825569 -0.4565603014312331 -0.3033346372034518 -0.5101222938180893
Ni 0.6395948349031285 7.329256195259093 2.555725969440296 1.5130019078132588 0.25209820762597873 -0.3888446432518142
Ni 7.703822565337201 3.9436605107079408 3.735544625687016 0.20940966761851673 -0.6155334096657529 -0.13106352630844526
Ni 7.659632809799889 3.686948525395841 12.602848809841994 0.07232847436108189 0.3357575336188476 -0.5127728440670588
Ni 8.010200660129271 8.722126672675056 6.732317375909336 -0.8650522866003294 1.212846439668737 0.746384819963392
Ni 6.901414915738802 0.6112422979999934 0.3071981945834843 -0.6140966772192262 -0.2682668469660412 0.446550996824347
Ni 2.048066154555743 6.3744579452562995 9.32303517198325 -0.44317668103547553 0.2956190137267489 -0.8823478404559837
Ni 0.26894942598396765 4.839490969328157 1.5011922170817813 -1.6148559024372835 -0.38410918544935785 -0.3757950091567076
Ni 6.204943589031197 2.0237247988106093 7.04420971704367 1.1768263128203862 -0.38381556546833895 0.043936810592266264
Ni 3.516450771181036 4.340475132553097 0.7475710319725647 0.3607376006029529 0.10869852834968376 -1.4020719190298951
Ni 6.132884875785688 5.646301354880456 4.820170356530453 -1.0024746652472671 -0.43703585824506025 0.36925180872155117
Ni 5.143685740143089 2.8869407277723154 9.294670906480238 1.0229938682465414 -0.5022734871976318 0.186110330770944
P 0.121810531724584 5.396373913497319 12.452672208214416 0.26762047163129393 0.2620370640062455 -0.1621075400984434
P 3.9253187848999875 6.247211658588631 12.720871003806243 -0.18323660876757475 -0.9468138813498533 -0.29044389728371267
P 2.307484739839503 8.470530161309396 1.3758676163939916 0.6723679021562936 0.3334157728595484 1.0486069408289553
P 6.172166663374388 7.713773831233006 5.840767856244296 0.43936630615044975 0.37839593711466446 0.18194720053218988
P 4.779224009959181 1.0307905552071175 12.561782470671979 -0.47982981348213494 -0.67558383799043 -0.05488482496333773
P 4.053620645556604 6.054312278608382 8.185761560691063 -0.42870317000964875 1.8218392200024949 0.351862152490194
P 4.831957599407035 0.9789230777501954 3.747718912359545 -0.4875492936135797 0.045335233601689666 0.7202480136670241
P 0.21961352170053874 5.6631544507039955 3.7084750171704486 0.022479154939122576 -1.4461740515554318 0.054091639638081036
Ni 1.4627729326840502 1.2189353412371493 2.4586718054565004 -0.27922283175691265 -0.7381842864304706 0.9321323680782785
Ni 2.0197912068517954 6.423898504738633 4.722813053349832 -0.5425405622477947 0.45660529573655556 0.9603661661129912
Ni 5.9594910596012065 5.558183481803094 9.149169505203709 0.21908832835886138 0.6204879254575507 0.4352831372200117
Ni 8.51115622688402 2.3828545270503447 10.324182142100751 0.8411533684955449 0.29980476967332237 -0.3958532133591634
Ni 2.4270533045875617 5.197339573581306 7.0712928585600965 -1.276483556903408 -0.45422368287825643 -0.7713767140220392
Ni 0.43230356067356973 0.2163295137349239 9.20855050418196 0.39712436676210316 -0.05501415145235041 -0.04523187525460597
Ni 1.594719681302503 1.1579015118762035 11.23750535633781 -0.4880187770508305 -0.23059067257150612 0.11325426604116624
Ni 4.0653492454338 7.029788952394663 1.649836883125399 0.5284552877993222 -0.31352366192131165 -0.7203215472174369
Ni 5.461747324812827 7.8633405456669685 8.022314499402434 -0.03552981747549365 0.08505697767134383 -0.14712109399194015
Ni 5.339544336092353 2.846098134199957 4.908073506010064 -0.34543747991077284 -0.48231067092245966 -0.7790198323895938
Ni 0.8261977611493043 7.52555686920373 7.295717812810257 0.44592416187362555 -1.0075417953575294 -0.40310269583272507
Ni 5.074983210862437 4.464311103256474 7.17057816312053 0.5632310007176106 -0.3626816117032012 -0.9597886963429665
Ni 8.263754945474433 7.204021814570359 9.251188475735521 -0.5001420426769257 -0.3627924262494526 -0.38535694181352986
Ni 4.361234754335734 0.36446443678387863 10.431812796573803 0.16148584735404445 -0.29139186301927883 -0.706393624282435
Ni 8.020584982020543 7.175376964870285 4.768672781069657 0.4294243644463895 0.32969615791611606 -0.2750435035682424
Ni 7.3490955730513665 6.181847269273027 7.072823891944066 -0.5003739561820738 -0.5695451158610966 -0.15421656738614087
Ni 2.366452531222081 5.299531766511303 2.4880519481488763 0.048367849780426374 0.35995495680065753 1.3390981464108356
Ni 2.3837386830410874 5.152581432049946 11.459619776412161 -0.0005851830795086696 -0.017667335372776025 0.5537449156040464
Ni 1.296046374429759 3.3482987369416706 3.756249213270229 -1.104687328762291 1.076541205345378 -0.18290416512882046
Ni 3.715187385100166 2.7205479835145283 2.8514824637435803 -0.9730103372395631 -0.3975809946835476 -0.7353177635159529
Ni 0.9067651225057245 3.302286537423441 8.185682167091894 0.28711740401364094 0.91635530774968 -0.46481379968927694
Ni 3.654875315731663 2.569393397097191 7.000357384302825 -0.13097713724222604 0.15864015037513324 -0.6047509743382682
Ni 4.095960891113281 6.807910908717834 6.087523162460648 0.20432839644086745 0.5422788239459758 -0.5668531708512302
Ni 0.6977019274947187 7.187015344748426 11.212984462794553 0.14184184787087184 0.2382507602199252 0.523130533152299
P 0.18531819345962763 5.54683380592193 8.054177496468812 0.7676015632503232 -0.22672527607882886 0.21348075236409683
P 8.335425712724007 1.6934654702685863 7.938426139880786 0.4584395207318169 -0.5640241860428673 -0.2595932304514432
P 1.849347584636424 3.2674345517883583 10.326452979476974 -1.099426337473668 -0.18793915644956663 -0.2290639515143345
P 4.0393749077057635 6.089299594242047 3.826391653735803 0.2108363727627143 0.6203359732607188 -0.6561686666886118
P 6.8304207984821455 3.966224532471684 10.45160616216656 -0.22106936334463217 -0.3772098872263633 0.4510383431717393
P 6.248925838570683 7.670035175690971 10.097260800476729 0.30029585037712797 0.19422833189238808 0.6791692413488433
P 2.2189608767663915 8.482574531183285 5.816973233693438 1.0156873072827992 -0.2854096772939149 -0.44038009212694484
P 7.003074810674373 3.973703770393373 1.5313383275661367 -0.29126665029532417 0.11456912819784784 0.14306235054153424
Ni 5.311909950381698 2.8664607879867496 0.24672914241662489 0.29413291609952574 0.6062350150829623 0.3928316529240202
Ni 1.3714071396406948 1.1432588060295197 6.960109340524242 -0.8458924258424271 0.1275686257813093 -0.511881442601041
Ni 6.870613808061305 0.6469197966264325 9.200403638267261 -0.5902489240673513 -0.38843300963569233 -0.11285214550674112
Ni 2.5631862611621834 1.7007011141928254 8.926170026938623 0.8950652880226522 -0.4903448540808458 1.5604544448682673
Ni 6.271020716339338 2.028389172761771 2.4375576190775767 1.7567437730547424 0.7423229911891925 0.7446326131589757
Ni 4.176256690272544 6.820586818585111 10.536393112878798 -0.01296375924951961 0.21242634295765353 -0.6068515656210387
Ni 8.243671973684712 7.1595794430356925 0.3371548430698235 -1.1283939283506115 -0.5258659298055912 -0.18293296148422689
Ni 7.563052300811134 3.7412158548276357 8.414583837695181 -0.5239733407685686 0.589068787716321 -1.1038298658580024
Ni 3.11812045335175 8.439692965632275 12.410193023859193 -0.08377451141449443 -0.393816899655425 0.5125507007539236
Ni 0.204692036056774 4.853574311180697 10.23077286607879 -0.2996309630996195 -0.5932925959896815 -0.09530256665875199
Ni 8.587960512079842 2.5001946578217358 5.561662364966668 0.13408508674358843 -0.6011717416274421 1.1247033668729016
Ni 3.5911980403983956 2.583133902953321 11.350946178750029 0.7068191418556278 0.12552048500302898 0.6447825363388574
Ni 1.2317826691026317 3.1722885407845838 12.56683930161903 -0.8814109304640111 1.1502835293348512 -0.047922534712891665
Ni 2.9754285028458045 8.396324212086368 8.00043524743152 0.6230549148537786 0.19125613663794158 0.30055373202420493
Ni 5.666916624664604 7.772543138617662 3.561929770504849 -0.2799401695389115 0.41248747948173475 0.07467563443701977
Ni 3.159811114915228 8.342453850650418 3.601688821888552 -0.16033116492431096 0.4679826843355618 0.1029330866208163
Ni 3.3762488926490186 4.3170359767985165 9.170482175580554 -0.1397191451009142 -0.7564496603985618 0.6002206905680824
Ni 7.246109444129681 6.054763378603659 11.241862982292183 -0.007580383450419203 -0.5670038374964816 1.0088535721904173
Ni 0.6557568455339043 -0.026549941322009097 0.1006124407465384 -0.07484378458376788 0.15555971167759658 0.08901776209130477
Ni 4.593127217907705 0.6750124999322881 1.614541015094964 -0.5415730561282027 -2.0489733014839677 -0.6754084887548304
Ni 6.009481961077777 5.457137082861099 0.20053469850030337 -0.3909591184916557 0.8906221646496338 0.9058901465522978
Ni 7.845928085849286 8.633458457603457 11.447959743734248 0.08921008060776893 0.5445761046205847 -0.5959228345236769
Ni 9.204154083627992 4.945418270219046 5.828593569571767 -0.19485002463678702 -0.5441251331260952 0.1340336646803627
Ni 8.009063888141174 -0.22262416306901583 2.474702094888656 -1.0061091766760608 0.9616211215660148 0.028317358887454458
P 8.471396273300327 1.6480126347444997 3.4934906836214394 -0.11753438147375887 0.6533502234032103 0.052366943637490455
P 1.7303383838825086 3.269744183764175 1.5331210747474706 1.2099081829760194 -0.4219985042959636 0.49948564003984947
P 4.695553982835247 1.0068191014581103 8.279712156707353 -0.5167845363296133 -0.23652220756459266 -0.4288054999154679
P 8.611174117836784 1.6067460071765816 12.379162757384096 -0.6471559216670403 -0.7537158064071665 -1.3533636551909143
P 6.391085491082202 7.727342919090931 1.4047326028917608 -0.6601988708939275 -0.1018586226097149 -0.5798328709403499
P 1.7969838971846974 3.196738160528584 5.965842547534703 -0.23686030763030175 0.6715328078495081 0.5462964297458011
P 6.861826380153313 3.8895916652740676 5.984381855140588 0.9165232007861118 1.1426393825260321 0.1536118439226064
P 2.3048052058675594 8.35572521251146 10.268313407685723 0.21082711679133367 0.062454409780479545 -0.6024914888801302
