# total energy = -340892.7133962166 ev
CRYSTAL
PRIMVEC
9.03048381107828 0.00000000000000 0.00000000000000
0.00000000000000 9.03048381107828 0.00000000000000
0.00000000000000 0.00000000000000 13.21702587280913
PRIMCOORD
 96 1
Ni 6.453599036074999 1.8914889885343582 11.29277245018582 0.40183128531946927 0.14048019163665484 0.11205304664421346
Ni 4.571826847974445 0.31775833820112587 5.962675755124372 -0.13644895899007467 -1.225582913398799 -0.2948499967712083
Ni 2.986001670855902 1.7131640274132254 4.8460754127832715 -1.631730566705435 -0.9577901778556988 0.6045383441068298
Ni 3.6131055486669523 4.3712598055629215 5.0909469111504535 -0.0872796963542755 0.025733400210362134 -0.7928035164372474
Ni 4.912456692178077 4.645145344928031 2.75014620738938 1.1052223753301547 -0.04515062839470934 -0.612014854989533
Ni 7.071618247309463 6.203364333453507 2.743854669413328 0.9584146988135752 -1.851227957577257 0.1717959710308009
Ni 4.866970145909422 4.59978522543082 11.198178133695018 0.861466111910968 -0.3770890453777828 -0.04341179132673169
Ni 5.7483814744791815 7.792964252748008 12.503385545869081 -0.7721873828487927 0.8937817933245382 0.08443451359599652
Ni 2.070084864165727 6.350362546707663 0.32213360754144027 -0.9813347979448585 -0.6507498096658857 -0.7027655406115445
Ni 2.6994012104770397 1.5627884132647927 0.4244282174615221 0.7531162251499546 0.07127612183716757 -0.6998985034763946
Ni 0.40122258356305773 8.908111590265875 4.47130672809641 1.9300926903949598 0.6767709163199958 1.1570732985631749
Ni 8.559941292194003 2.2635539464090626 1.4002252583492014 0.8748571885058933 1.4145451117962413 0.7725897604935339
Ni 6.872622509057309 0.8432430862709503 4.780478882419784 -0.05054660259930005 -0.9489083019850367 -0.6289049458766525
Ni 0.9085479320117507 7.278190561364554 2.0883426960589113 0.10260604229870071 -0.3789536093903474 1.2906696185958029
Ni 7.555011007923891 3.7424762577884065 3.890444344989207 0.5681814027443505 0.24757383739306393 0.258580987136845
Ni 7.75479239825573 3.8030527422772176 12.796869943953045 -1.4843315364617597 -0.02927355215313668 -0.4069380104184153
Ni 7.773024944794625 8.835858690385884 6.965108207610106 0.4282164601812174 -0.5369473844307333 -1.1092788047877156
Ni 7.107198352987149 0.6831777631397365 0.5399840926576652 -1.2792492925740033 -0.7131947063646685 -0.9501581152317378
Ni 2.0021575659658404 6.422940543999936 9.16949623108032 -0.22566803845890812 0.29842100195191834 0.07283395324259069
Ni 0.2891235775175284 4.95869276859172 1.5521017388843426 -0.5071660394032427 -0.7519936815097371 -0.4417782580260521
Ni 6.289777031735177 1.8163824558132127 7.056490381057873 0.08814795789184172 1.2007386006616094 -0.1551388220900941
Ni 3.468175316174267 4.243008876417111 0.0314549807351562 0.04251859008850097 -0.15190103187908677 1.040432118327647
Ni 5.932567219505089 5.421902398193552 4.90142866551473 0.5072053772816104 1.0518028220584337 0.4090974799635793
Ni 5.072829051754226 2.96387698585328 9.31036364896783 0.35630964673858634 -0.8558950455810937 -0.21602820137629894
P 0.12869161674912835 5.518925914792805 12.450252889073194 0.4732472751686108 0.7140285151198735 0.24372772417409638
P 4.066273280422696 6.280033139850349 12.435581965295537 0.26196661577962627 -1.1020223803356182 1.2271818824548026
P 2.395715074985949 8.627525432014256 1.2811583311003973 0.4996697310261975 -0.23184228559042006 -0.16006402730585337
P 6.212485121964792 7.7644098633691145 5.8137865585887685 0.00573638826314496 -0.30589571306240865 0.28037031509779453
P 4.972202372168831 1.2726931557038839 12.686005405025826 -0.7110437214599368 -0.5521040375665137 0.5558146536488815
P 4.006654027203386 6.068728852349798 8.317725659075503 -0.054368804558867646 -0.41179559562103274 -0.3032886144568648
P 4.798690658846228 1.0150715174366194 3.7822365743590365 0.02731977086087553 -0.5421178728880792 -0.18769824408335414
P 0.07874942983545478 5.551562082792591 3.675932429687459 0.5250128377766764 1.03376807604391 -0.7028290468596283
Ni 1.6182175220591164 1.266841402282782 2.653595888134673 0.04306032152458391 -0.7693301159056557 -0.35598928728469015
Ni 1.9139839233676361 6.509985376138824 4.900542775066257 -0.09754251173286427 0.3836186189661845 -1.1944825924495688
Ni 6.1051939454275885 5.673157545470266 9.100833851509325 -0.33166845115113847 -0.061058300763901285 1.5238265092325887
Ni 8.494235492978051 2.3375948820566124 10.080625075326255 0.6967473594419226 0.738149062317161 0.44022428327537083
Ni 2.3800200943595993 5.211862378407437 6.938132346777521 -1.4773260516782039 -0.4092977688998435 1.437142794591099
Ni 0.3414877401527135 9.20973877547917 9.243577803904405 1.2321934767367813 -0.5288787484899858 -0.5779320543732112
Ni 1.5104567603708359 0.8751053418198282 11.429475912050998 -0.18173019942537735 2.119358021855118 -0.3902564359976763
Ni 4.193359277174492 7.131860603902315 1.4427046535542354 0.2543057568002588 -0.7002851973918519 -0.4806502525009013
Ni 5.480988852876065 7.894602346504951 7.928774599777776 -0.4856600470106668 -0.0823002408618131 0.6427968733673962
Ni 5.288350575130787 2.820825093964899 4.8630590434299785 0.4454035134834652 0.026030876846122913 0.14651225676334767
Ni 0.7255171858478154 7.585741743868349 6.894000373060046 -0.19149396368036053 -1.068272794688999 0.41177451257511016
Ni 5.184030427722505 4.4872653988460565 7.26539888123957 0.03390462316724484 0.02607638537207767 -0.6035158163795864
Ni 8.118124878417154 7.141324550793233 9.213006907520986 0.6276841860956738 0.35076377721969265 0.4596664511603825
Ni 4.480998243175926 0.3235107563018076 10.629990937473398 0.4048854987647608 0.24121241395141035 -0.6672092407734896
Ni 8.117655293266077 7.186115749818949 4.903595981596618 -1.0368405443216466 -0.8295183553597778 -0.24216732166551197
Ni 7.236740641298418 6.337403802634698 7.1518116514844765 0.36846530826451385 -0.8461932449122974 -1.3535292342345013
Ni 2.5912701989581035 5.423356306065153 2.459503702517794 -0.6874448510940742 -0.8080308749099633 0.601915304661686
Ni 2.4565534435013223 5.236714269479769 11.362690066987575 -1.0003828157152448 -0.29600570764220635 -0.5902782346433898
Ni 1.001507730957461 3.421839904440205 3.617341748558679 0.5100027375210894 0.5443765870152689 0.5788586799525386
Ni 3.59953273170412 2.7283890630723118 2.8513878629130107 0.35463842968375053 0.25972461382298495 -0.8213872416122111
Ni 1.0282289321504234 3.212034677229627 7.97434693564134 -0.18489188498281062 0.9685253048850158 -0.08753680667040409
Ni 3.788378206306091 2.618786082714425 7.099512508331748 -1.1473002783368111 -0.00893509770610074 -0.15307911134758798
Ni 4.0235139402237525 6.627589365032353 6.191409779165152 1.312795761070881 1.6139398183809173 -0.6337499326737794
Ni 0.9106971871262911 7.314384739932109 11.179092206448878 -1.0148586407339169 -0.5831807043666601 0.6376122438426632
P 0.27497822788972964 5.61249075614471 8.060244896353561 0.4261258962007758 0.5010663542634081 -0.829468475958449
P 8.36220079117261 1.7011354231587388 7.941555443322351 0.5268084962245185 0.8173799202250311 -0.16456757160316174
P 1.5893651267189626 3.0938075849625553 10.497239215264198 0.3204607553607771 0.20744354503108148 0.12102645378741737
P 4.0029605593805 6.1840120069389695 3.930069204304719 -0.39454040808501084 0.6343276595541204 -0.3083382610656303
P 6.857559662288177 3.8795680304515914 10.357614391930303 -0.116790818439515 0.8365125272894238 0.08852822404939592
P 6.306817554429033 7.794228520462444 10.294239360550753 0.35079205935446683 0.15268624678454348 -0.2932466568398305
P 2.2699114069159383 8.564077253716942 5.682025480438664 0.6328626449728197 0.38506152206029814 -0.15321229449134258
P 6.9064145789674365 4.110775503970828 1.81231873815967 0.4361100039966812 0.09644902155836937 -0.896878429971991
Ni 5.297471363642071 3.0131382742978934 0.8462944867045773 -0.7220500998727694 -0.4165297678719084 -1.559775930744004
Ni 1.1859282685589077 1.0774721596276877 6.991806832593881 1.5244543726245745 -0.97450414817627 -0.6885445119161562
Ni 6.964029064810998 0.538231275776437 8.982766598803293 -2.214090832053329 -0.15795392294138605 2.71200038585531
Ni 2.535615328071916 1.582023343491562 9.177862974204782 0.8564079806617703 -0.6720156610231975 -0.2613626636470402
Ni 6.363158742074485 2.0522315979411623 2.5899815489377467 1.3936320157926578 -0.420767717212656 1.2244048339302978
Ni 4.326026112837153 6.860359112227283 10.323950554888354 -0.5817275168599013 1.0640633845933418 0.009663748342009162
Ni 8.004078900091395 7.24376635759721 0.311617609302439 0.2267425024700095 -1.1280167475168508 -0.23455094277083477
Ni 7.750322308836832 4.09229913437272 8.181074574015634 -0.7228157743942002 -0.9444795767897218 -0.20949399980220698
Ni 2.9213253467788496 8.110819217124451 12.334247295790057 1.1824665418252989 1.4439672737121003 -0.17567268037738779
Ni 0.24047907110788613 5.000946401704891 10.198045745401188 -0.5884242121537866 -1.070814073053614 0.3495651289259012
Ni 8.592306545683552 2.216712827589226 5.756662428008734 0.10599604181685617 1.4731508372545918 -0.381240348541995
Ni 3.6156611755468475 2.525988832474857 11.408975811061428 -0.37881425559900567 0.09841437281485631 -0.021439915041330818
Ni 1.0284276027912633 3.396139147902465 12.762610998036944 1.2740847176539283 0.24723753709956772 -0.77226991526027
Ni 2.83433469754201 8.29128440287645 7.944648383980882 1.1169525192828893 0.7240252213212692 -0.4524527070207627
Ni 5.524533845154695 7.834847636030523 3.74230829079206 -0.1863065059421501 0.5907757431050987 0.00851009435354018
Ni 3.0682332551962594 8.199886877606435 3.3095828649303707 -0.4176242864876679 0.5105611811277208 1.2925195273203482
Ni 2.9425018309956448 4.146337548681164 9.181431821352959 0.9853176938520063 -0.011031575223813258 -0.1619779564991146
Ni 7.1610019747200555 6.0262584876284375 11.440432597893318 0.4724584607187282 -0.8331297268601201 -0.41236612341252205
Ni 0.5445408747198379 8.889770677922884 0.061235709797052756 0.6843104192301506 -0.26398981685724215 1.324486824255564
Ni 4.829890979941762 0.4939764874809885 1.6299634721745901 -0.6812873161331106 -0.39312424446377453 -0.6182196982486644
Ni 5.914551404574383 5.423347275581478 0.29483987368351194 -0.4242618464088435 0.6220814951969157 0.5994426747514773
Ni 8.066524694700835 8.858642600696747 11.242705642597437 -0.6571999361666035 0.2767152348437105 0.5181731891470238
Ni 0.08586003268078723 5.158979866009333 5.789400640474042 -0.2959918236851354 -1.8547580822177026 0.858302883691638
Ni 8.162256852134629 8.485548167683145 2.570724945550158 -1.6642797042860498 1.5020981164165614 -0.12222175964709917
P 8.661498111597874 1.5868998046758134 3.479104007517195 -1.362898591264543 0.1953976696101409 0.5582962824201547
P 2.047526715946727 3.370582879103518 1.5163762424194966 -0.475631202019755 0.4082042787253486 0.5196798555995372
P 4.565478417951244 0.8626441773973311 8.122047720525373 -0.10305418557971284 0.9917580501607115 1.2755667015160936
P 8.690531116611519 1.6710368210714983 12.500173402826048 -1.2288446148692065 -0.3090913371815709 -0.7958811269213067
P 6.308415950039426 7.7233482541009835 1.5386995980629585 -0.2842053725731686 1.2273826856116992 -0.7910543949566247
P 1.884372967398821 3.3790625032739112 5.832514878681397 -1.2326156518758642 -0.8209655806937602 0.49193071051072695
P 6.876758470580248 3.779239356827457 6.053278597831027 0.4804049692593146 0.42697358891305176 0.09320968868546527
P 2.38294597107015 8.507970858647026 10.099617988590547 0.4403363833732029 -0.5915347327583103 -0.3429820763917448
