# total energy = -340875.00154918036 ev
CRYSTAL
PRIMVEC
9.18253821303294 0.00000000000000 0.00000000000000
0.00000000000000 9.18253821303294 0.00000000000000
0.00000000000000 0.00000000000000 13.43957285996002
PRIMCOORD
 96 1
Ni 4.087533322724011 4.756123095787118 12.216800223475396 -0.9502614735788215 -1.653861080055887 0.2086452786486665
Ni 6.428162254530829 0.0779432189053065 12.286833604162346 1.160116456264873 0.9731491768102724 -0.06561403845538379
Ni 1.639624799664549 0.7515778783361454 3.6522038890218913 -0.6394567532505696 -0.6056513746653504 -0.9878294045302665
Ni 4.362228946478428 1.0391970060475062 5.282410159477518 1.1326501325238043 -0.6819632591542126 -0.14909621544044
Ni 1.8773607080383368 0.23801873054365696 8.286572040680335 -1.5743602563160821 -1.0511505331864157 -0.2740266322679539
Ni 1.1781104406507763 3.3595141638364474 6.143134439038204 1.712934489179276 1.3965995830614142 1.442749085034283
Ni 8.861002232760573 3.171914912848557 12.713970377476246 2.045172696790955 -0.12740870316467737 -2.241431685960127
Ni 8.257268725469736 2.488008666430197 10.02170074488843 0.3052861045028678 1.57024083483107 -1.1522964459998222
Ni 2.5708902542626344 0.8218894899239759 10.584268016148734 -0.0814638610034468 -0.31667454884546753 -0.8198548641280847
Ni 8.216112590230981 6.982998747063442 8.512705812312898 0.22315118557432537 1.5316064102883236 -0.9491684976249589
Ni 3.9819708660741435 3.267229657109658 4.294870439105855 0.45944302229566675 0.9842835961605371 -1.1522496519222867
Ni 5.50200229105116 0.8749397666118046 7.585334672073304 -0.13628517971870074 0.21885692907434565 0.07338519776037039
Ni 0.5762685361843878 5.506262988675163 13.278042666711924 -0.47183265420927123 0.7998617088356095 -0.5188362766523194
Ni 3.0328270100236145 7.9744741032145185 12.015125978267521 -1.2762120484095762 0.5793579881864602 0.6546689422146338
Ni 3.1733565713118512 6.107012171121602 10.570372081419416 -1.2021329099059748 1.3587007511331115 -0.7003474180883552
Ni 5.493756371942637 0.6780468689315576 1.08028886352038 -1.692488819730414 0.4223430321195759 1.036925904946601
Ni 2.4335562161924 5.564195620808428 4.4995556385182764 0.45752369378576685 -0.17955813147472302 0.06424132647757323
Ni 1.400327859833691 3.5066276048583265 3.453956566989186 0.718796368822162 0.08207244112172317 4.213716950562737
Ni 6.786272053320683 6.414434360246595 3.5572132883515812 0.5724772019062269 -0.5182670344124106 -0.8518722975749456
Ni 7.5040985950473775 6.477757142175743 5.9560824673140855 0.1878643373475732 0.04305466509762908 -0.1250553724411524
Ni 8.971688545604822 0.33863455398220865 12.901357511836734 -0.8617525328031351 -0.8391299103076129 -1.7027945725317966
Ni 6.605715808965574 1.7869310739840663 3.409310149063184 -1.9251497445673877 0.096430252505292 -0.1281185847475084
Ni 5.184148738777747 7.447974922896718 0.07411869183548485 -0.04793050513269165 0.9400251405627941 -1.86486226053124
Ni 0.6071595122122078 7.151929898332372 11.422507933204821 -0.16890168020214136 0.7391955013038043 -1.0324910091036992
P 4.300458013468368 0.41250439903836067 12.63936684763527 0.035464768565513116 0.36706379993129684 0.18157490479443567
P 7.8456890080062385 5.566812644133516 1.7213402051731754 1.1006460688133817 1.419235318183059 -1.791569879594992
P 9.238918765979253 8.170236630469088 6.948877354173285 0.24931935932926091 -1.0256179361329498 -0.8146506942193259
P 6.304418372675086 5.318388261547789 7.366753537931563 1.0223899161139554 -1.1164802076321612 1.2570043651328737
P 6.626596900338381 8.601219050690165 9.236924318729395 -0.31693937247107995 -0.05848591205103476 -0.4176391988860033
P 6.47067740539103 1.9494803613549736 5.714049131164364 -0.3705707846432908 -1.368688972694075 1.2722438077904477
P 3.735428903774884 8.514104312847673 6.660423533759292 1.1689654220150707 0.32138429561631104 -0.9817353758173865
P 2.624736656993569 3.805831422488744 13.412962615546489 -1.1284080694179985 0.31906927432988924 1.1258881312096223
Ni 0.7679053491233 5.965518443345175 2.581647597509444 -0.45327263181889677 -0.583290490471647 0.2275536855173952
Ni 5.8325644758927195 7.558762243658778 7.364132841591283 0.7666386851164216 0.5658938922617545 -0.13508241765985124
Ni 6.848548025919796 3.116874780179863 8.147848684613308 -1.1673980775279507 -0.8697401789943021 -0.0739420987051049
Ni 0.7288308952452398 5.969632220361454 6.6940766172123265 -0.03976185327897023 0.48149845943380953 -0.06522477343676508
Ni 2.41163749802754 1.6349325227553562 12.867758605357794 -0.09936182432979017 0.38349752000728793 -0.42714096772885146
Ni 6.382469945528589 3.894204168034875 4.98269487448146 -0.04064682698708484 1.9243341906446279 -0.8087777803783167
Ni 7.599927561435514 7.150947366768215 13.070118786152982 0.8501979951963163 -0.057469297861062314 1.3342824701897473
Ni 7.408324723887137 8.677590219092822 1.5195456687177282 0.24792607852616014 -0.195611842503476 -0.43887239723316673
Ni 8.518410923161591 2.5540035669123298 5.04098195258086 -0.8811191102552052 0.4009640522231675 -0.8788079456235252
Ni 3.0970955933649873 1.7216524114645892 7.1449070932831535 -1.0245061911260096 0.8308599569893368 -0.7141730111175377
Ni 5.046906526087341 2.922976308135796 -0.0003314896211778192 -0.374694062783045 -0.7048429919658635 0.307326017751032
Ni 2.556684868003297 9.035093970375815 1.1661097817611006 2.069118923193908 -1.5327294681491732 -0.5082759846379699
Ni 2.6561960321225224 2.574590817069689 1.8349052436750224 1.6529619652803855 -1.2439326195505802 -0.7234755194653862
Ni 0.4135172329778596 8.25038182198266 2.108911258826934 0.43993580550067457 0.14397149261936493 -0.6709465963287349
Ni 7.445045693280216 2.3040089703315507 0.7256445545652204 -0.5212122330836637 -1.5852378224605344 1.02686980626218
Ni 4.809501189080931 3.3126924026623286 6.744945122875451 -0.15765670341594137 0.5223540599975908 0.4525681495527044
Ni 4.506716181637237 5.830186198555183 6.378851107309582 -1.0531513656665283 -1.0130352143719328 -0.7666201731736604
Ni 4.594675712974143 7.099589431830611 2.210554608265757 -0.35668117114539216 -0.46093323368794814 1.0900001590637616
Ni 0.7392852147386179 0.8061689848974821 5.994640862557515 0.2827971793717323 -0.1270772879671876 0.637375702351825
Ni 8.539025720932898 9.155780067083297 10.138544867703922 0.5773275880199928 -0.38545592928523936 0.552234392496791
Ni 6.920787052230208 8.88248018910226 5.555609947794543 -0.11225050736700022 0.37867181648387044 -0.7384244274657348
Ni 8.400957079824042 0.5631365886152354 3.8627346921141408 1.1650763713733097 -1.9952842966009443 -0.8031154398862168
Ni 0.6079758398388756 4.041234966214909 1.5413707249951645 -1.5015682120550204 -2.106459054405262 -2.582599334850952
Ni 2.7081600145669897 6.478262181764794 7.950393815608516 -0.32656583981725046 -0.06829621327323722 0.2750630439522682
P 1.0839067834855896 7.77359690230355 -0.031769744912770605 0.12107659029906245 0.0028171577338209548 0.6466224177610734
P 1.9809030063319957 8.041745376476255 9.906765671719555 0.07194717976226318 -1.7399261872767713 0.1618532579957922
P 4.932942047183244 2.7159376242383915 2.266960184332488 -0.9367061034918899 -0.5591876838861725 -0.6413717108850955
P 0.6357089410544228 1.7147287778255844 11.023487172940353 1.4917283431464632 -0.7324630676759774 2.082383501513297
P 4.033255340707886 1.8696290110568485 8.985523875583455 0.9424579183740027 -0.082302040634026 1.6266883762958373
P 5.350756707937036 6.1148632410968675 11.482663657783714 1.521703806462631 1.8763100973568654 0.5604007303576671
P 2.098035460840147 7.451253088956565 3.290370571080025 1.6099507518261822 1.4825608177145824 0.6072462299562962
P 2.3806372497977253 2.064583474968934 5.073317341833369 0.6774167774341108 -0.5245634089440837 -0.8758349790381303
Ni 3.804242843417726 -0.03179178300392924 3.217192171133975 0.4525941176946335 -0.16842294079350995 -0.4586511225219908
Ni 5.015309412888645 8.145581515985363 10.689459498264098 0.4780498387635767 0.27862839270602335 1.0904063933632446
Ni 0.9281342091459627 5.348405978213449 9.283760771964287 0.7214073240824479 0.11475681872862172 -0.1677976485046852
Ni 5.127161908056706 6.086755492331623 9.308624330060221 1.092910390732021 -0.4341173990466846 -1.6962490581037948
Ni 8.263035359322911 4.233930525783235 6.677840971805001 -0.9939504298263399 1.5396290234824839 0.34027804719702043
Ni 4.034320515113887 2.444731364917425 11.084878867131724 1.385740271749407 0.3472647629274987 1.4071830150042153
Ni 6.739477839760513 3.9142863786031823 2.2696754608139917 -0.10276005137806174 0.3081845090965854 0.8079136326058086
Ni 9.04191659609701 7.392631766474592 4.28415900854896 0.18287562588373021 0.3719944044636948 1.4166747565447342
Ni 2.8364125225722696 6.304014341003844 0.3021192734399451 0.11295987472919901 0.9907404075294743 -0.6167551978879958
Ni 4.968212175575044 7.514116743986574 4.699980140306694 -0.6652001807632608 0.7252048434516671 1.165353022073464
Ni 1.6863088227689267 2.897641685841347 9.183636214307814 -1.4999435319674037 -1.3611263298554688 -1.034608055446702
Ni 2.1351145492145522 7.672974651088411 5.601197575863778 -0.5291242888418887 0.6885933628762205 -0.37550653138201134
Ni 6.253280818649067 1.5243104876769853 10.047182287790603 -1.5522153447879268 -0.8951138818724004 0.22684380393456416
Ni 7.0692778739495035 4.7817240116830675 12.637243844853653 0.5424932539496271 0.40787054953501367 0.5595520092041266
Ni 3.2333001792633413 4.8920522055459905 1.9502838334284656 0.025298369555472558 -0.8674179586190287 1.9211856177133173
Ni 3.603990055089585 4.059297018427008 9.460894684413221 2.0234849274048763 0.585317548204005 1.1572489049090908
Ni 1.8344690731208413 4.06099578795382 11.293406958689934 -0.10757469915788571 -0.5653189935948909 0.964628540933771
Ni 7.7970307392355656 4.89819532345646 9.324107007352959 -0.2933695555709399 -0.36907903058911273 0.21337816534796156
Ni 4.012805828620269 8.176471573759384 8.650864442293985 -0.6654367222540992 1.2078410160343456 1.6509865867215698
Ni 5.231778563294349 5.255120574846538 0.7641634648953233 0.7469787447936491 -0.17782263684085506 0.6764019630163512
Ni 0.8230070047964784 1.1559713415743298 1.1758506180532178 -2.0719173118746514 2.696134365357331 1.6958042572568923
Ni 7.947284608247551 0.6891320287843516 7.56875100847643 0.21527563948099052 0.04250676301395905 0.7760147270146829
Ni 7.299089252044165 6.852349596644661 10.763243027463211 0.16492366939099984 0.3390241201852613 -0.07919177713981844
Ni 5.928255704211114 4.173022751343554 10.628766595213213 -0.33519703312968724 -1.53832958794477 -0.1797126547747163
P 6.270516442442718 8.593322068024989 3.295302512230568 -0.5681608339190602 0.37266649083005493 0.277865803508386
P 8.854629551400533 2.4105172283936422 2.796573163280245 -0.7599088225917557 -0.6556747577713289 -1.147587984780559
P 6.762461732331373 2.5457760128797724 12.049853418664542 0.036695555648820675 -0.36632435066211105 -0.631861714512131
P 2.9330311872269235 4.3753507932558 7.6031019648161555 -1.4545188239757014 0.5494699423777764 -2.734419119870142
P 4.880932152048862 5.402105460336659 4.067406117719588 -1.104555174059801 -0.20414224857199037 -0.35399745366564195
P 9.041154445444441 2.5970604875135153 7.798487089759632 0.32896313640483343 -0.4845256762959074 0.570641691359385
P 9.067095115245753 5.112368839366473 11.21444998759133 -1.2180305549728379 -0.4469595451166754 -0.11531500522493689
P 9.186027347198525 5.07842099644419 4.772983153777274 0.26144751005136263 -0.07694077632211266 0.1280072559806247
