# total energy = -340872.2529947803 ev
CRYSTAL
PRIMVEC
9.21223064389315 0.00000000000000 0.00000000000000

0.00000000000000 9.21223064389315 0.00000000000000

0.00000000000000 0.00000000000000 13.48303073388266

PRIMCOORD
 96 1
Ni 1.843155470780273 9.120007004114875 10.42125024352777 0.35285511253108265 0.39651552953351066 0.2017387813368203
Ni 4.85877917245474 7.574517129939169 9.851646046841212 -0.34224159868129445 -0.052228104066781016 1.270658722691515
Ni 8.232224336846299 7.301420552465091 5.029629201998821 1.1112994347621699 1.431856092270863 0.14673414296616663
Ni 4.3505864689176335 5.622205938245071 4.0246715670398565 0.1699620031458557 1.159298588349268 -0.49174713374501117
Ni 7.08356050993905 8.480374193733438 8.682519092001998 -1.0458843996914697 -0.6511748130184463 0.5875960598255363
Ni 3.1006341660674774 7.767365966263755 11.881678064818852 2.3891050529111113 1.3022575805437184 1.226788503671126
Ni 3.3393599110046766 6.107045637096841 7.79503858589858 0.8705212801347008 1.0490067473705353 -0.6428531805266283
Ni 4.294474772058311 0.8132032116350157 3.143366019137852 -0.5693959918777419 0.0753852589095347 0.07004250654038259
Ni 8.476698513706042 7.617142121134061 0.3974838005365172 3.0161747453512375 0.4189334922173947 -0.6734523934697241
Ni 7.747495184762268 1.6915313665925227 8.902089845758834 -1.273062189926685 -1.1182321573262612 0.4322368941945201
Ni 1.2023895560294886 6.5927604978598975 12.130709532178729 -1.5050057769816598 -1.1618023286077281 0.8963212719169401
Ni 1.6555576059233956 2.3818130210607356 12.35497299622618 -0.8811170533726761 -1.8745293513073584 -0.5975408297430741
Ni 1.899147408641209 1.1534357623814115 3.4844331979806946 0.7949655570855728 -0.9685893253537319 -0.4860174303500856
Ni 4.6131074056111325 0.19128920567637028 0.160274388763502 -0.8841730665901805 1.5275877760472338 -0.6980305970297205
Ni 5.728616414426655 3.863931960628777 4.117947244767653 2.030688130021535 -1.4662474252665394 1.0993360917527066
Ni 4.865633072054696 4.539888596443855 13.282012663165798 0.7504510196129657 0.6817406016204453 2.1134275153032958
Ni 4.309914470619503 4.437356469363858 6.395257642613405 -0.550409166362594 -0.15747801174623202 -0.5949255036074141
Ni 0.8055469267458707 2.2279503448262252 1.7647934732438335 -0.3238111598902488 0.6549967578676977 -1.1712907277141376
Ni 3.0727855928273313 0.020456679370515724 5.915517834646763 0.14031769791686158 2.0251728566302605 1.1968238389882355
Ni 4.08020749948386 2.8237237251063263 12.18771573663369 -0.33398141555503125 -1.4774072985381006 -1.1450708747856602
Ni 1.417780720742642 1.0567257650691202 8.311722202421278 -0.8095485971060704 -2.028497293017803 0.19709408347595733
Ni 6.660995490248176 0.28392555459739705 3.7081033943746013 -0.32318406782921116 -1.6214764930775944 -0.03759492753463848
Ni 6.199186368009162 1.7754271510774757 12.543586970123211 0.5944387937789827 -0.8950750582146648 1.414110595361984
Ni 4.376739991719081 4.895222756886768 11.002382625643609 0.03424683699801198 -0.10928062610539889 -1.4838227151461414
P 2.9364814282023874 1.5200733298258657 1.1826090543883236 0.10408519794738848 -0.46828350340543223 0.09786081430423146
P 5.108716202087029 7.934945653928825 3.1014208905645693 -0.9301225367371013 -0.8347585207127945 -0.3573532575117523
P 6.002984279729758 4.351931454591818 1.5881664538622091 0.9633977538504633 -1.1783226948602545 1.7460017040468896
P 1.1445091108863066 7.376638415682357 1.5761527838779303 0.35404964705981606 -0.9879085945076339 0.6094242114442214
P 6.986141170867086 7.8085538494780105 6.5154726464166774 -3.2073051550445926 -0.2106635946302759 1.6610480847226297
P 3.3274484967805584 4.369812394273963 9.135077292227198 -1.340088278238247 0.8291974816852493 0.5368635664676754
P 7.464440185960833 1.8238097864255565 6.766997864612183 0.3847856426910921 0.15222807620120235 0.8200302133636845
P 6.615183067250078 6.384858876661212 10.11025086428748 1.0143819582078142 -0.30224063280832464 -0.5074786855476551
Ni 6.961747184118853 4.469018906091077 9.018610745073419 -0.006274777265118226 0.3013492313423068 0.7995734881712294
Ni 1.2400399426760247 5.440623659999446 8.247543355186039 -1.0378623007179415 -0.9316693123989309 0.8438149744881082
Ni 6.550743513887582 3.9449811658443927 6.701591948255015 1.668734911843926 -2.708940001762431 1.3608257678959146
Ni 3.1609927012541923 5.7046646147493885 1.8132111150683656 -0.37311849076580905 -0.20085946405566055 -0.9953935900307698
Ni 9.106078111379478 3.407705450160696 8.967995065016964 1.6563990159863926 -0.06059113131949565 -0.6681304670361784
Ni 5.312278862651871 0.7237109970331627 9.369317602063298 -0.6219125737192193 0.9152548755966494 0.44003762118586154
Ni 0.31967730050797727 5.254702421119977 1.219621033451154 0.09842517144813372 0.45173382657686717 0.029433217659452535
Ni 8.638041521224375 9.068096084429719 6.948412480260066 1.463123277815261 1.118359169822429 -0.6135981403162529
Ni 2.675130444800815 3.709387579326529 0.38602747050626707 -0.5782966368014815 0.2474895052093738 1.5099916602320254
Ni 5.627650366556327 6.466912215017145 12.104377292102766 -0.5723411905489949 2.3886391690182864 -0.660457780982269
Ni 7.868755776743759 0.3171135367194451 11.073101235413805 -1.438374095895039 0.2133848502161809 0.3214832830880205
Ni 1.4746846694374431 9.066428670682955 0.23879667911316643 0.6088968781858416 1.0134476193190032 -0.29789006914911276
Ni 3.0407730913355984 2.5070348722196205 5.075012335048856 0.9517082333276772 0.494543979763858 0.19841974426591635
Ni 1.8468403630383141 5.611317081622559 3.7957024955788863 -1.5224342568707523 -0.4221800241791504 -0.46964644519122983
Ni 8.12337261954376 3.636850475226988 2.676893665746288 -0.7822902756107495 -0.25250752724925546 0.454116982097063
Ni 0.6101278780713008 2.168835460776599 6.230549407240415 -1.0260398541617168 -1.3493164817047343 0.771146086068472
Ni 9.042688752310525 5.258700529219952 10.307130051519298 -0.29152016106702694 0.23207779863999387 -0.298056419523648
Ni 8.005925891049342 6.544866110736007 11.909534007843513 -0.6486337917641475 0.8378723837514279 -0.4810852831557908
Ni 6.911733983946589 5.945278866968834 0.5665613969044796 0.5719179869686473 -0.7921447998073261 -0.33656614556307196
Ni 8.367699400713184 6.617292668067806 7.72085525618276 0.10071628147515557 -0.6645854299973974 0.08100543330978952
Ni 3.158625157978401 8.254490298315513 1.6977431737165156 -1.0819603194784204 0.7603497667839163 1.8054255545311617
Ni 4.853316319682194 7.238003556704202 0.8029619748268548 1.2992105661872786 -1.8679869222031507 -0.26115543273224057
Ni 4.969648368268555 3.211199358270004 8.473114034762032 0.20354138176319783 -1.0772739697463445 0.18815410067385013
Ni 2.1447915387928806 3.0396676236581857 7.725749714324503 1.9956416799403633 1.7052376347556504 -0.26793080378286116
P 0.3258448889248737 8.55652249224586 12.016764372552514 -0.5937829053625386 0.06556698726753225 -0.4058974849690429
P 8.823732454337717 4.483657140586146 12.446482689339309 2.627415462724378 1.7866451885998649 0.9288863503371552
P 8.806956982332984 6.257619546991051 3.4295973950657186 0.8336802000469513 -1.5436445723997803 -2.944596776002935
P 6.4019199278159435 8.527872454939589 12.727293588755598 0.7580203473197913 -0.14739337381672035 0.6146006134388383
P 0.7315487628660163 1.849511909925394 10.288024806384419 0.2920114988811487 -0.3292454435319427 -0.1799304272124772
P 1.4431051427860302 7.600035008826104 8.518780904515936 -0.30617082110066624 0.9386565423500415 -0.8686312622008395
P 8.879899424580909 4.511975537589192 7.083121086537279 -1.4361292657249203 -0.325449209714304 -0.3925904834474916
P 1.097222730984993 9.22752294797387 4.995800048623873 -1.448297782766654 -0.6596229437857996 1.0551588830148604
Ni 6.376954782767715 5.691933311997856 5.590334383882208 -1.1523383549813508 3.4050749244313363 -0.7128208679650175
Ni 4.305916362519529 3.3360342957417943 2.485448773372015 -1.961398956707409 -0.14546684621796885 -0.5963576080682503
Ni 2.86248879166092 7.799774593673228 4.198332248153758 0.5938132443798418 -0.08384007454510721 -1.233012887314283
Ni 7.773980347866939 3.292690750556585 0.4686851311925183 -0.39490859005770695 0.10272482726475211 -0.1944543318602651
Ni 6.947007615086688 8.20949776384483 1.7431668405813896 -2.3330089812484918 1.0879412196522036 -0.1396324989243789
Ni 4.8929749726093625 7.658090486351544 5.936443416557115 -0.7471214410191004 -1.0514166423636087 -0.5675432549397194
Ni 5.6619198645561095 6.366563386600038 7.988359088432196 1.118495438289977 -0.32450047264778953 -0.5795940154566662
Ni 1.9791372073326383 4.46615390236045 11.21364763225082 -0.13775507939600792 -1.3088802280665588 0.5537973661085365
Ni 0.8003779441309035 3.1213340483270238 4.263442451907217 -0.17499982268007924 0.9500773825924733 -1.7193200809906457
Ni 7.716118327185048 2.0498871386870294 4.701951079175571 0.8425013978830072 1.7299294810753756 -0.4835257742764833
Ni 9.010197214825245 8.654577475232335 2.940824073728489 0.8408049840171907 -0.25518404564015407 0.14195780462344584
Ni 8.560142898889385 0.9823462148405584 0.30641445204822243 -1.0083864027460119 -0.5192365974145315 -1.0329586927687373
Ni 2.4379431423813482 6.3945501432998615 10.04112320674969 0.7063501726390093 1.0553391173464663 0.005441739840861596
Ni 6.5367317110763805 6.135916767938595 2.9500059040124627 0.48051398403335305 -0.43250506025424224 0.7041079135720518
Ni 6.819989378952007 4.357431156286944 11.938684269273812 -1.6423032000149587 -0.6393410536083117 -1.9125330842446415
Ni 3.41119688557519 8.535214602763736 8.297888195661528 -0.18813327473824373 -0.4184879200395438 -0.2667154433185213
Ni 1.2640654401984532 7.287196868349052 6.16641017259695 0.17678211139148264 0.2411172831344428 0.7752439102869294
Ni 8.16220217171287 4.663056120168882 4.738624969373726 1.35835750886108 -0.4328051079931643 1.1768219419450119
Ni 9.046696072641144 7.868184618443763 9.903609476241044 0.03981121845966692 -1.2363452941216255 -0.0512467139901182
Ni 1.517954516777492 4.661268947423731 6.0294086421121715 0.117714615805365 -0.9877090769023182 -0.9093778479905822
Ni 2.9178266611460537 2.304421071411225 9.962449835817447 0.3611302080556813 -0.2683802326154539 0.1044585221264072
Ni 5.554661863155176 0.5588028562551739 6.764059163036394 0.49880764013621837 0.4516489801725448 0.34153223131909566
Ni 8.441037968878849 2.5894935487239374 11.61958181195809 -0.06514944011413941 -0.32220370619381283 -0.7715525774782711
Ni 5.900378454804601 1.8121010412756307 1.6419502200375138 1.5622441897788384 0.16396490502215633 -0.46601707596875874
P 3.755706675010107 1.3487995376721105 7.776526608417246 -0.799592771444939 1.0023386538900352 0.10362291359898929
P 3.18219925619922 5.760472307997421 12.781481771856223 0.10951768181686945 0.05756751400182344 0.18837213022192717
P 3.063462815414487 6.086483938296971 5.590091180993177 0.28187698155030816 0.8936804918599834 0.556093618341881
P 5.484289633257235 1.6609191241588455 4.822071197003199 -1.2719414460586802 1.2551146043093289 0.2063821936461026
P 8.017192449128304 1.3682373443332778 2.375939302801418 -0.06316017759825251 0.8168307325897803 -0.05916185507213682
P 2.1397708730912997 3.695090197365329 2.6601476728796194 0.2474743357007222 1.0915759881913139 0.03778313228604461
P 3.5466995861340096 0.8395243970342041 11.631285029769629 0.1636867116601052 -1.0047940574090632 -0.167137389212867
P 6.2877803901231175 2.4129411484105385 10.609392551215771 0.31991748126279745 0.8489906051517765 -1.7301289986806911
