# total energy = -340867.00912491465 ev
CRYSTAL
PRIMVEC
9.31924366357901 0.00000000000000 0.00000000000000
0.00000000000000 9.31924366357901 0.00000000000000
0.00000000000000 0.00000000000000 13.63965510523688
PRIMCOORD
 96 1
Ni 8.766267554143075 2.1795567134673313 8.48797071301894 0.42594463342790506 0.18805357054024388 -2.8731424767166907
Ni 7.81533194678448 8.831148127432282 11.189413450144917 0.6408551762599931 -0.32213017264340005 0.20871161311022762
Ni 1.4328989237616203 6.3218113440159245 8.895019426649782 -0.05365609476255921 -0.48277269816054275 0.2658921760862776
Ni 6.149610362510905 0.9112393577201736 3.61543593130219 0.8102435662905659 -0.41416795250795124 -1.0615876693593396
Ni 4.689489928468077 9.188634308324831 7.302616990660152 0.023980936295629668 -0.4643476586861358 1.0220423029665495
Ni 4.8738338842614946 6.099407597743747 0.14804457041295502 -0.6672022987949542 -0.4530913690460262 1.6083556394249203
Ni 0.3410125541468833 1.2607445384741314 13.470154781903668 0.3710652077812061 0.0011156016616819496 1.810950598114449
Ni 2.5330076619217556 7.417894168981441 0.2164450219744004 -0.0639901296987156 0.1324750619439912 -1.2496798064470027
Ni 3.677298933544133 3.811906086745697 13.183108103051692 1.8386501209122466 1.1395491736364824 -0.3796218391019656
Ni 4.999037920765442 1.981038188301192 0.32529192227650683 0.43608737828886185 0.06304807750042045 -1.1388853148002387
Ni 2.403330388534899 0.5103096593754134 7.161855409047185 -0.42842831908170736 -1.2126217252524407 -1.0870333631259539
Ni 0.3876078397528442 0.6935744467708296 9.755572350864831 0.4668025479845315 -0.677639177857562 1.0633936122198266
Ni 7.265235641108635 8.059952769575109 3.403312242541551 0.23263701357757355 -1.0510507743837576 0.4285031381837007
Ni 2.3854374410032593 5.371332379589125 6.791688533515935 2.2612530915614286 -0.03280573367611124 1.092164513704932
Ni 1.0376138912084818 6.816383596882651 2.8982353383947914 -2.918083560203755 0.8118867583209437 -1.1364060000218106
Ni 0.9738236694094856 4.356513357996471 2.2222267337085384 -0.41496705137047885 -0.05372114367253973 -0.035405633192803536
Ni 5.537746110876879 4.777976145558139 9.616966310274817 -0.3220751510357485 -1.0081866280303797 0.20634388420899946
Ni 7.5513643744752645 1.916809962057411 13.562740534212047 -2.573109650192962 -0.9782376470767733 1.1518804415083257
Ni 2.7163265009295072 2.95514143501586 1.5094872626674918 -0.24997576196633725 -0.27212350170797006 -0.3730097331020866
Ni 0.6832869338644874 1.2966236259724713 5.7903339549408415 -1.0929828958411694 -0.38680961509965645 0.12777225715168317
Ni 8.385250283397719 0.19345538016929537 1.7692676988694327 -0.9268088989828359 -0.6795731616554812 -0.019054188417973638
Ni 9.112160596114084 8.142092581837542 13.187527288322267 0.4282827946427785 0.13010913281497594 0.05769915448368127
Ni 3.964676445540576 0.9134815677077321 2.138275260508527 -0.7638858049616327 -0.23195721390172958 0.6154189955750756
Ni 1.539222172922285 8.965494341815676 1.668197707273135 0.21119581298466208 0.24509246573210697 -0.72267102128622
P 4.5553487374418165 6.471925718411575 6.9357780169849175 0.31336811018005384 0.6616487159665766 -0.017461390009557026
P 7.9451024126063965 0.0745148072257729 8.235282221125113 -0.747218628718597 0.8038309778960027 -0.7751521219040716
P 7.577989453172084 4.610453424293163 5.594263595043745 0.019238022294005574 -3.2336430216081733 0.22881506872832205
P 1.406236568090776 4.810593497829356 5.02306199859972 0.5658460697429545 0.4091185630095019 -1.5398473101408772
P 2.633813918926832 5.373000524176709 0.6166953474675686 -0.2760254078655375 -0.9191380127011397 0.9404586285557868
P 5.509732464897656 6.040901387012688 3.212275206062079 -0.182035389370622 1.0108217516603817 0.17124678339555024
P 4.749869307143855 3.4964403748219817 8.197228022192458 -0.4725183674223861 -0.6227576953283339 -1.1911751253428904
P 8.678116829819233 0.6106965504227164 4.039356203376406 -1.209386763254911 -0.5002590278707643 0.5859904059013133
Ni 5.445476280923357 3.055621518498223 4.485768469652504 -0.46184726086178524 -0.6988019279781061 -0.554676169169064
Ni 8.609387408962023 5.672530329705058 3.9655384755648866 0.7511868693377256 -0.9521388931071924 -0.8912286878853811
Ni 9.085563475147783 7.8814519794599915 9.140956126623466 -0.7361762548615063 -1.6865768251213535 0.11194274631859431
Ni 0.6350067290326304 8.195352058474688 4.86866077219128 0.07161807855761859 0.43875386937743144 0.32949046966321316
Ni 2.618446486385335 1.8624042184690193 9.13330409578064 0.49490290576517343 0.02149570797993072 0.006720349442969072
Ni 7.083957716428711 4.526645467443145 7.895355358846685 1.1207857769860503 -0.6581003364936859 -1.089303390107053
Ni 4.063544299896391 6.856885029159997 9.173022711603476 0.8183888211055196 0.22018747496031113 -0.2939179718752422
Ni 3.6147761288619606 4.753485173624206 4.659046755706823 0.36155649695982245 -0.698853607151648 0.025634412738652624
Ni 5.210184020882295 1.940303774936194 9.559966089294338 -0.2782573825198498 -0.26726925893946235 -0.48357333968496713
Ni 1.57676940500821 0.7487080232770447 11.771171885632608 -0.6758311781145457 0.1592998954463192 -0.3067238653906589
Ni 7.169238113752687 6.544448071375752 5.526965609989066 -0.8101672045266757 1.4409449419460088 -0.8342425003083246
Ni 0.6593495249948159 5.756627183103764 13.271697763744669 0.604338826501514 0.021591353017530557 0.6186917527890764
Ni 6.88946510445719 7.4626544955410585 7.541528844878967 -0.3001217866931089 0.011281486451090247 0.7873980291509601
Ni 0.5818320575113897 4.390742939394238 7.800737079529635 -1.342756054878397 -1.247687201497006 1.0911484137355918
Ni 6.191938366515441 8.733081728017988 9.425301156783037 -0.9796422407337838 1.7805421610259204 -0.6550641207705236
Ni 8.209275008272744 4.2980817012134604 0.8227941453015388 0.6869859091797845 -0.6295510641010835 2.663167423513007
Ni 6.740944320701075 6.635823253952694 9.865753766837006 1.0186178506660328 -0.6042174704323015 1.292287099594568
Ni 1.0097493531253556 2.8867754646553867 10.612074199927799 -1.144240922685197 -0.22384821164135 -0.1867605627604332
Ni 6.703052276605426 7.562566105169552 0.8510640704771787 0.37779609874713643 0.7431359740087912 0.34715806214630535
Ni 5.295436460475753 4.435074580752577 6.316483532503509 0.22088835768207765 0.9259257250469344 0.7029074655060474
Ni 5.488232970129171 8.073381799467345 5.331577418716614 -1.0457180493169345 0.0010958041673400484 -0.6275597447026676
Ni 2.299467419659835 8.495310549204314 8.939143248877935 -1.1029814018147779 0.024399511890287013 0.5227929473072223
Ni 2.844503376111888 8.34534528270476 11.274348103534818 3.6271508746636116 -0.2089054742885886 0.884683944788328
Ni 4.663135107832932 8.56198973649019 13.32202820214786 -0.02430643795584846 0.8564933412867249 -0.8109912430898678
P 9.067139330736298 2.181131665619856 1.9301336844980284 0.9015678650278601 1.893874845713506 -0.929903735858076
P 5.927644620683513 0.22449032489318402 1.34320027309142 0.5081746831734151 0.09827990411952106 0.3935613320011932
P 2.7020866968522443 1.2701849321457725 0.01699177668460338 0.4175512671578874 -0.5000895921724355 0.4627281208048418
P 3.4807001725402427 2.925422367475027 3.418302245721052 0.83073423004475 -1.1014130288863935 1.3498795532970558
P 6.125333733177613 7.449355935057906 12.035604488192774 0.5985980673629948 1.04869230145391 0.2846470880962775
P 4.064504181977515 9.266394076139415 9.75051200164104 1.5292047428253663 1.172371362372826 -0.13883699960627702
P 2.562782644923625 3.9721225211019195 11.361382382486633 0.8223809729840481 1.0426329826337075 -0.6247284459014596
P 1.3684843126477177 7.6803613430861795 7.047500835832995 1.2388446635047117 1.429746502127028 0.3300761669633541
Ni 5.977008653535125 3.1417220092507328 11.459410573002552 -0.18760182771480594 0.5618017244702518 1.5511210832824835
Ni 2.9324863540526223 5.877469813646874 2.799252857343852 2.3292076052245303 -0.7824674246185621 -1.244488234943734
Ni 0.25935081907631125 3.1938818151541635 4.472196855334625 -0.2012268746974083 0.04969762433544345 -0.5012625294346142
Ni 7.6140642447840525 3.0438419947065607 3.2692073965649637 -0.5570726944256987 0.3052951033639323 -0.4018888780302821
Ni 7.520172866460475 9.274650925885785 5.890830813061516 0.7618340646389267 -0.40727636759444047 -0.04921554249270234
Ni 3.0905314046719328 4.688231830594758 9.148730239556224 0.012983042523229255 -1.2687183111356923 0.7355363072846623
Ni 9.044419015068517 5.99174237751821 11.180930142781346 0.3513674722419626 0.4581009064454755 -1.2335744162447078
Ni 5.0719889589308975 5.637126523625527 11.643532730800526 -0.5186958944197132 -0.3048199634997267 -0.8635201662265192
Ni 0.2517025159308859 6.149237592770662 6.227116646902124 -2.1484965910922864 0.21180336466167393 -0.35897125273114955
Ni 1.284741590502242 3.5104099208375694 13.157520256157095 -0.1909486326998518 -0.21933104049728677 -0.06530782006887463
Ni 8.043234046725233 3.522469021934414 10.012952149939611 -1.4745813990535315 1.665043836145584 0.026409600341780325
Ni 8.3114325555862 3.5447792908879268 12.317303785120973 1.083751092830256 2.1568737594123886 -0.8203683134293935
Ni 3.453217723440865 2.002668152478763 11.550850990284035 1.4259888348568086 -0.1751263209556145 -0.18277278175727876
Ni 3.438847449954517 0.5147577343008569 4.573853959271804 0.8358962338616637 -0.5736025737599219 0.39735730870851566
Ni 3.120157279777705 7.042431167365697 5.294668554810854 -0.4941436590016458 1.1229557880541756 0.037200777420013355
Ni 4.293505952651984 7.7614108038584035 1.8840723915449646 0.6903106026776434 -0.127142079766852 1.4272820997469355
Ni 7.623737619543345 2.3770594410913097 5.847429232205082 1.4519680325293898 2.2534737047263254 -3.1978200983722926
Ni 3.1971715081118033 2.3378813413918236 6.063508939834046 1.4972161057339117 2.0276969086036947 -1.0889166961915957
Ni 5.762656733652187 0.6940842093906112 11.470458536178988 -0.31647580257110014 -0.39018315955757965 0.8179301363015462
Ni 1.4199731330187118 1.0867449429724423 3.5212267667750554 -0.031332748675010555 0.9775465345470196 -0.8951444780000196
Ni 2.4597118117465757 6.116266109246214 11.268659637298716 -0.29453709351647983 -0.9108063529069927 0.002376727762292681
Ni 7.519809415963738 5.8980467033082595 12.992480181362135 -1.3016397444540615 0.31374529101381454 -1.1721373919851492
Ni 6.597549120873296 1.7082173346612184 7.498591362349136 -2.3318450428473776 -1.0894597131792592 2.7860160181108276
Ni 5.15306637743364 4.308146484200008 1.9590773909791566 -0.1542931862603472 -0.7806979914229651 0.20736898303940418
P 0.8623235804812033 7.984597366585089 11.245936525857884 -2.1676631367184087 -0.7911965769614439 -0.695778310660434
P 2.694118743654561 8.112410791270733 3.4148653087160166 0.18423548234573434 1.096569327640847 -0.3065827118271043
P 8.294163997369466 1.7138182000083622 11.265918847783583 -0.3686239453295651 -0.9835225496247965 0.2176341124108381
P 6.24019340938983 4.017758856551106 13.625647291726668 -0.8395366588277283 -0.3424331458668103 -0.5844983947368191
P 8.749054911387379 6.7052143410988325 1.1246901067560762 -0.25087076297678085 -0.2661947949283609 1.8563881616219575
P 1.5168839462382535 2.552354411440341 7.298975030297982 -0.6851645397003296 0.0826149438887545 1.1522599363349317
P 8.536427051553062 5.54271326766561 9.134640475299408 0.3384463933049204 0.41432633246268646 -0.17156945684229163
P 5.449390363195902 1.0458986986853713 5.611190137023805 -0.2307822197570219 0.26242555769391585 0.8560251434010547
