# total energy = -340888.408153513 ev
CRYSTAL
PRIMVEC
9.07541567973283 0.00000000000000 0.00000000000000

0.00000000000000 9.07541567973283 0.00000000000000

0.00000000000000 0.00000000000000 13.28278820436604

PRIMCOORD
 96 1
Ni 6.547631004619169 2.1389120952260665 11.669354493972467 -0.4594329949933378 0.531780238407497 1.2960218840466518
Ni 4.745961352424818 0.803899404722955 6.325024673513049 -0.023613268543565786 0.28539270801305044 -0.5438135154229473
Ni 2.8927614905551677 1.890064199964236 4.944305467513687 -0.45618723436253045 0.9002244636260883 0.548031667269353
Ni 3.5660030446838467 4.788715635232202 4.567751954346447 0.6538500458577643 -0.11861990122845377 0.3443900124828649
Ni 3.6707605667483003 3.3011914934130604 2.7713342451494696 -0.12400327702755418 -1.583735526883395 -0.48413461150507586
Ni 4.7259591364818165 5.3567821981796495 2.3554369903506056 1.6052134942515128 -0.8576140851547294 0.6289586819327233
Ni 5.236469413807437 3.438765718222473 0.6218256946897155 0.3538133626792939 -0.6371093360643156 -0.06804013139837314
Ni 5.695794347249879 8.141174151268679 12.39735710572368 -0.5929673514397789 0.05958814397627803 0.7821151834854658
Ni 2.6972407372538956 5.512398349166324 11.548919191489896 -1.4323322605763331 -0.5521814277716683 -0.9125050807656543
Ni 0.7328806476266045 7.234912226653393 11.185010454853227 0.9673153437373149 0.6755504136493333 0.13978830777595277
Ni 0.7359245420128487 0.19342614738491784 5.1788659360245815 -0.8076806906593961 0.6044856364920235 -1.1696053695919146
Ni 8.58621438058486 2.381007881294797 1.554710350915161 1.0785569502238264 1.1240839881213478 -0.4317913220166693
Ni 1.5102943595146898 1.3480894568153936 2.818062652440266 0.6342520691211786 0.6838028834661126 0.0905830496958956
Ni 1.8292135384860968 6.755330965631651 0.3639613740470451 0.3586452368502985 0.738352950797851 0.4762546945363668
Ni 7.43746642703081 3.9544489824299034 4.297565941967926 1.925212479484523 -1.7350300355267345 -1.5867200634330156
Ni 7.963559192910937 4.017559422387992 12.95766509588997 -2.015610666863122 0.6471489796885048 0.03667370127194975
Ni 8.13788885082795 0.23149933083504295 7.368680222167662 -1.8480762993221527 0.7335033360150335 0.05148351259127263
Ni 7.092301146195902 0.6586147068349703 0.48348913497140467 -0.09089672428157249 0.13300702318806126 0.5109900411350231
Ni 2.3255933937503497 6.612538376862517 9.396138046171227 -3.090790730194916 -0.5222550725258811 -1.7564064443199816
Ni 0.17455200559877526 5.19955969863494 1.6691949034005344 0.46040692887083284 -1.2822744525535723 -0.8871938556943753
Ni 6.43968801168539 2.2163616918039097 7.391313401087921 1.779525032615316 1.2412476165192494 -0.30211310609152486
Ni 3.144758555023995 4.77302424169071 0.4938913763116348 0.778354173781137 -1.402780257950829 0.05769709760115225
Ni 6.035233040852467 5.561106104595582 4.724807466244446 -1.943439286905195 2.17194402348195 0.8532036147918596
Ni 5.577305721409672 3.2096750026829257 9.69403130232197 -0.3284921103056859 0.42068235658770126 -0.08128336956152452
P 0.2765424334522391 5.7448560438868395 12.602390709638135 -0.5141776948343855 -0.36384400744241857 0.47002645423846795
P 4.10862214233902 6.446676081683625 12.779862276429677 0.8338604343785574 1.6648805710948424 0.4505081816998822
P 2.345159989745409 8.910978127191154 1.5002515046315117 0.1984397988705744 -0.2597238424920366 0.33672761084160074
P 6.4567770192265295 8.058560643224608 6.018364565909974 0.38588813172665154 1.5603747406702675 0.10092634060343263
P 5.1150222024874585 1.2861315946362355 13.052318050245287 -1.7614805164087792 0.36618114021602743 -0.6830269245320365
P 4.2571776200028015 6.731771186780457 8.331615394468637 0.027001725399824466 -0.8401503811523273 -0.18717528170034864
P 4.958652792007467 1.4508050103738692 4.047650777833638 -0.3957506263430281 0.40784740960656213 0.44969751287312876
P 0.46817346363501283 5.888102403435079 3.817738737183909 -0.26368179869852004 0.240663740536792 -0.26890268077782725
Ni 1.1325755629867034 7.825658253140568 3.082882371585076 0.16377181517474373 0.4067881151041123 -0.8641907099309827
Ni 1.9865812446801212 6.837871870351065 5.147651951671425 1.5498910675301243 1.1964314886458232 -0.3143132477021426
Ni 6.20656781162738 5.951240069639913 9.300528543013554 0.21917574586634514 2.1045368976818852 2.1025512347104245
Ni 8.598774755750517 2.821764514456214 10.648226849417359 0.835619068940877 -0.05201701649723945 -1.0717342708750381
Ni 3.0990275359056736 5.356255824075887 6.96413903488671 -0.713795573173461 2.034878256843483 0.5087999754622399
Ni 0.4164517626909319 0.4459042088795978 9.599829396121086 0.8358584386451926 0.35802971475348666 0.296760840640676
Ni 1.8110627073218497 1.6432582732083834 11.555640444270017 -0.028751103990763388 -2.155210512777353 -0.7302076959828973
Ni 4.0642615109736 7.5039075445075385 1.5250636908330377 0.4757427878969549 -0.16056564953262023 0.07812219822472352
Ni 5.8032563431578055 8.371735084132531 8.177601961873766 -0.040223880517053306 0.03607720533853141 0.12439485603901804
Ni 7.152271492362575 1.2070030461756993 5.302966798860773 -0.47386716814079677 -0.7262003745957171 -1.43815220969222
Ni 0.5861084891247097 7.801154631068834 7.070747034188358 2.1581389992780573 -1.3985160833578365 0.38311931073226274
Ni 5.324401115382632 4.89456220716651 7.626910282058294 -0.04236123857503027 -1.4507339030119726 -1.9794290747362426
Ni 8.365091879926416 7.458757351986473 9.278505232020414 -0.68149788948202 -0.26287755762966986 -0.18828111317001767
Ni 4.664046651380569 0.7541987988290129 10.691966722356963 -0.02586555491285223 0.7896441448726594 -0.1519982195785834
Ni 7.944836610565016 7.179915208225724 4.633447980203882 1.4553806577553645 1.5885236923006576 1.8872539979628788
Ni 7.628694508761739 6.477468966753771 6.8862755993583225 -1.5583751937417356 -0.4401607770272871 1.7270580730648513
Ni 2.4014457171857395 5.720960474659108 2.66489958628544 -0.6287414237155946 0.051225888054511774 0.01623548802225591
Ni 3.6074141659850767 4.62165538519647 9.372335046182434 0.5992907225546453 -0.3153463169523472 -0.011951001714289096
Ni 0.9610502084845662 3.724859119033339 3.7616054767253577 0.9298551420083276 0.45819757992433996 0.4145690446011118
Ni 0.8594736195816473 -0.15427117439740354 -0.14807085047169666 0.2680776137733705 1.499124121389902 0.9367498122456318
Ni 1.2119400722523745 3.72375191833232 7.880784142469503 0.2504724990970977 0.8394523266440381 1.0131869094584487
Ni 5.277753479290516 3.206108364359151 5.341367604813413 -0.03236941746964103 -0.046350048019449204 -0.07217729349519827
Ni 4.225232157153727 7.568179637660138 6.135240490401237 0.403226365894783 -1.3099297523769955 -0.14249130852941266
Ni 8.336331887946665 7.400910653066018 0.6764606040356581 0.13294351693997752 -0.24116973363893301 -0.705569842829559
P 0.326640542548678 5.804463373430227 8.21252234595066 0.634602767592378 1.4744379314971316 -0.42653393027247194
P 8.627707180626327 2.2185942440371123 8.383989617793072 -0.5729248309666068 -1.0026425582836989 0.3472616776037052
P 1.99179053322426 3.5501845953242053 10.347703537830915 -0.530166356953158 0.3984243165204493 1.1426157283769485
P 4.1402953427206315 6.732606125014014 3.9058174604915354 -0.2738248006697929 0.7813016864452351 0.06129561358568798
P 7.1344019990813745 4.4414993104757325 10.853897547505678 0.46268132672730644 -0.8166754379588387 -1.404963381645077
P 6.540733688776755 8.258110881044342 10.375279188077199 -0.4073424449456855 -0.9416343940314427 -0.03528247735137795
P 2.5747952302198835 9.019955717501295 6.20820229397372 -0.412667970923657 0.02468207612771233 -0.9139212443868906
P 7.0071283709576715 4.106289760534414 1.8324008244385388 -0.4181588188348992 0.537284713165494 0.19982896590861712
Ni 2.851550028396744 1.8450592140924849 0.5911262864000658 0.24513566026521652 0.5097656818096188 -0.07181579639072147
Ni 1.302966490541075 1.3037015992032268 7.464608272412268 0.9182095873495993 -0.3496054952455334 -0.629232247309084
Ni 6.9685760055648105 1.134898869375727 9.573303771457654 0.3481916456171423 -0.40789086124998786 -0.5514772026157921
Ni 2.799656802098161 1.9212473279044129 9.358427879344386 0.4181642181515379 -0.8220415873667585 -0.7108755713131886
Ni 6.563077361939944 1.9577668002068784 2.718309314527796 0.8586877778348825 1.352867432280786 0.560496632505583
Ni 4.016679107076525 7.51797443865983 10.437960360878252 3.5402501589153093 -0.905294421949828 1.3955791122166996
Ni 7.209927607555807 6.4148304484059535 11.656682491195149 1.7758126167607353 0.7032427373582792 -0.15547306550106127
Ni 7.690951859655107 4.280492362633278 8.456446828259189 0.7754046042345097 -0.6513478482612007 0.5294911852630043
Ni 3.2096023993582685 8.723171477134686 12.694799313719992 0.9703538734533222 -0.1485575693281506 -0.7331469811168793
Ni 0.41842203541381096 4.994609588543841 10.160629273811926 -0.12965533310700897 0.6455428115436496 1.0244424277676099
Ni 8.782488393379447 2.7724850078452827 6.187667351136049 0.044871663701709814 0.4921883350474879 -0.6890168235668843
Ni 3.7635929927378426 3.1933755562974313 11.63331783377897 0.15366995085405147 -0.5985551299402013 0.36673521294728456
Ni 1.0879154429070728 3.435226306145445 12.65787235525789 1.1513546509118429 1.9893951848100189 1.045223626179019
Ni 3.101096730658398 8.684065511391315 8.293720089163921 0.6386234587159969 0.6351712385013384 0.0474057429774732
Ni 5.896851104056246 8.295075048710332 3.850627135711967 -0.5379192614256993 0.213303089135652 -0.15707666254275526
Ni 3.4120113930863725 8.9037450209722 3.877524852414265 -0.33190987773798325 -1.1866720952662144 -0.1055908359586375
Ni 3.602141349531863 3.128087016599634 7.189693968515462 0.2870415564703831 -1.188253066600089 0.1326550391652812
Ni 5.28631159618446 4.9903078415579145 11.610232699162722 -1.3563713316689867 -0.2198321485034214 0.1902564917288336
Ni 8.35600738892871 0.09158637143011726 2.663265103939099 -0.9698139417894522 -0.06269557925700815 0.25873448199557375
Ni 4.736904087673858 0.7695144701654048 1.9361518829149347 -0.6268609188634301 -0.572159156445176 -0.8531218537113308
Ni 6.140680294501163 5.8798165490086 0.5458227193556628 0.18335513662331002 0.45401670907377295 -0.05192111434932349
Ni 8.242237979191207 8.892591335221772 11.675729973418909 -1.7112766418608785 0.5839378942476589 -0.8399997145070759
Ni 0.41013981115356496 5.411688462451498 6.038674438441209 -0.0761640460570882 -1.6462295316525581 -0.45575554614175057
Ni 7.557316365208336 6.3013423765514975 2.6977081211563747 -2.074250330883202 -0.8954540388206385 -0.8851765681540305
P 8.786209313768119 2.0050406399741605 3.859951217681041 -1.592101382349587 -1.7062563058281517 0.9260401391376115
P 1.769343021890827 3.58268365852379 1.6571336760918922 0.08071361310098359 -1.0817546312255175 -0.022813141239773613
P 4.724162204196556 1.650663812323396 8.365101862883556 -0.6248757701126013 -1.2852481904699156 1.4532368719394844
P 8.562745355889486 1.8610500963481866 12.571840138164031 0.9999567839214197 -1.403023484309887 0.8244411979471866
P 6.45391826331816 7.967906316974775 1.668650378465607 -0.17176743178571063 -0.08969910442904552 -0.12751283284270942
P 2.107919551013114 3.90973440985678 5.782356568613733 -1.4351442761038318 -1.7080229108102711 0.20719594779664963
P 7.047368763648808 4.350872210472646 6.4045089782644045 -0.45074909406609476 -0.3915263038490354 -1.4008077076054908
P 2.40119160554944 8.776298959952438 10.462453999992846 -1.7264543780425814 1.4462542699740641 0.42890680138002263
