# total energy = -381165.9318560233 ev
CRYSTAL
PRIMVEC
9.27549791329017 0.00000000000000 0.00000000000000
0.00000000000000 9.27549791329017 0.00000000000000
0.00000000000000 0.00000000000000 13.57562877779702
PRIMCOORD
 96 1
Ni 7.352807856997057 1.9764138412780865 4.466531661503513 -0.3462851726230488 -0.1285168486271916 0.008159910102973043
Ni 6.523058906676413 4.750780225685582 2.9136695237776387 -1.0436046025183576 0.10835914273239404 0.750849797713281
Ni 2.5911010946512434 0.15286206236668617 11.471256976987672 0.14172486267703333 -1.119975622379929 2.371617694759625
Ni 6.153736402261762 3.0329579935336493 6.516546579520939 -0.19607078441776557 1.1082249096019043 0.1721127309402713
Ni 8.475801677023336 8.677840574759477 4.560935825188157 0.02819985947298369 0.24087045723095937 0.8672536651270225
Ni 2.9619169542461137 1.7740317501154355 4.620682090544313 -0.41753121255322934 0.6786303381262377 1.1271104336524975
Ni 0.285571250198834 8.026997430128608 11.261921044964089 0.21099141028333984 1.0282970256270096 1.0395139773887516
Ni 4.771752126694737 2.8012560531494417 11.82625996756865 -1.0673921918562586 0.514258684583966 0.5914177475644717
Ni 6.039350960755835 8.182844347756129 10.177879678846677 -0.8216944884399849 0.9461366527771705 1.6217174054438073
Ni 0.8774287203106753 1.447228128595948 8.425102732429819 0.4551235689847065 0.6315716940755381 0.3096819195777183
Ni 8.030549945867886 6.2875911140986105 4.53128669578711 -0.8063537443178564 1.5609141581135053 -0.5003127639268351
Ni 2.9153632297149548 4.166841248228104 9.018412745530618 0.1053524946955863 0.06310798420407841 0.066158340994628
Ni 8.424554550497204 4.493255298831013 10.520976640177171 -0.12229503608719584 0.22688031359945443 0.4415556004922847
Ni 9.21786006912171 8.624311675721955 7.41656948544338 -2.408704058088962 0.5358356394237933 0.48628456796854314
Ni 2.9778800863278274 5.495380104239732 3.202585518560242 0.4830825160914777 0.5876670222727879 0.015851879430592054
Ni 1.178053176236072 7.678776683695305 5.903470480152776 0.6073045939980574 -0.5805622929072066 -1.5672791810995848
Ni 1.4363294184297573 3.7501209489630396 10.901148694618541 -0.22064050333732968 0.6432933533878405 -0.36956599752786035
Ni 1.0288382396884037 6.565114014670888 3.9472364123534676 -0.12244621695307945 -0.27229319451661493 -0.9975607728854174
Ni 4.756753646406456 3.7401312376021996 4.582426226536282 2.176079385806562 0.43610948977604896 -0.7204153924828238
Ni 3.5613089113945477 7.766467241917574 13.482948319861565 -1.1084156854564717 1.1364815904547523 -0.1928893013659904
Ni 5.504535020779332 0.9814404448379913 0.4794504923322538 -0.25382598895036285 -0.6097384002505305 0.0507152669666804
Ni 0.8800147291569171 1.3902951217873705 11.047086597717941 -1.8383922392651693 1.2721772162185703 0.49904983805401143
Ni 3.6296322297640464 4.087183271285767 6.387713622308749 -2.487556706721806 -0.47227719794585754 1.2780583575896955
Ni 3.67504506803951 8.557036488628015 5.253021544187493 -0.8339442523416154 -0.3869710803781852 1.100816018732343
P 8.375440788514242 2.0377434341451957 12.591966241853155 1.4021014867162498 0.1909864279163227 0.04259675162460406
Ni 2.3058517042334876 9.169330663513616 3.453355100211376 -1.6957991150505698 -0.31686789580319624 -1.0172556802111834
P 3.366328667646892 5.989411679449646 5.441328994664035 -0.9145136265552508 0.8655914469332512 -0.1127223047970962
Ni 7.615415756763178 6.593228049150653 11.886468152725893 0.8412209885086867 -0.3054061750204999 0.10069622687049755
P 6.641655424280596 8.446676613260069 8.286713229614032 0.5675100877089387 0.7227396697406262 -3.256966526825462
P 1.3914916610311483 2.6576156909080546 6.661547657320947 1.3071421623295294 0.5121444664544406 -0.19090955193180023
P 7.0217838838813 7.714487351048354 3.1451469971099133 0.06697440913802014 -2.3598878079172065 0.37276136453670644
Ni 6.107562973149168 6.019835312934843 10.058902865823931 -0.1699728017791331 -1.4200354454868513 -1.9944270908069717
Ni 1.932225368740442 3.9552856895298247 4.483880552988485 -0.42664654459093615 -1.304106203716683 -0.9362304494070521
Ni 3.0268825423346235 1.0772841658143733 0.30620366798068477 1.1180884326595453 0.3554339290018524 0.43540037952416627
Ni 7.676541288673984 4.935835686558494 8.347708904552645 -1.0437442134200154 -0.5271005735436406 -0.07140544832618025
Ni 4.995913087193743 4.512455579719536 8.067439529018488 1.5895590755437075 1.1813082598511397 0.7373916153258462
Ni 8.666403885708487 4.31637155170824 3.999421291728791 0.6190501645697596 -1.7783572375594598 1.1720507458086136
Ni 4.005531062270467 5.494730819378767 11.243824548339207 -0.1890817546944421 -0.9722981416638867 0.9335598445534246
Ni 7.437047929958202 1.2147470463785828 7.0170116401532105 -0.22802522583717502 -2.9429605259510927 -0.4765364874428438
Ni 3.5579419056155457 1.8289241473609814 7.878833407505901 -1.0007142309127346 2.6851714385879237 0.03028116748204462
Ni 5.1001047563825255 7.029510373726779 4.197366912191452 0.8707218261812809 -0.9646030870124742 0.5682248543877763
Ni 8.409416937738715 0.570371706512723 9.762818766176279 -0.8652983411728645 -1.8470494007195353 -0.05218593797493593
Ni 9.282918412190357 8.342800311003753 2.3465071395776835 0.9839290410345958 -0.41891060939925917 0.13668524337059684
Ni 0.4893854782548128 4.004622063465117 8.538297199990776 1.1446705540234479 -0.30783509617696664 -0.49952780613169456
Ni 7.893346779248062 2.4993942457890066 8.7267261594913 -0.20753996139962963 1.9594624018063282 0.4158725939038838
Ni 2.0532706178202624 6.380763491647024 10.212565403669206 -0.2966086313335279 -1.9264684633788114 1.0664110588899118
Ni 3.3777560811998684 8.92084934722248 9.378003397429213 1.969608746211711 1.0256318200900207 -0.0434362168067639
Ni 6.6050543091182226 3.067314438176688 -0.000293105737235427 1.9732280881318531 -0.9863841874433078 0.0779537909676593
Ni 5.751448777906138 1.0937481747888314 9.169889048494046 0.07263546407853942 1.2506768802529493 0.2223669991101332
Ni 4.795580881092136 6.171536082950204 2.022918405669772 0.5379603990762799 -2.2813323788098065 -1.9253528617171294
Ni 7.415222683131778 6.54173048417815 6.760134143060003 0.8160565734279172 2.619609593526714 1.1902243313938468
Ni 7.929038895605084 3.0018386976974196 2.2411597433363832 0.37024579720370426 -0.5320221792149741 -0.8990954922279677
Ni 8.584593993226953 4.457934202394541 13.11942021905612 0.19894322086955415 0.2989305945984852 0.14864344417373757
Ni 4.113961634051548 8.178252976239307 2.2839503983233516 0.33580792724080877 1.6632314655271936 -0.6186202761211926
Ni 3.9453238046630257 6.601084395968325 9.17181742453111 3.147560173775476 -0.11976841301060018 0.017905933746143354
Ni 1.0055289131797762 6.220186070032476 0.33522299106659476 0.7403553259398604 -0.9764910966993119 -0.6187619439053794
P 4.7881697581791265 1.5518464706933652 5.7100179109279905 0.6106447141148837 -0.4692921471756047 0.1418199934940009
Ni 2.310109157821812 9.188299056951795 7.329509661086047 -0.09006934328427069 0.022204304011181116 -1.0664475685548023
P 2.3488529130253686 7.44487645028183 1.5011790627930957 -2.35885422444637 -0.5988050411674785 2.068574363544347
Ni 3.1552647103433435 1.97661790223439 10.263637223282876 0.042269193081856234 0.9681504380441003 -0.7261844337561172
P 1.71970515824873 2.047529084549733 2.088366319654999 1.5052598019739947 0.0852230709355629 0.7815994201913119
P 2.6921298190173277 3.4472110103270484 12.547424372841185 2.0160582959235023 0.08213003383253596 0.5476274898523987
P 0.3297356064416429 6.110271418569191 7.83498441819556 -1.3428205895677454 1.2263622147669848 1.1407033418455839
Ni 4.997879492772664 6.722463562976642 6.923394038700136 -0.2559594903535979 0.2178750247770506 -0.5958565000621158
Ni 8.23374828085575 5.949350803528134 1.9483062996469311 -0.19545371965905692 0.40086146520703225 -0.134842019514271
Ni 7.090617354641556 2.3796753929251566 10.979452448850864 -0.4164444072469538 -0.5649742086609625 -0.24783608991551512
Ni 7.436778940515802 8.940151658589155 12.063629237239278 0.1537864218272577 1.3549860212856857 0.5320795148154708
Ni 4.694505779235983 0.5951892289983909 3.579553815987652 0.9499670822668543 1.3603120614842894 0.11518259341213068
Ni 8.07520219330622 0.9235752504790289 0.756626489278816 0.1326576102684425 -0.5248094635166187 0.11126577485622774
Ni 5.414395731081425 7.518802169451653 12.415849578416124 2.570330030565296 -1.2486261683715076 -1.1086892508328323
Ni 1.355947952642346 8.114539580382656 9.186180533205446 -2.6259180522432453 2.1114040571153634 -0.4152241616866075
Ni 6.26366032922306 4.668339599339111 11.717315533197606 0.14549409991147846 -1.091536650312946 2.022518963947181
Ni 6.203425245121577 8.971781106816143 5.387827922120556 -0.08894062899646618 0.053676920698165626 0.03265558125149214
Ni 0.9230437644428393 0.8118426014050432 5.462860208203422 -0.41887307129310436 0.45218171274756314 0.3951140212002937
Ni 3.673152866444699 3.0834352537246366 2.7779263205451836 -3.5044742868672807 0.1196444858382262 -1.7444191900511183
Ni 0.948586630873185 9.393296838554331 13.40875732144855 -0.3857786027319808 -0.8711560855052223 -0.40692438357166044
Ni 2.595980006606491 4.613641987551854 0.9429508382800126 -0.11649976956165742 -0.11183784530961384 -0.34802889478703286
Ni 4.677123495958161 3.9814425939286826 0.45869563797662116 -0.5866288108162606 0.15858795698095912 0.14053444191335795
Ni 5.682077328261082 2.5967220464475935 2.472515707644677 1.5253863975205406 -1.1351780411519805 -0.8052538263854584
Ni 0.653858609035148 4.332510918252217 2.14523439797748 1.0755140496324445 -0.5797675649200531 -0.37628737541209395
Ni 5.185550644085461 0.5640346862697089 11.515242316118815 -0.7801300347346372 -0.035478395412267924 0.6927307820833618
Ni 8.608645359576682 3.003257848893528 6.197654957807205 0.6138853325393686 1.1142775435538874 0.07516311559639959
Ni 6.911730099947809 0.36560024706172206 2.691137340729853 -0.20660845072429576 2.074675848456395 -0.2896062318737658
Ni 2.4034392188364597 6.721025860784506 7.678566129890392 0.27184736522844793 -0.7048604754673602 -2.049738204674451
Ni 6.225751368840744 7.807177402700051 0.9256381212372935 0.8570044765951885 0.15000510040795456 0.8383326112172982
Ni 1.160225669053588 5.105568024712642 6.208203054148474 -0.3505940844110478 -0.1425033927142707 -0.15364166871927734
Ni 8.082928683151698 7.257019789008758 9.401557597085402 1.3883543123334863 -0.5458498291266858 -0.675471737892598
Ni 9.325585703053743 1.2483800021765465 3.053335335120121 -0.05861318165751841 0.43491906901237354 0.8238405882487102
P 6.506112571805239 5.125974120342956 5.571831541518705 -1.2469384962564396 -1.8246329806975476 -0.6265724410887338
Ni 4.638889893145362 9.31900009946396 7.370167879079646 2.342372938961895 -2.326865587354915 -0.9377116619382689
P 6.352853518123562 5.407828678487668 0.5565558522211986 0.7278808476219336 0.1768240203730116 -0.24159705098433876
Ni 1.15257338319222 2.4728106684815154 0.11175954801822581 -1.8754570053279507 1.1572216512155813 -1.1083650347241945
P 5.508931606837863 3.4681365338461343 9.777018626085574 0.08550589228330435 -0.6140629957678134 0.9930747120896058
P 0.5507586659625865 5.955463356719214 11.504530971012501 -1.8525973271209577 -1.7570816160101352 2.2280848323395754
P 3.756790032034947 7.728762342491561 11.207387609491677 -0.15755411639980604 -0.9851078918340452 -0.9135854583140266
Ni 8.669167984116593 7.629709299202411 0.36110905092345014 -1.8471417033230253 1.219388868772945 -2.114112457185462
