# total energy = -340867.37444019207 ev
CRYSTAL
PRIMVEC
9.26335937831691 0.00000000000000 0.00000000000000

0.00000000000000 9.26335937831691 0.00000000000000

0.00000000000000 0.00000000000000 13.55786280488249

PRIMCOORD
 96 1
Ni 8.305305554055485 6.985749296839532 6.628153988283075 1.678924450782418 0.08220896669958744 -0.5560992747688358
Ni 5.259123982156712 2.9061936873994254 3.003703511869643 -0.2615812074157495 -0.08000758817289447 1.0573834014700048
Ni 4.735364388623257 3.914621498567233 12.99351666525239 0.5162507753133302 2.07430355271864 -0.48024144709825684
Ni 4.004939250940753 2.1637539728114383 0.9573339007302051 0.1626253602751264 0.004229207589999167 0.7258563609927371
Ni 8.149616275681971 6.1112140798057615 11.841301139634094 0.3381466026763144 -0.9918151286508919 -0.25446979318194884
Ni 3.0793258711800497 0.03606225743488338 13.010680743547047 1.704421052391626 -1.014929603181168 0.573407169919664
Ni 6.891735464138112 3.429110315244061 12.15340316473603 -0.02246732786458066 -0.3711145729619028 -1.7053885585112176
Ni 4.752094015370598 4.251854090891129 4.894198577451212 -0.8385933210778526 0.3631801486061745 -0.28339727484957644
Ni 9.084428171145948 4.8817254642644485 5.634444728576424 0.8986494058294846 -0.5720604260837825 0.42396282711118594
Ni 5.231000423571481 1.633472974388654 7.782864136538722 -1.5482684443250367 0.42158352824573203 -1.7308813034656834
Ni 2.3358116069227983 5.23083368310556 8.59152297449513 -0.6807916074436147 -0.8863394781138801 1.9081478106927525
Ni 4.1674463616985635 9.06705010925336 5.170806189038315 0.5859999189830102 1.0938239036852258 -0.0028762931065305303
Ni 2.0000426253553134 4.618340371624829 4.573053661080863 0.17573747217705218 -0.5824386839943131 0.8569545971938597
Ni 1.4969403228775453 8.462097172175916 3.6254129394361607 3.1180901893408173 -0.24291345580291718 -2.1562474386822994
Ni 1.5461843404793538 1.842973106458349 0.5937952208996088 -0.11541193581411738 1.1867980793211172 -0.526409718124203
Ni 1.7380007198022747 6.463916482023379 12.857625964535075 0.5558408789011265 -0.3939061169351216 0.5909233244265564
Ni 5.836268314862331 3.8492777626448937 6.977499349120163 1.0833744262171279 0.03921420830561634 -0.1826622243213435
Ni 5.631742606692593 6.846150473427333 2.949269234098103 0.07977798866059164 2.329562674571104 0.27878780110202306
Ni 7.780184246717013 6.329421769540185 1.731447819491605 0.7793106241571354 1.318751978654316 0.6719174448824363
Ni 1.3889573444756869 2.0811896521032147 7.1568833740368785 1.396059651397544 0.7465051475913401 -2.755769303411144
Ni 6.284485213974652 0.033453695479151765 3.814450310993742 0.0791858636025475 0.4186604410616661 -0.44840527642426653
Ni 2.0076293165546892 0.7956558606223867 5.278198165122078 -2.0634213585884984 0.3868078153274435 -2.0180254469522017
Ni 0.8470730622966901 8.872778939737724 13.175693592973271 -1.7441273698423123 -1.3457423912002309 1.3094268445986479
Ni 8.948636588372263 0.22356839571376314 4.25840235952219 -1.8233960229666533 0.5691525084083682 0.080636480006145
P 5.383790270509824 1.662448762021923 5.117333447953582 0.12516901520088122 1.151342823837301 -0.29021866864678403
P 0.8677831544999187 7.847260230813081 5.448200259823009 -0.6513558186810007 0.49501063498763126 1.4751598972648208
P 3.6783780484357584 8.197757953536863 2.8851945783886013 0.5693090885908905 -1.0823117892805683 1.9049694129647705
P 6.261493556396081 4.950783807233124 3.4284850384968597 1.1007491700501495 -1.318340345038194 -0.0939185418270318
P 3.0558988357182413 3.659054681107434 2.8296209074332728 0.44743468498088107 -1.5755288227028865 1.2493458201463516
P 7.065377132675715 0.9931803218953138 8.05334310966733 3.1018708992684774 -0.3848123821639695 1.6305717705106433
P 7.43978358554063 7.572471942976353 4.483409354922477 -0.09433737453200527 -0.1417487739364333 -0.2251365914354703
P 6.061858901893339 1.7389177923648365 1.4960149132916876 0.9176010072313229 -1.800745118336357 -1.1430664427611217
Ni 7.776219528971796 1.169406467654682 13.071433558641045 0.04431244876413014 0.822442679459919 0.4691903314904178
Ni 3.9835501545068595 6.872597363994143 4.790589757271997 0.0961659431003118 -0.8724349522176459 1.1381548643921173
Ni 6.634871776387821 1.3945338867248007 10.874246269740734 1.8713517249103255 -0.6541282392198153 -2.1019984475307476
Ni 0.14489931755662286 6.525110233016146 3.8631774331511974 -0.8214993417100432 -0.6802629886336542 -0.1897201596093894
Ni 8.541206259895901 4.369971184277258 2.777951742388245 0.6953630774998864 0.2249324458444642 -0.8019648712215414
Ni 8.062929760121829 4.832740820720738 9.787895080832818 0.7555307481287181 1.0487558077019938 0.7497599070832119
Ni 4.678144618734926 8.865914790557337 1.1956838387478066 0.28485791855550296 0.5463974741000397 -0.4691075419686243
Ni 8.869453393778535 0.008235126344621455 11.34061008956072 -0.8145568489539391 0.4734203104113654 -0.9328018833414774
Ni 7.582800588504196 3.505690505897588 4.56681664131952 -2.1742611016509 0.5265079342649642 0.055555882888433356
Ni 3.7763751256008313 7.203012123933741 9.118503438028613 -0.03788751907439281 -0.65054232164077 -1.7209887269423199
Ni 0.05888439553976963 4.897260117672693 0.4617145398285733 0.35167600462131693 0.9098475885381492 0.0027904182609435817
Ni 4.657672594863594 2.8359403710916533 10.568082984233328 -0.5281552400604 0.40191895993726906 0.13140445458763178
Ni 3.5147593345718113 5.366949483451868 10.858179899513386 -1.7409155477732339 0.19467956049719376 0.749100162012026
Ni 1.8123113874474415 2.9801986641904046 10.028683134996546 1.2410455278107722 -0.37420478185145234 1.6435512134894468
Ni 4.852277245311072 0.064550792373296 9.448596759403353 1.0739683024118793 0.09960813601264136 0.316913404329151
Ni 4.811740785373992 7.647755263339389 11.238681642743614 -0.7081370893361031 -0.7701693239774995 0.11202270762691029
Ni 6.000702204337443 6.922869614469127 0.40485140927012697 -1.234746582175938 -0.9020165225295046 -0.39177441530409945
Ni 4.94205772284996 5.056552842781929 1.5539479618397893 -1.0153121833315675 -0.16907754365837332 0.3941855958487534
Ni 0.958637255372149 7.242798251774179 10.759221285661505 0.13659422631868734 -0.17182245339336213 0.7704524024355569
Ni 6.553669169484612 8.43318622805717 12.325521010682305 0.6802853572311574 1.7884259346493716 -1.4940235669385429
Ni 1.0307802969603514 2.509731176236935 2.9309250038390995 0.7031080115526278 0.0684525363454434 1.057117806513444
Ni 8.492629204157774 8.6458266389017 9.158701785354243 -2.037002502275337 -0.8423337619568911 -1.095725748693629
Ni 7.536650532881133 1.5980591520990166 5.731315381260614 -2.1371294869059256 -0.8297998911559386 1.2082163970958932
Ni 0.20963908245796192 6.366808687343214 8.627450913221356 -1.5500296499905177 -1.5946516595752667 0.29173896194605237
P 0.11255074083215427 2.390956384346343 5.113673494726631 1.8276576264564846 0.044730510138155224 -0.4330676176259316
P 8.538779259780839 3.1155363423624176 13.385433646046707 1.192963584701881 -0.6140833074827875 0.17512117874929195
P 7.95200103348871 4.764145645712952 7.4442559353709825 -1.0092142979639458 0.2097423683675872 0.6192519961679206
P 1.5201543010773446 7.909380317727627 8.80454410940351 1.5171573247425292 1.7647815557575544 -0.22926192645775356
P 3.359070056198299 2.4804219076718255 12.457655419236806 -2.574953131159604 -0.6101387210127428 -0.8338529781793896
P 7.019847722120243 7.044525311076454 10.204040377661284 0.2437904590912317 1.274144110136954 2.5791810531980226
P 3.9952868306358087 6.4677515127395475 13.044223367274688 -0.07334585988200272 -0.5387119325303238 -0.20846787253053775
P 1.960840089145597 4.158544273490261 6.7558151206713 0.34440466777088424 0.4223507454290597 -0.6788218853117536
Ni 3.077074874890125 5.874081347189378 2.950665222332225 -0.9265877841109654 0.9793594193860424 -1.52917594646996
Ni 4.056693638890584 5.470662053254323 6.901751934460315 -0.04019431283069852 0.5404194021397338 0.468295073369658
Ni 3.4968162077669387 2.281954436430527 6.025669736437172 1.4216840368338677 0.9227416708919979 0.03807238139168927
Ni 1.9666111619382844 7.880960331647426 1.4632865388392893 2.537977068155887 1.3739425077835303 -1.7060436755967134
Ni 1.7529332548613632 6.694916870837581 6.911961082654249 0.9305382841182812 -0.20846735830990548 -1.0920693828879644
Ni 3.150264676069938 1.0311786214067167 2.912038867065855 -0.359516069491026 0.2548847692321804 0.27578089595489924
Ni 1.654500799813053 1.171185032624499 11.789849663530687 -0.9844579169548723 2.503753628196643 -1.59822575007977
Ni 7.042663375873676 9.009098533986823 1.1646312059779078 0.6159208749121586 -0.3445008270291164 1.0470809911027321
Ni 5.792786106693993 5.243978389835615 10.985068467742847 1.4149652300527955 0.21443643140914684 0.19625796072790713
Ni 5.108381337605503 1.3784712218411408 12.4578721818425 0.9572026807833451 -1.3612813673760944 1.1205322662143475
Ni 6.870781745587455 4.375770047147599 0.7258212481512593 1.1125754732611162 -0.9063804559251551 -0.12526928822417135
Ni 0.001877682913447434 0.2546506712331589 6.651148424869412 0.05075923283073839 -0.7036116906619237 0.905104417426209
Ni 2.8258618362626904 8.902347582360932 10.524398834834042 -0.8121839778463884 -0.05095078001625419 -0.2353644398110656
Ni 3.658684146738722 3.261119295829314 8.357364706523581 -0.27506715771732626 1.9101591846958261 -1.42587982008277
Ni 2.8686400291304768 9.14168499447115 7.125104493904304 0.3057435037552606 -0.9815777671935997 2.449797485695161
Ni 0.9848896153953856 0.832193328385143 8.852918297574767 0.4746536685978341 -0.7775270498941512 2.5858849475807593
Ni 1.519811556786286 3.7665096480338778 12.462699318330895 -0.3326459845730594 -0.021344270003730983 -0.8044608981705177
Ni 6.3351187354591305 6.009984090273677 5.8018975468206175 -0.6370913383421867 0.02341503648983064 -0.8630761367105652
Ni 2.712394949203896 4.309083124138679 0.9213411184894552 -1.099442278313268 0.9964068617866323 -1.3314642840146618
Ni 6.5706674336492705 6.534938657146228 8.315674032027964 -1.169521294518541 -0.6608748139150297 -1.7495999629211092
Ni 6.661818888352392 3.302230084037897 9.144547372469448 -0.6900946300120954 -1.7230006151660262 -0.15574097445046728
Ni 6.913189404086529 8.78125695066589 6.551484869381056 -2.164596067757311 -1.0293408935104917 -0.3125157894820876
Ni 8.020976006224426 1.7607052132450947 2.6802538717259066 -0.5474673101254507 -0.17015252189010696 -0.934466415528094
Ni 0.313861137017395 3.396280970176189 8.49348606488542 -2.5669873393453084 2.297546269565508 -0.4412002740353949
P 0.6824492739576123 0.3724139042971675 1.7849872567627059 -1.2006126166067066 0.6968257780883419 1.5268110457822093
P 4.8376133476693 7.7272534121465215 7.088159438335965 -0.19326725353069943 -0.2263403819355844 -0.7931657848726726
P 8.862524401083622 2.1388447998747826 10.256767418328984 -0.05405127331844885 -0.9397166081834396 0.10919577970107645
P 8.16938428425275 7.554491762734609 13.31643736758479 1.1675461730700407 0.45988910869414995 2.050778473013507
P 0.961740480710111 4.9657070789329945 10.628347620296548 0.06304113552188498 0.8695476033675218 0.009093477660835953
P 4.834019164292793 4.901030304874337 9.074630316101283 -0.20446877867347368 0.3105987749650328 -0.23522122936498197
P 0.9983863297757156 6.213879890016605 1.857156235756718 -0.9549359962363554 -2.6146224247247685 0.7962133134497449
P 3.162770211013964 1.3851037870410832 8.902879299180032 -0.013281033379622286 -2.0773780778789064 0.9876738527890087
