# total energy = -340861.5639053664 ev
CRYSTAL
PRIMVEC
9.29845502907738 0.00000000000000 0.00000000000000

0.00000000000000 9.29845502907738 0.00000000000000

0.00000000000000 0.00000000000000 13.60922883729589

PRIMCOORD
 96 1
Ni 7.3250995123219225 6.1016181308990225 5.359490787888464 -0.8433076958343864 -0.17652602951661858 1.1162269539707743
Ni 5.303141222079627 6.303143541333655 0.973935031125368 0.6627265224117878 0.7832135587559672 1.20220361524291
Ni 0.3223095484830219 2.8083193124840906 3.781800579016222 0.37249448402856494 -0.985199423106587 -1.2671609939509014
Ni 7.481676192352779 0.8826428021009033 5.780301657386444 -1.0925267821403573 1.2646410557425252 0.15784542238797977
Ni 3.323518796448086 8.4565912806119 10.719431620988251 -1.5751220741827712 -1.1376889804992922 -0.6996732748394661
Ni 0.5447248674251266 3.7337666213166316 10.287311040942049 -1.5239910598349107 0.267054828935811 -0.3384373944438559
Ni 3.3145736829502725 7.5572075405261065 4.878703955217668 0.6789656099784693 -0.6319221354364214 0.4004107508228588
Ni 2.2217541880879534 4.7166876791408425 3.786291732674688 -0.8045907388801626 -0.7089032780781662 0.09980533962511198
Ni 0.8760929705542714 1.0736739764714687 1.4915576924048837 -1.09879461742694 -0.5235781622126788 -0.8008621250756659
Ni 6.148314970801331 7.719874708437493 3.3730339979940407 1.3880493794985578 2.184539343648457 -2.5071983922121337
Ni 5.231756984737927 5.978097457609046 9.891990025530927 -0.460051345303627 -2.3586562495029506 -0.869987776228734
Ni 9.250298082129445 8.907259488406638 10.62369008135183 0.5849894754406247 0.7334606557025563 -1.8086972833038977
Ni 2.2630672226729702 8.721067229903287 6.995823561518149 1.2067452118670057 0.5172504202224383 -1.8682684579993116
Ni 1.6054619037619715 8.494212828649482 3.4911615675119463 -0.16182471875070195 -0.17916783801483982 -1.0658269042516677
Ni 1.6159226653888323 1.1513439692440652 10.069073517732342 -0.1373645288258086 -1.503982220813152 1.0533315999981343
Ni 7.730995660353693 4.791921476761228 10.1658211501759 -1.199142202708767 0.3505115519995705 -0.5182328387403655
Ni 8.486318440541744 0.33366203192323063 13.55579879246902 0.4006902297364906 -1.5766220557670654 -0.04711032322424145
Ni 8.300795670782515 2.670041991459155 7.5490527956845455 -1.8631722744233268 0.9804847912397372 -0.012555725177823536
Ni 1.1355272976642512 3.5315531252283217 6.076003677518121 1.3759096588122304 -0.5715690882696608 0.2900057813050296
Ni 3.6856750131974088 1.4539807769502426 1.2659102305814485 -0.9647144157793579 -1.059259278336479 -1.1738996260918944
Ni 8.54912020412203 8.080943005977621 5.7031653959181865 -4.16706325525994 -1.0658189338318675 -1.2908971612255769
Ni 4.046650326189743 0.43843423084143796 5.6564583277156215 -0.612210773050423 -1.1220530737342482 -1.0417611215517155
Ni 3.3538689528481527 6.7212578589456005 2.573559364976812 -0.1722561984966711 1.4708211606801507 0.16185351510610832
Ni 2.0685714440515883 5.8402943577778625 6.026234628156688 0.11348360844315294 -0.0994142748342804 -0.5972585226159649
P 2.4352188144593763 1.6612712293481229 6.128480436911324 -1.6800523937392742 0.35924816054162 1.9083193032736103
P 7.779273237568505 8.22457623695551 11.91219834658373 -0.4442709425409187 0.47213295905850944 2.5117513016901385
P 8.11321794251703 4.903651709390885 12.208975268087912 4.816664038923046 1.6984116129727522 -2.0874555167195665
P 5.397037018442333 7.822985273486615 10.68799354537899 -1.3631857834876588 2.7210223868482624 -0.6845258776750662
P 7.138935149182911 7.365947624167967 7.5769927926057825 0.4304180958182265 -0.23100127774636345 -0.7356034130771718
P 6.607984082822558 4.957164316646516 2.27964078847183 -0.5990696076827747 0.12468204826213365 -0.18094884117466256
P 2.6223967091693456 7.105032983057102 12.21697751827109 -1.1511111674424692 -1.4916406685286634 0.9462382113520413
P 8.443917486747534 3.196315935065455 5.542317005761658 -2.3674766760080583 -0.4727711068631406 -1.1810686330365079
Ni 5.2370571039622025 7.3940847483305285 6.421010754117736 1.0404501160497759 2.237606398676766 1.562613143082483
Ni 7.109449749077332 1.1100960238425044 11.547906274771574 1.2621306306158457 0.1367348656616097 0.23155509336730443
Ni 4.073197414585022 3.562070653814417 11.187874754939351 -0.17339442586617235 1.5373047462246814 0.14370075545648153
Ni 6.799178909997241 3.1443375728484293 3.686113900262998 0.838922165172181 0.1803171211279346 -0.3974223576184962
Ni 6.202087934790787 4.104523908736929 8.32426125126389 -0.3502333586375194 -0.3423344155054169 -0.4511483863870424
Ni 8.124766623353086 0.8594180515983157 3.492359208487537 -0.19524777429583792 -0.6735958610261238 -1.333793960589103
Ni 3.714323552372839 6.950250904798675 8.108296270402276 -1.195365509275154 -0.4518976058482411 0.5939207164919836
Ni 0.7747742177411451 6.417105403110376 1.2363848471203176 0.5211723809846637 1.0424846299813013 -0.30129009596959727
Ni 3.9049418753511977 -0.053754367079897114 3.2148812298780687 1.558640017367348 -1.4350720281049993 -0.550637223213
Ni 8.692995194924181 7.0454298879209425 3.170787027468524 -1.0116234216260707 -0.9254480140795673 1.7024765270707454
Ni 4.677996808803626 0.8877485836202894 10.726875963884666 1.487813067252457 1.4468782767113082 -0.05489845181009254
Ni 4.949958014192457 2.2322149497148143 12.899452484335157 1.401340183070193 -1.2102917915676834 0.03640964897728568
Ni 4.374030322063989 4.68775088786725 3.046452739385347 1.8649818168282397 0.76461985491418 0.7297636664669431
Ni 1.2804623123112597 0.6980563867379623 12.27756531976839 -0.7471407242928101 -0.1336279446015118 1.7318398107242108
Ni 6.6554619929263374 3.7948295738531623 12.679908528228943 -2.663337373431968 -1.5863171715676423 2.833078775926585
Ni 5.131045421021898 3.3781286213676913 1.2865425718915304 1.2027003523736706 1.1540892762341866 -0.6409917018378574
Ni 5.761796802529895 8.741551725782378 8.493247649043377 -0.7419758922624189 -0.054041503126435964 1.711079438248408
Ni 7.434830577174001 7.563744354236047 9.971372793673893 -0.776298576803689 -1.2571126085759639 -1.9293966927692
Ni 6.204784486676822 6.652114549205743 12.211438428758981 1.192225935204908 -2.5824162723058683 1.1030266532304165
Ni 3.9156722921666622 2.876923311846741 7.30704005344931 0.1745881890639574 1.077794103915873 -0.3816926055880652
Ni 0.3042556686832765 0.5178458241942222 5.31753430023271 4.17839719221552 3.0624723428661964 -0.05748395314908165
Ni 8.085982768468073 3.4965351445289796 1.6810388143637178 0.5228268858689512 -0.9619394241373821 -0.23134914800408546
Ni 4.47112478687082 5.2108261630294255 6.118096852459132 -0.5351581537407945 0.5410428946563456 1.2767758913328462
Ni 7.231566355695614 7.7015474540672315 1.2379107235496223 0.5790240018858093 2.1128173925231226 -0.5260052835969328
P 3.566403733741633 4.7248238270728455 8.642894190727123 0.9203117212942666 1.1573283519967748 0.20047739812589344
P 6.995952810039584 1.6915748934742922 0.3804174520906492 -0.3377712216147667 2.269300130235621 -1.4353715616232894
P 0.085030649575995 8.527389715302496 1.9700580350454169 -1.5337198570869006 -0.22806327816396205 -1.66962991285437
P 4.715711341389002 4.872046261595594 13.154544433063142 0.29047937850733846 -1.4367234476654935 -1.8981469907262987
P 0.3249968019142778 4.915581626872896 2.4445442347576694 -0.3621175116696151 -1.5595432459079077 1.1914234939082706
P 2.0300758412647393 2.4921346561642803 2.2253536199330717 2.5882300507741687 1.559743534844172 3.980386253352248
P 3.964749536492505 3.578454531135777 4.9951178195197246 -0.11379856858041047 -0.9594606235795863 -1.207284115089611
P 3.2193761029184467 1.267258506524466 12.408813008980076 -0.01744724894216995 0.2794305768923446 -0.6633099057190834
Ni 9.393113049086745 6.847865619222348 7.277426334667774 1.3509280491662283 -0.7218276994493181 1.4529967309042202
Ni 8.350114674932623 9.148470703839886 8.133229147047846 -0.03287721034399499 0.16908654251943783 0.1666869319390097
Ni 0.2684687057736761 6.367386565404752 10.261072661245446 -0.3542818176752802 0.6768408503259828 -0.4309593130336771
Ni 9.123643829578802 4.989346268638131 4.537167061941736 0.7097180606699777 0.7574243656070051 0.455492522288351
Ni 5.5835826182273 1.059847174214453 6.909473461208953 1.6206151735185639 1.4736730283066493 1.621449496494401
Ni 0.9344761084233698 5.3225470972043025 12.754895916797672 -0.2513901258153606 -1.1431314916711024 -1.0607965409166118
Ni 1.4979624680569565 3.3362948733150257 0.5540986396882721 0.9832515553515969 2.2106087870419993 -0.27398035241105073
Ni 5.60486678121742 8.876974421190026 12.612883406487839 -0.40750468155516273 0.5167716808138069 1.668079280537798
Ni 4.668503086473826 2.2851882465932394 3.2630574539357844 -1.1030551924755068 0.06009773662284489 2.1437457066708627
Ni 0.8719365612678651 1.4099897873887492 7.926477075181695 1.7312368870328896 -0.3784195912637483 -1.8519429813664106
Ni 1.4153828911608197 4.911388023767373 7.989801411920583 -0.38119252602319514 -0.5335802677307133 1.8781237535268365
Ni 6.051620339550015 3.4898402570877884 5.855152358669917 1.0015763218027138 -0.5634886252543715 0.9889876865044258
Ni 9.008547556318991 2.7940368859428824 13.110518109373487 -1.9002671223930951 -0.40959421709433974 -1.554473287584168
Ni 1.9577803553546544 3.1826472065396896 11.907380817162506 0.12056674054217946 -1.1088005795997162 0.2715259773332872
Ni 2.00795481734447 8.210079945954375 0.6422331134696416 1.567983406255461 1.283093606020758 -0.015438446042257284
Ni 3.058512835234271 5.643743620650226 0.526493387139094 -1.4608648207983872 -0.08895734116701454 -0.9091937570042341
Ni 7.9280113202203015 5.711743220452213 0.4573928502912222 -0.4826860519840074 -0.4304816020663102 1.0411288872843552
Ni 2.248282679573673 5.377510263405526 10.562979540251439 2.204424512608158 -0.06346922419823907 0.13945046482055984
Ni 6.150351332398026 3.0375820135257694 10.638075720741087 0.9964536558641678 -0.03278927861587901 -1.450687108934437
Ni 6.082044883588318 0.8644866392985842 2.045426660260104 -0.31686301070718975 -0.9909710354830418 0.16900555276985732
Ni 2.3855371705728707 1.3362809363521908 4.05246093058141 -1.0268080997863092 1.5360464483375482 -0.6094177836863183
Ni 0.5278769972102735 7.566626875217672 12.561263034779822 -0.9418963894435777 0.7720624272351543 -0.22805942150922015
Ni 2.5621892144725225 2.968485196059809 9.444805018896565 1.163175554806171 1.6744592159222131 -1.0983984104297857
Ni 3.593220477325515 0.8245720923123938 8.605944920970094 -0.3286196370224857 -0.36288035797756857 -0.5779965890625594
P 5.810678779305371 0.38535679126948347 4.343194786324437 1.1003223669253759 0.8494899133856982 -0.12090561193883695
P 1.2115607623956677 7.685563410301388 5.393351110967765 0.2648285107084536 -0.9559474682200053 -0.4755730950883099
P 4.131768381240665 8.490121508546531 1.2017536821398007 0.875884601329143 -0.9703906402285288 -0.33764343778765077
P 5.379537326547441 6.4981972272418025 4.625994270604173 -2.61192662306016 -3.288217000199311 0.11244488276599345
P 8.77213434355193 2.0144730341448525 9.506454703929677 -0.026305984884380504 -1.260307718474494 1.7916763232658692
P 8.194393452741473 5.243584619217364 8.072586484667346 -0.23797873750546109 -0.8918256980394319 0.7545691555463973
P 5.557491154116213 1.9715885607021113 8.938731968298582 -0.7903154599080712 -0.5926493059787277 -1.3185830571766195
P 1.3088783901172043 8.395556223439707 8.696555573259227 -1.655574463202568 0.014295590687065703 3.2894498441651483
