# total energy = -381163.520626591 ev
CRYSTAL
PRIMVEC
9.27746517673996 0.00000000000000 0.00000000000000

0.00000000000000 9.27746517673996 0.00000000000000

0.00000000000000 0.00000000000000 13.57850806671961

PRIMCOORD
 96 1
Ni 2.087290455254644 0.20677057267125523 7.720046716499084 -0.3027697658389173 0.30919263864612556 -0.9796975194517514
Ni 7.7893781399324835 6.634871844700364 2.052309773602367 2.2649883902341443 -0.6091367621107897 -2.3103051118930726
Ni 2.9582217563524287 1.6725599389035615 5.938044234383944 0.2045407695619897 -1.6634592652672837 -1.161410235375632
Ni 8.80517705646597 5.0291745958028935 10.30739067789918 3.0773821700984936 1.9315217095320023 0.9116046804385719
Ni 6.920701262821307 9.005468247605346 0.3718649172246586 2.4397622129463468 0.7231798426018384 0.6863480184854696
Ni 6.382487687779915 4.275909382862073 6.139793843015891 -0.35390052307646147 -0.717482792217061 -0.45142709396972575
Ni 4.603552335582357 7.307729268785518 8.127524110740168 -0.5784128506643716 -0.1449729373006858 -0.5521567451813201
Ni 2.118193691054601 3.0350948310562536 10.195110158154668 -0.7023878455571516 -3.741165673019886 0.4895321283715634
Ni 8.87396018171991 0.8378691992003645 1.529619252941187 1.0819780600902336 -3.476463146366335 0.8934066693733065
Ni 6.918270567000356 4.369583946618351 9.790593202984063 -2.167085409838068 -1.125998945755874 -1.8822642580577713
Ni 7.650707871093712 2.321333063938374 2.6230686957426026 -1.7295952376644081 2.0679750393974516 -1.0995862600903
Ni 5.9484414893707385 1.2893449710401557 10.185998759812085 0.32891557099634966 0.4503271760373277 0.10624209638939122
Ni 2.7130740221050402 8.838742924711013 9.82038407073466 1.5722519517238278 1.3672519831372323 0.8726090159016648
Ni 0.32351076982466653 7.443402916440446 0.4296087869161955 -0.13803790074374936 0.3922307861152277 -0.425130622167042
Ni 3.1422309964774175 3.7672074238758175 0.9012138744915513 0.7286004993967775 -0.166493584981281 0.13098536477234216
Ni 5.566543921532428 3.379613492548714 2.177816247401644 -1.265282031760634 -0.34404291355609135 0.9513714188135486
Ni 6.109767327655171 6.898491011693989 13.455201141806826 -0.06840831337106928 -1.2757651906801448 -0.8038944841440865
Ni 6.689460448557147 5.777346480477673 7.86588011603769 -0.5591910263202821 0.2306770616377253 0.34279130053717743
Ni 3.5188404092854135 2.45997550038225 3.639502190879726 0.882286648200745 0.9670685178338312 0.2615575532666657
Ni 1.6029975065925215 8.638043525113158 4.113690124701467 1.886754946839273 1.1142315208073004 2.911211001453638
Ni 2.8566149600506803 8.794777018239687 1.4010577099287829 -0.869398222273851 0.6945760628222167 0.03853363729882396
Ni 7.606315201233972 1.9153511970497226 6.670686570453037 -0.44406962516339 0.9221875981607408 -1.7127534835167213
Ni 4.104350500720735 6.82573713143483 3.2067279329173144 -2.514587999807986 1.1325233771379528 2.328679243524886
Ni 1.164015696821719 3.968992286874634 5.198137643246895 2.7487576479800016 -3.9784998349628133 -1.4135603792854687
P 7.282902772537939 4.3512145659867345 1.3209087623456535 0.42462848571964285 0.13016235465041454 0.442029969025542
Ni 5.46213533081111 5.825570743368149 2.0464983695480012 0.582950590633725 -0.4238119033556185 -3.0185507017825817
P 1.5173293951014384 0.9166673478845228 0.1379661092478936 -0.44223282906496736 -0.5041897303837382 1.28068602502053
Ni 2.153151179044465 7.044509032785409 8.272407497866311 0.46921527119108225 -0.7117471752848644 -0.3301507289550314
P 6.617374545775501 0.7529627675829457 8.083950641036878 0.14900545549884658 -1.1922537031190499 1.3456704003117148
P 4.173244955554262 4.595221172043371 8.181377011625191 0.39491964580130057 0.6351478414625706 0.9521589477118504
P 7.788051462442422 7.63292297075492 12.183261622788375 0.3994959523180733 0.20187916356942653 0.2845864100616711
Ni 8.26518220815121 3.5206680698836097 4.857316979289668 -0.9984565452268095 -0.4084719305644384 -0.18831325195953377
Ni 3.5475170534936593 6.710640901073299 0.6643555551908037 -0.3660865236196921 -1.3407930176147553 -0.5584261231297996
Ni 1.4884022593391253 6.979882211835995 2.5127299494153608 1.0204942417531393 -1.6809327394616986 -0.696232367478717
Ni 7.123924132889769 6.439442045202891 5.458927183426053 1.8524420324900162 -0.8735353843706761 1.7517265223458087
Ni 1.3241447421256067 6.4762643036508125 11.990420236016265 -0.040861256990736075 -1.1020912859003407 0.790987032053799
Ni 8.119906384257026 5.423383359650372 13.213870156646228 0.4364964408018225 0.16637711400807476 -0.44496282640162077
Ni 1.001613672601293 7.6273750467055725 6.421222031757218 -0.8102643922261722 -0.1746979751689443 -1.0404827690599243
Ni 3.920693804264434 3.7644520167810755 6.182688202283709 1.0542841937193907 0.4374896579530272 -0.9832212163342937
Ni 8.052375716773422 8.783495620841684 9.635404407774283 -0.536998806493959 2.07984505136216 1.0733718064784612
Ni 4.452598703129312 0.6418873905374459 8.48152990790631 0.614819928538496 -1.7403918140592802 -0.4763441689263796
Ni 4.788749091222925 6.391394054146759 5.780601942934055 -0.47593304953089 0.3640921188974826 0.027811365785313392
Ni 1.1571967600721038 2.597523195960201 7.9748884738888846 -0.7588323016981253 -0.34745913832649195 0.5426164097910525
Ni 8.616881627526936 1.1369440540524987 4.108979027992005 1.3822530845317549 0.22205795251014662 -0.5295400362230687
Ni 7.350405607626647 6.776019196684915 10.09229358042142 -1.023289287999773 -0.682363837026741 1.1949063102505486
Ni 5.936269455336051 2.805950723874288 8.096022478449939 -0.972334137108145 0.9240297935758021 0.2751070098163262
Ni 3.1870133198657062 6.6533618323765324 10.386879069976768 -1.6558012345013935 1.156619755965524 1.4511511930550491
Ni 1.8006538976817064 4.966199163617332 9.815631225432853 -0.7997706917837 3.266268778062994 -1.0201268311113916
Ni 8.054778580199478 8.646838561900417 5.2062990291770115 1.0221358911216203 -0.9267330514395782 0.6577882045699059
Ni 6.759319759747083 5.242853168887431 3.6396107372198223 0.39006900257721855 -3.138280805356079 1.1075011440620024
Ni 8.210714211338978 3.7933049328236645 8.137979813756244 1.0314098602243784 0.8297381846800677 -3.330603692695638
Ni 3.540160023776047 1.262607317009692 11.405756249385794 -1.5140799713687858 -0.7925070682427512 -1.4360688448006298
Ni 6.855545626368862 7.992730894510463 7.0697047721386115 -1.1595778101525835 1.1203492036692642 1.3590097977330982
Ni 6.538358376664655 2.178460103470247 0.08461604696399987 0.5028936372801338 0.30630606112694986 -0.2823870884175072
Ni 6.734261326875367 7.593864843250322 3.609900583414424 -1.7972131939236986 1.8310352846794662 0.15205889761318972
Ni 7.434069786685191 0.7581785583865289 11.881615054647815 1.0878481457177651 0.09566200688069977 0.0534087546384435
P 4.356669715386427 4.742324656535749 4.358456555138774 0.1968688548390287 0.29659423315582467 -1.4354201554730375
Ni 2.267848478412481 4.531874641259192 3.1069525081997487 0.6026902351544975 -0.03240078492820872 -0.7160254909452443
P 1.7143363636430404 5.2643026678875815 0.9512082776974372 -0.6895415857221028 1.4413329214130466 -1.0280460859584681
Ni 0.19013793348117358 4.139400763360254 1.982326144381895 -0.9997896622159361 -0.24692926183052955 -0.13563803305300512
P 1.5297148108303311 1.670704445910469 4.226514303892957 0.45158264571098355 0.21784597131132807 -0.756382297495736
P 9.325151135385262 5.241155392798753 6.268300648984999 -2.086095403147246 2.2419770169406354 1.7813798264358678
P 4.114240278373919 8.857149415202493 6.4173932219659715 -0.24118258915473947 -0.41269753861001185 0.3162066080701135
Ni 8.091433844278022 3.3493967891562013 11.770230738018967 -2.1051981854149675 -0.4671295923066471 1.7369851023705762
Ni 0.8591646922820878 4.028071183774701 12.390456175608554 1.4499070362353028 1.7741959070929185 0.2934780561243462
Ni 5.219102858575847 -0.0018592039790787417 12.456108156436649 -0.6313500649830353 0.21637272919991124 -0.05820231937234492
Ni 3.4133834650229984 2.4558655834025496 7.991548945473863 -0.38541839117908455 1.5190913085404483 1.422553841033331
Ni 2.5706092700953938 8.664419358009969 12.640531171499099 0.5208674481497352 -0.6942973552395333 -1.0977677188243222
Ni 5.418846679282261 4.468871376678734 0.10006580937098503 -0.7670498045119113 0.24388790390104445 0.9420707102379131
Ni 0.5266176715810605 1.5381201940890403 6.08364662504491 0.29422984668870616 -0.2216784576835408 -0.19256534236766837
Ni 8.941750618222548 2.7617992681036503 9.935828206032395 1.4651346518183348 -2.450322762071012 -0.9729059504512149
Ni 5.092697398421416 5.878591455645769 10.129173359152128 1.8701314793499795 -1.6014882228811256 -0.8063290617275082
Ni 5.802683237298353 2.4877800628837416 4.443539258590538 0.6895827233726833 0.6556948123759869 0.3836646417127715
Ni 6.013838339912286 4.3292084190886575 11.638641030441834 -1.1484629311863446 -0.6979254389104238 1.2642577042611776
Ni 1.003858819122935 1.778118935280597 11.861016299184998 0.2192726764555256 -0.22408166780839472 -1.1298633138072864
Ni 5.309029326486078 8.243714154221127 10.179168690104511 -0.13624198518559116 0.31652028265579035 0.7031157248621117
Ni 4.3062838031589985 3.2183340415891086 10.149052183333627 2.2119323909494293 0.7347963437948442 -0.9148208733830244
Ni 2.000759539521773 4.696883633134913 7.1346368216853895 0.4504313057153598 1.270366645372393 2.2292842519643155
Ni 0.8801428960619924 7.707151967943587 10.120686334201723 -0.24251030682722755 -2.1745794042222677 -1.7682116644850259
Ni 2.016670391937542 1.8899680529042164 2.0247046765976324 -1.0523155000287943 -0.20240469705559339 -0.37687358693286704
Ni 3.6783293095066845 -0.013869810123366862 3.4829551747990037 1.0340146448370773 0.7331266694019051 0.202843841475541
Ni 9.00218402500757 2.4122893304597715 0.10697937626324791 -0.03826932789384377 1.3854589930635623 0.07178854269721184
Ni 5.235329144800441 8.20175218018234 1.5698788121588128 -0.8290552996804303 0.9612357132021382 1.4802164858521216
Ni 3.285595662588714 4.164153039888109 12.086175735164296 0.10082863868330376 0.6729811102602604 -0.0916459437427712
Ni 5.659661837390779 0.14305479878144994 4.763218435384468 0.07901848478674779 -0.24342253422885174 1.4611581836690901
Ni 9.369590192569829 5.63683927357574 4.12170214344564 -1.2770504851504718 1.4274106549049999 -1.0835603169756887
Ni 2.3030379030264814 6.081832880644162 4.806506159166821 0.7992076201913784 0.8537607728469103 1.1709490281040027
Ni 8.719777991458884 0.0712333037513198 7.577554132094542 1.3735211039753958 -0.3621110839117119 -0.498119098709626
P 4.368414986032702 7.278579473864034 12.190838528425669 -0.381456321207543 -0.14257589782341898 -0.8286575500213793
Ni 8.981643717574038 6.8795185958396186 8.373526299510877 -0.4607059481684905 -1.0402495700031955 -1.6318670922832992
P 9.2251864503824 8.271407387143034 3.170269351096039 -4.473071839751129 -0.3161888674583006 -1.8377386648415706
Ni 0.32877294795307704 8.840514920519418 11.772050048898693 -1.1404390324406037 0.4478334630811965 2.496719089947365
P 5.98704502109203 0.7421907030115468 2.6916811156411793 -0.31484109518115455 0.49811267095172274 -0.3411352529909931
P 4.743363732611881 2.498681084218161 12.387156181320337 1.4577812967770571 1.759528020668099 1.3082695910657534
P 0.9091628064739599 0.8390427985184956 9.69294973971556 -0.3660021914360019 0.29227657961707726 -0.36239107704597584
Ni 4.369778773382626 1.7121376044462258 0.9256599946755458 -0.48767784877164394 -1.216179360696712 0.2593739153517855
