# total energy = -340863.23176809173 ev
CRYSTAL
PRIMVEC
9.27106234060354 0.00000000000000 0.00000000000000

0.00000000000000 9.27106234060354 0.00000000000000

0.00000000000000 0.00000000000000 13.56913686881769

PRIMCOORD
 96 1
Ni 3.31902181512507 5.431813508013486 11.023729920589503 0.08309239774580529 -1.2271571998644542 -0.5327066068765084
Ni 8.567611315930927 5.483499681174572 11.642129255263589 -0.6880210353125183 -1.7136220021646036 0.8818724434814619
Ni 5.150928128953145 8.442980423409946 7.1031172070129545 -1.0826984831960256 1.2340400430272167 -0.059814658164787315
Ni 6.956634420296336 8.825615712863636 10.856164737860633 -0.019794409018107844 -3.601019467683882 -0.08477929852992495
Ni 2.4504437873326737 4.201562062967798 13.252446978357957 0.677189491914653 -0.12668288074224635 -1.039581083181261
Ni 2.6746922458834064 6.382588775491298 3.0295671930418058 0.018849014385703022 0.036080804882957215 -2.539406601513562
Ni 8.275405969618625 2.7908215741373534 7.791520480037666 2.4642038909284785 -0.623423611047107 -1.3421271630451466
Ni 3.9298921199831724 6.508220942756924 7.869556866895332 -1.1073031691185833 0.40578075688552045 -0.6240527599906737
Ni 4.8024567046292495 4.163606333295783 6.993994947759034 -0.8638122435456413 0.7325162895114159 -0.38988054071549627
Ni 0.7115596057071218 8.1232585637448 1.4412598993109784 0.5202118168436073 -1.4185809724285117 -0.7054906528521915
Ni 5.101225963156449 2.7726502917345326 12.839578754253452 1.5003572224660549 0.08319678453415348 0.5348172254616079
Ni 5.832258508434431 8.974073235882194 4.894672254398586 1.1539674059443417 0.7408001267867629 -0.5758885415806211
Ni 3.0466843556440146 2.1520268291785896 12.2071485936669 -1.4728147940714118 1.2943738069202675 0.6160730842193067
Ni 8.614291115368786 7.099492221594841 3.2649381452143063 2.4046733396630136 1.7141727324617508 0.6242970147909958
Ni 0.9728589382347087 3.2604194293759723 9.10778142564838 -0.737323223981756 0.4635135928206146 -0.7354010672583787
Ni 8.136849941297115 8.370388004423166 13.802797641752214 -1.6984553217264944 0.07023328239495001 -0.9396554159282011
Ni 0.6354033903144007 7.188318270932305 12.418175590057091 0.948093005172593 0.26549288376532987 1.7447819727071758
Ni 4.611973455522942 2.0353319661151668 4.8105846450795315 1.565236439637943 1.5786771385238811 0.3644253338671853
Ni 0.5963935408417731 1.4186672472255524 10.495170889484953 -2.4555588136589708 0.8461755043004847 0.8462014724424136
Ni 1.720217824487878 8.490318468281785 3.3836948925667025 -0.318115137946736 1.348084666180162 1.8981513616016732
Ni 6.985560135141643 2.0857665458454457 3.758366339375482 1.5495054020559313 1.0158418305827925 1.3479545683602012
Ni 3.197886113147897 0.87495930007702 5.956647426225456 -1.6586163353526855 -1.4082628783319555 -0.5763387417441623
Ni 4.148095845816232 8.245720027652384 3.493157399812554 0.07668058068219052 0.10758601201179536 0.11705127118975324
Ni 3.5951047838360948 5.90639919485043 5.411277177579564 -0.3440359715775559 0.2662153637536512 -0.35964899552446444
P 8.754145092433356 0.3584915886203085 11.999853199913003 -0.28160315906363115 -0.28655818907606134 0.7875435535898888
P 1.5693590962946617 0.6293326986218664 0.7804343286512839 0.3126320033449777 1.3897077410375873 0.8423885264542267
P 1.1068165195808115 6.379844541005974 4.221060034407274 -2.309529152958997 -0.4217128547347447 2.317261231495932
P 7.336163903829135 3.5889487983690165 12.605674484160607 -0.2905948210392802 -0.2631806906923854 0.34559508853455967
P 2.6587923737809374 6.144767481513152 0.5394006115340678 0.47770711071217725 1.5944847949800993 -0.41254790040602496
P 5.993000189199794 1.0662278081728775 8.08419308789747 -0.07743159991560213 0.09401161576147037 0.6284616876916467
P 4.1319178418402505 3.3623084057060764 1.0962196951999827 -1.2435960621467679 0.6623051186036528 -0.3822435929955288
P 7.5368824058807045 4.229773906004422 2.8266273444271164 0.17469283296262172 -0.7783089223654983 2.8625379617279667
Ni 6.377267185644757 2.585254306424215 6.284383192272745 0.284566098346697 -1.2799699727901117 -0.49922981527530147
Ni 3.5954663552716615 1.7304438063706902 8.015302604147141 0.9537861989026283 -1.0077091741733288 1.441857169347633
Ni 2.6455625676641903 0.9101105333577834 10.43731204294438 1.9874365184217515 -1.2608083122599965 -2.117071025593154
Ni 2.8948521658935045 8.602099668246487 8.659009157992138 0.8766831859710384 0.637546166491418 -2.9244861212959896
Ni 2.186097983683879 4.69602490769844 7.428207011836894 1.1017243894792252 -2.715824901807723 -0.6990258710634543
Ni 7.462185455717679 6.038558190081153 1.851983726670702 0.539052346588878 -0.5348282812052014 -3.244662255536812
Ni 6.52184940455904 6.5717277205422935 3.9362706109490606 -0.6756031212641397 0.16638816975166829 1.9599601673783538
Ni 8.87927662232666 7.760880545745276 8.253210119006075 -0.21744822165227715 -0.1329329754170162 -0.5138167119505409
Ni 0.5483193736113708 2.6038149734499534 12.867708084834268 -0.1704003762348549 -1.10209797076856 -0.6047918548785326
Ni 5.403573851789511 6.780651112862484 1.2239415599419339 -0.5247323304217802 -0.9516120740694451 0.707579159950104
Ni 5.046443255136923 8.322373171992448 9.431622418360249 0.3725101677578488 0.16443181735624585 1.2232923175924095
Ni 3.4627418252314643 8.115758274222411 1.1666992390543125 -1.5637140894561457 -0.0927134657753371 -0.145605171568046
Ni 1.1595039674865424 5.708285861347429 9.10137697570763 -0.2750553306427843 0.7838283095218307 3.268658104230777
Ni 8.75246703012983 1.2301123791089326 2.155783463683499 2.6084350649671335 0.5412267285323775 -1.3069860963676394
Ni 8.856340013824324 3.485817499670557 1.256851050322186 -0.5838520194020719 0.6337280782969086 -1.0436665661045446
Ni 1.0534059288039481 1.683096490436401 4.592569121814215 1.4090779180340829 -1.8162403857584786 0.19540666847120539
Ni 6.176863899716501 5.9488884740607 10.849760287919882 0.23189473609491026 1.3835900581756237 -0.5350529956214978
Ni 4.060678997971232 1.1489534984179655 0.8723485688909821 -1.4145335418320153 -0.2819242898484758 -0.7755362447163676
Ni 1.664665618284968 4.634390884528055 1.7870149023369013 -0.9712010519449661 0.7925366359291061 0.8085175847383946
Ni 7.973669971107291 3.0331393334039527 10.413715334795574 1.162465416113024 0.3406521427069875 -0.023283396007972804
Ni 5.524106934707407 4.222746440667005 4.548646536349111 -0.011863584206805373 0.5092535180598907 -1.0770078605691518
Ni 7.235090780994668 4.905356226766449 6.052309957013859 -0.06025431680536719 0.5451358337787967 0.3483163441204646
Ni 8.580627887611316 7.225068762485765 5.7233939847166315 0.36363729074825113 -1.2103959212457154 -0.2000400534781587
Ni 8.504252875144765 0.08271178365141234 4.0851518215216025 -0.07462858324916824 -0.9609541774059772 2.229045396480632
P 4.502065010173226 0.6067363381114604 12.180742753595617 0.1432803800896113 -0.5196929682256598 -0.9302603478665462
P 4.6077829352953525 6.059353183157442 3.277760951689481 2.2465862335778732 -1.5391258585938201 0.6681170972997398
P 2.722030290755245 7.237436359794624 10.081841893576664 0.3418970708576822 -1.7309610076636834 2.3441613983208858
P -0.2373197294995783 5.083091765003429 7.205116508986218 1.7530228725597294 -0.003678734403167858 -0.5766367326005553
P 8.241186478114129 6.85160255379554 10.046480207178275 -0.49745626831464645 1.9348867693494933 1.2690939493075561
P 6.980423966544111 0.1740308216817936 2.5265323239695063 -1.4757669347212004 -0.29961553648065176 -0.3165570494309968
P 8.33149589744366 1.9588178877118592 5.584962188631957 1.112607354940316 -0.5676813231794804 0.1491815760653947
P 6.529108646457718 7.047435205935739 6.31635166981428 0.3535264275664944 0.2331080396767211 -1.5202231081520463
Ni 6.441339498239603 3.416507036791225 8.498757916430403 -3.362846354779428 0.26513138666085306 1.5888610210354186
Ni 3.338110932710483 3.5396082040078873 9.410725443597004 0.36092323425119777 0.3006270084643016 0.8141179616443076
Ni 6.769340416672973 1.5308285607507204 11.598830612301398 -0.14294793645085704 1.0111806776616974 1.7140056107562673
Ni 7.622639733547079 9.334105675081762 6.678959610162575 -0.5783483159750233 0.5420116863275182 -0.31933486928645
Ni 1.774323744948523 2.4037732589572642 2.1258499843498315 1.3598022117274065 -1.9972946421627538 -0.5314778766757298
Ni 1.4870691459847434 6.723930752790821 7.197436360852292 0.16670621521271936 2.5331580495006887 -2.7205480183150046
Ni 2.163699096803667 9.158502481208378 12.491367846784412 0.35738333941873934 -0.8798564414926976 0.22755702795150487
Ni 6.333822987002094 6.466714396166399 8.394343502688804 0.7215284230413445 0.6737894650941686 -0.24031535605843773
Ni 4.850304657935862 1.5013187689710372 10.133947118760506 1.0220680139981624 -0.2412509804988297 -0.6659658552846918
Ni 5.693507787801462 3.6531879900879694 10.718858448757437 -0.4317391286224952 0.4800445005961023 0.16113334911063218
Ni 0.7635294733791902 8.950394942383824 6.411118615969971 1.1712233648113117 0.7935527358984462 -0.13348087750068624
Ni 6.9736468198928545 1.4968408458074849 0.5975811639416717 -0.3692659497889383 -0.19759056349640164 0.09582810014491884
Ni 3.9463389847702155 7.202002359109123 12.411106404938646 -0.4335993217596855 1.0893427279854206 -0.15551780269606763
Ni 5.182496096596821 2.2421508272591115 2.565517141573518 -1.1372135835247705 -0.37555589656270805 -0.024297953315416218
Ni 0.7667650741743863 8.271382328515143 10.521983729197812 -0.14215603667718096 0.17098427376278297 -1.6096170226358475
Ni 5.075396783169582 5.188939484999862 12.892430299964555 0.17215952501780674 -0.5199485358798915 0.5663896009512505
Ni 8.138361124476532 5.012455540193688 9.13840652624085 -0.11851165778536363 -1.2151092675609847 -0.5014345362361041
Ni 8.001714935019807 0.5735107045016491 9.074414871889322 -0.19912422653210868 0.9924617610959552 -0.03208042547431249
Ni 6.3287702579666165 3.863715276212082 1.2057572980516822 -0.6306386407383076 0.1945386640439553 -1.9394275946426407
Ni 0.9551326668295077 4.386454861416502 5.28249192197455 0.8163591922700005 1.042212093046205 1.5810176137315997
Ni 0.21524718401762097 3.338593027957905 3.5470945869366006 -2.579009817727481 1.32861730148417 -1.62261909132247
Ni 3.1426305809434 3.823451051989913 3.749003493406804 -0.2975889929689262 0.23502608263504038 0.059856052925684015
Ni 5.59832178962301 8.714947040392985 -0.005437478127170692 0.8543858080254189 0.8661560611874696 -0.11414129663180987
Ni 1.0887194056775937 2.0037083720967876 6.96601488128367 0.5015147546547363 0.10705225099551241 0.5796760336475114
P 3.016191831244587 2.991966545061642 6.42957266577753 0.1642634100991816 1.0597141064857105 -1.622883143617134
P 1.6010475877501935 3.4336028759497976 11.076174466659031 0.9148766663216245 0.5244649356930065 0.9138114582819037
P 0.15199443334339288 5.87116915753884 0.4504206625599273 -0.6777021698850135 -0.33835280514984956 0.7226417107101812
P 3.015338893499148 8.135755955927964 6.1376194923638785 -0.1360568657579786 -3.0401780502443705 0.5727057729772653
P 6.574861339650535 6.904493965075179 12.76549091289342 -0.3216858860171299 -0.052494727464606365 0.7533936471810574
P 3.2266078646192944 1.0247954300819555 3.6359178549553293 -1.1817841710462937 -0.03290986335414332 -1.493235266709293
P 1.1288352929005565 0.29798585375013953 8.670597058948916 -2.642737694903745 1.9341426920946176 -1.2776014725579352
P 4.852455544424359 5.130105322689504 9.10145763395095 0.19629395617216516 -1.9859928439966896 1.6338856653752247
