# total energy = -340886.0934523832 ev
CRYSTAL
PRIMVEC
9.10895822751462 0.00000000000000 0.00000000000000
0.00000000000000 9.10895822751462 0.00000000000000
0.00000000000000 0.00000000000000 13.33188111357578
PRIMCOORD
 96 1
Ni 5.414920286781484 2.9580794595617985 10.124990313749251 -0.2579137858664913 0.2277586024393497 0.47247234467579924
Ni 4.808883092549826 0.4735528653706149 6.604933689843645 -1.1493898138759884 0.14862338956907953 0.1282319703969211
Ni 3.481407315074893 2.8094485917346184 2.7144640212035953 0.32839543682682154 0.5846326063218383 0.05711448562480487
Ni 5.015301189983897 4.539148627997613 3.4858470212083104 0.6828022101157402 -0.3995730854129118 -0.6545866669134727
Ni 5.174197853486829 4.661664113213987 12.20367001655233 0.8768747331565544 0.4590257322525901 0.04447519959423953
Ni 5.759994943023261 5.971186134453866 5.430994864979353 0.49286710628206726 -0.2562569669893587 -1.112479314002884
Ni 3.63675148495445 2.686987760266296 7.6303017660036145 -1.6316953425921255 2.2207332770705106 -2.5929451968616504
Ni 5.577788455976188 8.097617727825705 12.84102745200094 0.015799428926101824 1.1262707113600214 -0.07289951637320348
Ni 1.9470944280974916 5.550825940270577 12.177166592330357 1.933416098341238 -1.1727400585661545 -1.5024644986170446
Ni 8.272464176801787 7.463943954995796 9.698969813059385 -1.3574833337862429 -0.18606507935530534 -0.44937432520575515
Ni 7.947893785037486 9.124716506007317 7.507381843051656 -0.24991302704920187 0.33347208001878054 0.2743536765900695
Ni 8.63845300063143 2.6436109022290935 2.0235258729564918 0.04973464822096595 0.8251729339068884 0.5840319966233619
Ni 1.182215224110954 1.15459686342872 3.057467300394204 1.1078991508313694 1.1578078627363544 1.5088426342292467
Ni 1.7344458033855026 6.719951591723098 0.82625809573624 -0.03417330344759921 -0.24590287744854425 0.8134142507090638
Ni 7.624844589260631 4.030932533820872 4.362231712866165 -2.685351158698898 0.6007338827590751 0.14153922902878852
Ni 7.520046027371086 4.049633224612635 0.14829839085986457 0.08448979231396417 0.5519525995903138 -1.0104147460299504
Ni 4.506374597082482 0.6798589226211794 11.384332907111066 -0.2272711212799699 0.36358612579534155 -0.8837112964624136
Ni 0.42884883215155173 0.43337962786505546 1.0509123271036327 -0.631847316334428 -0.6512293204054656 -1.7622369349588296
Ni 3.704695202740988 4.477644943523192 10.229871767156673 -1.5846004459868517 -0.25960197220219167 0.4766221051781146
Ni 9.001900425176657 5.235063910900644 1.7811929758859064 0.5366249680943082 -0.26480948454506004 0.23799879211011915
Ni 6.315331676978761 2.168797357070081 7.713946594709666 0.5974449275951581 0.08988808051140003 -0.919368383544391
Ni 3.4781736349818217 4.585686294463818 0.7627185591468854 -0.4786856725753627 0.5071729813817781 0.8307859092182919
Ni 0.3565947554353196 0.033449004703572295 5.078046425434897 1.4850411609342746 0.9548940872548264 1.0736152899478348
Ni 7.144137548270021 1.1041332360607858 0.905305633335325 -1.9239873488281702 -2.3476172180799697 1.168028254912782
P 9.08461887285323 5.807297761962193 12.92216549546301 -0.48863969846428107 -0.9798615558334415 0.4289939617771902
P 4.02676063105291 6.509224957150934 13.136449178137553 0.030394038910825073 -1.592356950003819 -0.49929100753054007
P 2.3990535976127956 8.847184773399698 1.7095737935428772 -0.5091612154564005 -0.21529389431343568 0.06667976071573677
P 6.123906924426931 7.880487495773459 6.357854114754751 0.4876932753906117 0.6529750994519786 -0.002575216926343952
P 4.361751670779109 1.2863032872758242 0.11174505326694356 0.6107861247887545 1.4626913324841648 -1.0587507141311767
P 3.817609846216243 5.97751686026988 8.835237464075549 -0.4799198020927799 2.422740738687686 -0.6005701034877011
P 4.628379980650371 1.07483882710496 4.181104637343116 0.7906784996744447 0.2543237545223878 1.0639132321687226
P -0.09648208322764569 6.069854367603588 4.089034933374862 0.9606669851828616 -0.571993320291273 -0.03594916440109938
Ni 2.9480231699202464 2.314476922502458 4.920210955539974 -1.6862868046847603 -1.5971428014282365 0.528277110350245
Ni 1.7258560559833434 6.597672939414949 5.331112407727078 0.3246570528303118 1.3133153810197769 0.2763611939384014
Ni 6.694583143669001 0.8258818957704825 9.766789649017005 -0.14047967741602257 -0.5974724383989839 -0.07228168028354648
Ni 8.489557973021999 2.490862785382002 10.824007196854229 2.1863002922036214 -0.23646127241967016 -1.3536513616346622
Ni 3.441309681920806 4.6063089753954065 5.405490693450927 -0.9907272949033518 0.1146010098770478 -0.11215717632224555
Ni 1.5981211378280114 6.9910706178926265 9.531641898023645 0.7843774971570813 -1.0536051653744951 0.9250574635093681
Ni 1.3121545101043797 1.175374396646456 12.009238396961846 0.3416314759011213 0.12539527227907438 -0.43970080667173306
Ni 4.1053253938775365 7.228049269445727 1.9648523417353594 0.025333593668782177 -0.6198369221371131 -0.08350274581034652
Ni 5.629381594137196 7.815003196649258 8.462064405064483 -1.1101092711088107 1.197204876476738 1.72890309669339
Ni 6.923044919484011 0.8693380017423603 5.408584095590665 -0.016909374160828942 -0.05332673644759848 -0.858986540022224
Ni 8.036095825435266 7.440533932913559 5.422329513225722 -1.0271557129337148 0.21543556209762252 0.13390742351514356
Ni 4.806924666577966 4.89963564119003 7.282526303712272 -0.4985119632726705 -0.6412184731366828 1.3188499376847609
Ni 0.8445625468546268 7.789179300694728 7.368517600001353 -0.33431437341441783 -0.20473128830624093 -0.7771321284485777
Ni 6.58400950240197 2.097893227930731 12.163061370853958 -2.5150885935934877 0.2642937212509061 -0.5640712372307188
Ni 0.76303919446879 7.734735058677012 2.7369813654009834 0.3257608274174519 -0.7356491787134428 0.3586712049922275
Ni 6.992099930147604 6.185410608901352 7.657471965951823 1.009142821296062 -0.8261003308171645 -0.5756795108936085
Ni 1.9946522978606656 5.7790964279674055 3.2030639743087024 0.853366365621969 -1.0968621762909174 -1.2114230769586491
Ni 1.592683089896846 1.0712681155655681 7.405606544325183 -0.8352783977720066 2.1922541957942117 -0.12190474262731264
Ni 0.7003376820162315 3.7820302562344468 4.299491942789969 2.6929156013097173 -0.42922921771644784 -0.12822554263901786
Ni 0.55360056655905 7.557811767274958 11.82205841884205 1.212460259973912 0.45641323433040754 -0.25997992436690065
Ni 2.054716766969719 5.448632540371507 7.400353408241593 0.35904298650934935 -0.361955532170454 0.5094880026682
Ni 6.222821099442887 1.9542813959663183 2.845289608811263 1.013717585150938 0.9412610698524241 2.418945533311311
Ni 3.910648743316618 7.216863469011101 6.750917494473511 -0.7070950212248339 -0.19159680780681196 -0.5221673979080814
Ni 8.185291448658983 7.519053150948142 0.548239944770958 0.4153267487027428 0.9476965410651228 0.049531016850592115
P -0.005704940400818966 5.958005472215347 8.355063297128446 0.1328679265070357 -0.9144074399946897 0.0541641447472293
P 8.876470073397515 1.904528267323059 8.50748622417463 -2.411350237462557 1.2632377476370955 -0.8255891955087008
P 1.6185707485574359 3.6728047407526967 10.86140311306295 1.1526592286558794 -0.6131029458473893 1.553061494838306
P 3.9116780555715955 6.305412021707338 4.15754705014114 0.20633128580350918 1.1465585150747801 0.05410166694041005
P 7.081923365070925 3.999834551179333 10.957313153727652 -0.8998850780087985 2.295543894423498 0.6855471198507289
P 6.2926594804952245 7.867871588931476 10.689661907872017 -0.2701609786649606 0.9620294127480269 -0.5629836605934949
P 2.414493281437461 8.91550195846459 5.965523095259886 0.2866342937296354 -1.5529352536730867 0.05842960489180259
P 6.921733229530764 4.423164265673442 2.339265129931404 -0.9213715300173485 -0.4280655364256499 -1.487279306236174
Ni 2.3342524703392424 1.960184000755925 0.8680335989555213 0.6322972593876529 -0.8641968805785698 0.002720998475588862
Ni 1.1875895093360587 3.590259363278289 8.778336536082902 -0.5981622653771569 0.15992467351451167 -0.9974412165884178
Ni 0.3796968947368637 0.35629233802943233 9.590848303288285 1.226938656095745 -1.4404718589643322 1.2671447960009854
Ni 2.7696970989848597 1.977345277644226 9.81891657211732 -0.5017397261813488 -0.8018316880777868 1.0005702491357025
Ni 5.509908500895711 3.1730690864820112 0.96462407878347 -1.0900778063792322 -0.2646444197221055 -0.15038690922740552
Ni 4.115381683519089 7.331445051801939 10.821927621740851 -0.3929838622311684 -0.8405851546969009 -0.4794955700711678
Ni 7.153993440835382 6.251022433437675 11.794074788943668 1.1883641382566568 -0.7525541819988976 0.8888768998237531
Ni 7.5313411353018145 3.938267103998852 8.769938076798923 1.011284293119097 0.16542040652176027 -0.09601244824158303
Ni 2.884661258012061 8.328994370203484 12.95024203673308 0.42514270635190005 1.2655643388877431 -1.0582231237624806
Ni 0.1287824483263269 5.261233947259502 10.564168704282615 -1.012258226996592 -0.6774849116678848 -0.24871463586572648
Ni 8.590785823372151 2.9524045787224082 6.555738940326316 0.029845365496206665 -1.160610365182156 -0.15019819025536715
Ni 3.4562756999290216 3.0860512106253557 12.266556440852465 -0.7174082302253838 -1.0512222669646154 -0.5816043610184758
Ni 0.7430177047657722 3.473883315759746 0.011445405737871677 0.8805370124994899 0.941279067574553 -1.2761943077977635
Ni 2.8480614647332954 8.611290087849628 8.537243368197293 2.0769947263975586 0.65084648314475 0.18392797840764452
Ni 5.608622278835476 8.050724811997162 4.031200337186326 -0.4376696351743172 0.45400462488891485 -0.13285121433648733
Ni 2.965403061800755 8.479082671312048 3.860352720776043 0.14491277348671172 -0.15254766432415018 0.7554181338102538
Ni 5.147672567765633 2.7259923184593453 5.4396602167329835 0.828469088159657 0.8448742689905578 0.08858787364273776
Ni 5.9013932981915715 5.652372604151034 9.888335941101259 -0.47485884263010475 0.14900674105042724 -0.8216489799140301
Ni 8.164504806483238 8.960627736439454 3.192132313802519 -3.0690839346454433 1.772979003966682 -0.45609750286220163
Ni 4.440207126107631 0.5638290155069657 2.164950644103027 -0.0254264104929046 -0.7967247058685246 -1.3799853715435006
Ni 6.197580176800911 6.162629104921712 0.705437787605276 -1.3449502343162387 -1.7234760121405477 0.47658739528543725
Ni 7.965720015860419 9.023625290027294 11.695698953346024 -0.8175439566067211 0.9035566133231149 0.516074397636466
Ni 8.8193933425153 5.3127997585464835 6.202044477120952 0.2286258355356514 -0.3169031199165058 0.41472999565900837
Ni 7.366806026791527 6.600414735775553 2.7323822525024153 -0.5477665865334244 0.029114915088085343 1.9808529516669626
P 8.410310038346724 1.9955631936615308 4.179131637038442 0.16758450405261463 -1.539172909781672 -0.05384789905839113
P 1.686796844042242 3.9648288255520825 2.027085653746273 0.26538592587382037 -1.255974895427095 -0.03369816358339357
P 4.631449699499287 1.5173793340393171 8.83133154288144 1.2339492830856231 -3.963776155599393 1.2709307454059788
P 8.493356408511605 1.8059966685434667 12.913486480272367 2.1219113844045907 0.07023173973305323 0.24817907507723067
P 6.301722893713833 8.167747595534319 1.6411145087330496 0.2101457744535929 0.7748865269475106 0.9636108983025339
P 1.692899845908039 3.2639309426183183 6.455669749434864 0.3620689178198667 1.1917150570067605 -0.11872583067869875
P 6.5519732970855395 4.029302030337323 6.452790407808329 1.8358630450854123 0.5862320895984742 0.24814102275044367
P 2.3501749289383667 8.786883471382419 10.6659576664461 -0.17976973326489687 0.5598451149645133 0.8186973534848738
