# total energy = -381172.31668043864 ev
CRYSTAL
PRIMVEC
9.22970333302728 0.00000000000000 0.00000000000000

0.00000000000000 9.22970333302728 0.00000000000000

0.00000000000000 0.00000000000000 13.50860378059336

PRIMCOORD
 96 1
Ni 7.078610379194159 3.408308007149603 3.6542399189611103 0.2578734195468591 1.715188575320775 0.31568801656248213
Ni 7.385073455780224 4.478362917614666 1.1383916355296095 -0.763064337501602 0.0969519293367169 -0.12411126336032817
Ni 2.8030332782182246 5.682599258251038 10.428236854160094 1.70569657666994 -0.3276667861909131 -0.13971760243901743
Ni 1.7353227124541877 7.136655984803416 12.112854344236228 0.3871361452011397 -0.8745023762696358 -0.7192244574985162
Ni 6.410896705764988 5.566037332151611 12.329789296413042 -0.7462956026836953 -0.9750880457041982 0.9934269532227019
Ni 4.778854376005597 0.4218057588468877 3.9614792136155064 1.6452823372479408 -3.652068463840897 -0.20647835290433472
Ni 9.12262975649287 3.94630742692438 8.507137745734578 -1.345509192143502 0.09770809077645108 0.4236193277288381
Ni 1.958893821481541 7.73787887387751 0.8642795928473465 0.6776345498718718 0.7607002081447996 0.862096032185483
Ni 4.961574817132399 4.392028270632795 10.087104242139135 1.1889776034709394 0.32827510919887337 0.07833225735300058
Ni 8.448039953920924 6.7032937141448965 11.731682355256531 0.7805902622005072 0.35681409717883067 -0.41677813643728867
Ni 0.8524646493363893 4.690507653650405 1.4552418204878563 0.3722720836051137 -0.2811532160104061 0.40980144800913937
Ni 8.963731180221767 2.864180064219389 0.6389825292566398 0.1700224240701459 -1.1937647404469376 0.7679589465897418
Ni 3.259340591895445 6.888441567304651 6.824154836156679 -1.0574726187497014 0.15900807523751326 0.4190245092693041
Ni 0.5349397730488314 0.1292066199592914 3.8776716594648986 -1.5546098131620323 -0.1790199995830659 -1.5326896160501733
Ni 8.287526179529037 8.944099600776562 8.513932653486133 1.3260017182381938 2.0294290608034538 0.6940009070450371
Ni 5.024050680444381 6.753955556916277 4.96716801748209 0.6683623805413264 -0.23395804638184226 -0.21611304778062135
Ni 7.24912915223137 7.594790779783011 6.983286000957174 -0.39562669917065413 0.07736989343973127 -0.8619890742939735
Ni 1.1662561105390459 7.762632938791492 8.182742278126376 0.1419218091791878 -0.848589513058616 -0.6192833636264883
Ni 4.1393189875064715 7.602100704992509 2.7467311636090614 -0.0666735900681497 0.11864741203227952 -0.36401961378833436
Ni 3.64914789151404 4.029743946992384 3.008163439557981 -0.3091823542334804 1.5319175137708392 0.7970586921691757
Ni 3.4454298748170276 5.766755695195736 1.3212283709211072 0.02811141352423546 -0.2196845671819636 -0.8297520686371387
Ni 7.086021831142678 2.3497902261187225 9.234306400504687 1.1622913524290048 1.269137400950982 -0.6999319278174914
Ni 5.265241293543617 2.2818226891960696 4.857464684088694 1.862142804717548 2.824882356158722 0.5659859377549286
Ni 0.3226981251258451 3.679938182547985 6.024634535278929 0.05617191920587746 -0.281590817768457 -1.1029646896442296
P 3.5492086615033815 4.742443195511318 8.253932827527763 0.5705064513331013 3.3461203002739985 -0.620470441956054
Ni 4.34103415853371 4.522093253021989 5.927575895745396 0.4948684529828122 -0.3315342395661193 -0.7526387712929038
P 0.9097478814326352 6.421796985654403 9.867048727192966 -0.03533852740029398 0.06467841401499183 0.846050034466214
Ni 7.7944569566227395 1.54028061709168 2.4193914205692564 0.34475330935955467 0.4926809584131902 0.10253893650619116
P 6.7553307827448315 9.236902716112555 5.134512695469368 0.12086241740572731 -0.17929227940784606 0.8103628654772496
P 9.41780490564053 4.835995470667214 3.852262285599056 0.3077867594375344 -0.42535559369365455 -0.6139041015924459
P 4.103766169442096 5.7927557700886085 12.46256504273409 0.4768141665842627 0.7133214617505199 0.005855430339512497
Ni 4.784272211987889 3.9844076431678226 0.2569161820032034 0.3506712175058864 0.14146620969900797 0.4156345097511487
Ni 3.0579300010852686 3.1922037282920526 9.47205802606218 -1.817525166008173 -1.9540085777806089 3.3412352042675555
Ni 4.91142983775967 1.7927314685186775 10.10811012444254 -0.351932086496181 0.3273919352629716 0.16017201363862738
Ni 8.191971058703366 7.22030478805301 4.763796114668103 -0.43220501251532023 -0.7169220346175846 -0.4490321113749879
Ni 1.7709124493327526 0.7161142388314524 7.725827649955741 -0.5353967521141618 0.40728356668329213 0.0034900154311294732
Ni 8.250561216821918 9.05892634260909 11.267891597943123 0.845820177843595 -0.15914717191853883 -0.18934734965100292
Ni 7.1334717370795815 6.972376491364211 0.6543416789297777 -0.11982729127299364 0.21543556209762252 0.14060797546377077
Ni 4.0787167540146 0.7674987673905898 8.291027006084544 -0.7788961623275359 -0.3748028204467674 0.30364779756849636
Ni 4.561577924797533 7.8418330249312636 0.06003645266441909 -0.5301185344343581 -0.8682209141362983 0.48019208191756013
Ni 6.877642814154256 3.2262521046782107 6.346625665113047 0.4712096759132917 1.4479491411779837 0.7132222171684942
Ni 0.7882286815579279 2.008115830499535 9.605644140354688 0.4186146754253952 -0.5882660893093675 -0.6312667612406097
Ni 4.684129928499189 2.931261549601497 7.720910063905715 2.4015139680984254 0.010662621920168733 0.309517368975396
Ni 8.407863054379328 5.607127972344394 6.718855917296076 -1.6163175745844744 -0.11100660765757013 -0.09294126551542703
Ni 5.136256186469462 2.4414042635296753 2.5409281568807036 0.7478989426150732 -0.37669540948378993 -0.31845529489497415
Ni 3.9295832040965895 7.7615346040693565 9.066164276130918 -1.1438742833743978 -0.3594368795136584 -0.8343281180435953
Ni 8.238534913099727 1.7583692822119097 4.997346379170846 -0.47795907882198324 -0.7338499207211748 0.03519197452010068
Ni 8.880765375034677 2.4066821187845613 11.589990715308744 -1.9221891192771667 -0.23902594782305286 -0.2603481063395968
Ni 1.5526207307344813 2.3758733683435214 12.725645743736566 0.08308237044347626 -0.20325907463608864 0.2696264463177292
Ni 5.653267260377575 5.748213220769118 2.335313436104711 0.24579052024039608 -0.03173049833406148 0.4507053853123528
Ni 6.178068204079646 2.917924627975583 11.777435841681433 0.14285074875136045 -0.3891215510622847 1.418667361494731
Ni 8.11417388750279 6.505095060169197 9.249341587583313 -0.48416289363985004 -0.2353428425445108 -0.43728731213423394
Ni 0.7675098430348465 9.10189984232553 12.878401029326554 -0.6334514275967542 1.1352037521835934 0.22427604320738795
Ni 2.4287226508556223 3.214105814809904 7.373617547737258 -2.2896758656784955 -0.9848109294189169 -2.9611135427110358
Ni 5.290899869405237 6.793929402979831 10.680172688129149 -1.0385256453335534 -1.424527934040566 0.11882558948135664
Ni 3.607863427546763 0.9608305986857743 1.7215769149611257 1.9835353835951322 -4.4742972275177975 -1.2319142549334656
P 0.8441662228769709 6.820049464018819 5.802161760973709 0.08944533654702659 0.6606202747020623 1.2500078792103826
Ni 1.0288258247190696 2.7035093848671967 3.3407456542126783 -1.576853455051581 1.528914208168141 -0.05194091184366538
P 6.3929264729583055 2.53888839239674 0.8782893598618623 1.153506664257839 -0.6370807968192254 -1.3003765614709217
Ni 2.425030769436684 5.603851427585085 5.035358913230589 -0.39663791404398785 -0.706367656140506 -0.8236729523225943
P 6.658058937059356 0.7301747692154787 10.515583999621109 -1.449081455010214 -0.503137892080456 0.0692745180261065
P 2.472794485294198 1.0131445583921295 11.027640568665005 0.5332866477496946 1.3805026774995515 -0.2454567910500611
P 8.85324239905649 2.0707947472895594 7.4491174457249 -0.09820688478974055 -1.1242662793354832 -0.15921967702768708
Ni 2.2290933928300842 8.509962035020067 5.348826411838734 1.3872022010069143 -0.21036406111198608 -0.11947582147084584
Ni 1.0360526825966412 8.920933044872726 10.370230936276092 0.7473114455427194 -1.3635038289487098 -0.9762059613587252
Ni 1.6719792570087548 6.355343120113514 2.8752520165947852 0.089510128346691 -0.047061215153860886 0.7417442358675872
Ni 2.9074489144493456 1.4260445762861833 3.6763801318304834 -1.4609108435449742 0.9044169044408811 1.0169155232629454
Ni 2.2679319853573143 4.713637290740053 12.907836399879749 0.15152205127311325 -0.40001043006064657 -0.28450979118746483
Ni 3.081336529281337 0.5336042349455306 13.042827275052163 -0.8790671128221829 -0.6389543596928544 0.490475209011123
Ni 5.102558538818103 8.450919621427698 6.927522901035175 -1.0374174998710393 -0.29768026713115187 -1.5037035132304684
Ni 6.32089786647482 1.1431449328564924 7.327768995365818 0.9146344684038312 -0.6897645003661863 -0.7351043619535662
Ni 0.9421404490023995 4.1842584140784975 10.699827341833222 0.20614848036874175 0.5935142250821842 -0.20780761323871952
Ni 6.065770401019093 0.149872849172153 1.406245939206772 -0.28251847178904893 -0.2740644274844247 0.40948185988619157
Ni 2.7356841314332434 2.8036239792452546 1.3138658364013898 -1.106207107840927 2.7955308995797985 -1.5039534244577453
Ni 3.700843461082723 1.4490819163403579 6.035846779148243 -1.3110957476606389 -1.1572741017200714 1.0894185755286787
Ni 7.846318660855274 1.048706606160052 13.283861906161448 -0.9162984863698155 -0.597564483892158 0.48071967228625606
Ni 8.494391525135695 8.723805036508518 1.6810649771807618 0.38829931227130543 -1.1502215657486643 -0.46438365413039373
Ni 4.321725618712663 8.913106256264575 11.194121346400253 0.006902897767420369 -0.01130694037238698 -0.5969723588341139
Ni 5.349259284935105 0.9968079831133275 12.895056952348094 0.47043500253079623 0.21864558439448797 -0.10654060146641652
Ni 6.273835608086905 8.062515236748297 9.024288188166256 -0.9171464361924075 1.1354274381586253 0.8779468831748106
Ni 6.50880540099523 8.064961108188344 3.282780347024284 0.48964834223445347 -0.49711713980767286 -0.3989043414806614
Ni 7.523306725808819 4.319935056224478 10.74543223003101 1.476961469249934 1.1600930592261052 -1.4212289515743202
Ni 8.998499473484618 4.6736634446764995 12.690901447702938 -0.15370337519514818 -0.3486053361157932 0.2753479221825387
Ni 3.713774275752554 2.671316178894055 11.960923271173018 -0.0483861046128715 0.8267181669068213 -0.2162097212594857
Ni 8.397793447809175 6.267660936413731 2.4456923837977724 0.1079523942122786 -0.07259638331048787 0.9860774548361663
Ni 1.389319585871295 1.521876588218273 5.4864929780695215 -0.2011841943849309 1.380291847040326 1.2741459099091668
Ni 1.3343290121362097 5.387867134873651 7.446834017067286 1.958255525982421 0.8259573774813969 0.7623932795765063
Ni -0.05197153770474849 8.885038727777097 6.16011273879864 -0.27208930603592496 0.49679703746409276 0.850287212476013
P 2.1841631959616055 8.428823711135351 2.9975594331524356 0.6452129390080564 1.2852715875086833 -0.39340758003214826
Ni 1.1564172465575753 1.0611113277276845 1.5798991195686611 -0.01533328792296069 -0.8225910321123252 -0.20209976422066483
P 6.763056044613959 4.783367701040249 8.742403812126772 0.5385833773722596 -0.312598579003881 -0.42196765105802814
Ni 6.514684722154889 7.960766984842359 12.201443807794718 -0.7712954671621427 1.457605433320825 0.09394579552054141
P 6.746765617852894 5.1383790182853515 5.2541711871089305 -0.9891206125378642 0.7000463419081686 -0.41214835097476116
P 0.2692479889128119 6.511528163541697 0.3678092241838516 -0.8995567481351023 0.2842269698397234 -0.260210552320468
P 2.7776885122772135 3.332495222211706 4.829055656569964 -0.37493317537704457 -0.5290219589360695 1.1513279114389654
Ni 5.247132615183725 6.070403712199861 7.439026610836588 1.8109863364483907 -0.6839088129163576 1.7352791754230632
