# total energy = -381163.4036958731 ev
CRYSTAL
PRIMVEC
9.29687208797876 0.00000000000000 0.00000000000000

0.00000000000000 9.29687208797876 0.00000000000000

0.00000000000000 0.00000000000000 13.60691204298794

PRIMCOORD
 96 1
Ni 1.756467325797249 5.876255297870734 2.6502453586972656 1.707754487640233 -0.48961311812114383 0.8709123449255325
Ni 7.987063603472443 7.790490541684504 0.18708932265012762 1.5570037673155055 -1.0192781099578512 2.1280766326750387
Ni 3.9861826244119984 2.2678789582174494 10.354328912542693 -0.5889145215266438 -2.0579238258090364 -0.16718264062850563
Ni 0.8025952419091955 7.873874186745799 2.449326009244464 -2.114967606096906 1.5578447751595623 -0.28626096955061664
Ni 2.1783872682453205 8.42068830778161 6.930789263451415 1.380760044925996 -0.07830526076980708 -1.8444453874377849
Ni 9.083127626010791 3.580030176893569 4.739776843015969 -0.33863896893170065 -2.3484584830343427 -0.43385668918613024
Ni 3.5408345644977146 1.4376125064564937 2.1295359245794625 -0.9303238541146301 0.2237759636425178 0.35842437908874397
Ni 6.165964423458879 5.869952018647681 11.494003631994634 -1.5151091839642488 -1.928031951211189 0.0472825871360476
Ni 7.651771914417297 4.3000729140992 7.121299835001371 0.5374212387433583 -1.9014115204101831 2.4536119743452454
Ni 8.299828971646384 6.103693974733207 12.292538929896887 0.9857486107418377 -0.9669294211528057 0.6603816763286949
Ni 6.0804053103471505 4.862886951864912 3.64722424903595 -0.10389416498250495 -0.4402862468615579 -1.4718776269691232
Ni 4.90100412710756 2.68446249613155 3.648325928369183 -0.11343758569656592 -1.3445969647418778 1.8537653792871298
Ni 8.017315624994291 1.6479263450758064 11.110070708581064 -0.7884670938454228 1.0418850487240894 -1.2151810013391846
Ni 5.303558685157964 4.585691416002768 0.2435027420092466 -0.1388637390791544 -0.14878536906824052 -1.3576789947368166
Ni 3.6329665661207975 3.9006421050442905 2.0112917985407632 0.014056220982749985 0.5642715261669831 0.2970081807647917
Ni 0.3797772216249193 0.5398089279759731 7.916814579187443 -0.4682788754197419 2.3937160693205617 1.527562836346569
Ni 1.5791759765588842 5.862003193078787 11.02002027660111 0.4331761181793379 -1.2853425499559348 -1.5453150181236677
Ni 6.645506378627422 6.395030052923173 7.575213103098838 1.0586532693213637 1.0107649302805173 0.7384336834371154
Ni 5.916120285051338 3.2002436583966394 11.424023287310735 0.677532991297001 0.149312188105988 0.6988906310371706
Ni 6.0627505503993975 0.43447071966211387 4.834208890774425 -0.4677579699192654 -0.2820502739033788 1.0534023053350698
Ni 2.996967551889201 6.195630742044072 6.196166241871872 -0.7310656731078184 -0.5009002609991889 -0.3522889556149675
Ni 3.117120325751636 5.890098340294223 0.3113420170691496 0.29924041252942013 -0.8831561952898919 0.7234140700998316
Ni 7.248650247174258 1.4937563165273111 7.581131491820661 1.0094099589145196 -1.1471786651572824 -0.5406340892537012
Ni 2.651932740967154 0.8184259555685078 8.195919692560524 1.380409860675429 1.5075293147344617 1.2480762094053086
P 7.951419396184562 6.301791723530852 10.13782986497486 -0.9192285155324169 1.6800472515329516 2.0397510115547517
Ni 4.631664448094206 8.18593299264695 6.380321471715516 0.29459725733045394 -0.5330711893047787 1.1059721090119856
P 4.225428328727682 -0.09672093764741764 11.660810898666869 0.3892205385339942 1.1452264265269179 0.3296215959244388
Ni 4.657500455411112 1.6510779846873327 13.54155787981197 0.10738495174458279 1.381740663671711 -0.7899128251530138
P 0.6750607516705016 6.691442223230817 4.705678705543417 2.0838588005072434 -0.14513028881415652 -1.5271242061472539
P 7.182214799787927 3.4142669489481023 13.207617026259935 -0.2018907335336523 0.2730848371799749 0.43307970181078964
P 0.7107477245696304 6.4843172117110734 0.6740306582517491 -0.9543040190793114 -1.4514676958542034 -0.15376585300196743
Ni 3.333802521698074 7.6499869149913 8.726765506231269 0.7671847874278788 0.8787290127564736 0.9775881864182326
Ni 1.8839181441878492 5.478748941321979 8.614604323548976 1.452798498850485 -1.6857054782599938 -0.3618789132962477
Ni 3.0936643176693917 8.414366434814536 2.4053211249576285 0.3970747444710903 0.1863101054865759 -1.4741427688542161
Ni 1.2743966214418774 8.853550668585925 4.663320297289624 -2.4804638044307667 -1.387113755058166 0.1563708947249823
Ni 4.3680795328552895 5.844850464219596 8.018009171646266 0.24396040901019275 -1.2594651679685407 -2.0898795527800265
Ni 6.931403786691302 0.39602164608869456 13.406005767151505 -3.126632422483873 1.15448754011387 -0.8759594204311366
Ni 1.6490326728450444 1.5823555067864414 5.872430564725655 -0.4865614757790136 0.8186503022970224 2.457887204681832
Ni 3.3824530529285073 7.936219010447554 4.475871185692694 -1.453550032304529 -0.8433506332571798 1.4673555707290535
Ni 8.006029222373662 7.2747186762914255 4.954494609906608 -1.9203055291012088 1.4692203918519342 -1.151642614465907
Ni 1.5935489406869656 0.9558393020054547 0.5914205129417195 0.8059480242390056 0.7423772414658957 0.1261138956126538
Ni 2.0496627783892953 2.2357954529095525 11.880602898300786 -0.6685711541180228 0.8042595807929891 0.8179615037601138
Ni 0.9912231968770446 1.7974107501310594 3.719558561712882 -0.27807534841603077 0.2890845550423408 -2.324066170232907
Ni 7.084774284246903 4.485257307674396 9.446394532632436 -1.522651772198197 -0.20197557993797477 -0.12179264252948058
Ni 1.91053508875363 -0.10209452966942995 11.709114656571314 2.1527589659130664 0.5448859225515197 1.2033698676368694
Ni 8.05918873652914 8.486500864743245 9.276226446728442 -0.6662134525191237 -0.08104811362226687 -0.4218293257079509
Ni 7.799778116822896 5.126351007767692 0.9817468952368419 -0.07902002744864456 -0.11452156278936407 -1.2455842962213903
Ni 5.162088183775678 0.2548663086675609 8.203389729220882 0.22041193226629135 0.12184303615144175 0.5567250812782928
Ni 8.419107839539842 2.79825620953887 1.9649608368769251 -0.40947774612113347 0.8189068983925187 0.9963153305140906
Ni 5.397856857959471 2.9265344495383956 7.443633543848419 -1.1586732960604433 0.5221699690112426 1.4219735430498286
Ni 2.16102071132989 7.9751822010431495 0.25250118442811464 -1.961725229698576 0.7928567382726861 0.13548016731890217
Ni 5.685502077961307 6.961441980156911 -0.03784384720554214 0.4254777210938156 -0.4590478437397772 0.5973719082653776
Ni 1.9311927383607432 4.254508944376219 4.868553395355252 0.7136580191543322 -0.11313470974416644 -1.05347532466485
Ni 5.456919885841555 7.565227332872465 4.203991601246098 1.6598162691980576 -0.09437645530005682 -1.7507155645827912
Ni 0.29803447447346026 7.645552307042338 11.03546424038479 -1.1731750892210442 0.7478341508154088 0.7487409789003944
Ni 4.029422376132378 1.2906754443320911 6.207405230445246 0.43993066329435204 0.4003557292152073 -0.648323202502264
P 7.6833626855086425 8.792498110093616 2.80522793385947 0.16232505542588818 1.630264780793186 0.7737020197211062
Ni 4.266009175053087 8.756054371812839 0.25388176992165934 0.604860503332939 0.15448061968080493 0.11630487994203197
P 2.9825481034010672 3.0981547068504156 0.1986146548814229 -0.99570237952044 0.01606013878665621 -0.7088161176809986
Ni 8.634665113973021 0.580192680614757 1.2002224577940865 0.8143336771995395 0.27988694770347283 2.407471214123125
P 4.671297013474549 6.843566939937024 1.9905820864503918 -0.5212700829047926 -0.3815825623727622 0.037486684091548345
P 9.14163284157225 2.6091206453592526 6.756934038108094 -0.44829703298117635 -0.5631021884492302 0.5404389425237596
P 6.835673895600193 8.425057837626499 6.707840046082765 0.520639134189013 1.115752071216885 0.05065201782891277
Ni 5.529230956338461 5.981598154620599 5.715202794972939 -1.330327085086425 -1.375576700952844 0.24688529596647157
Ni 8.927832675949036 5.140891315591961 2.969436724804798 -0.9519051798298317 0.5772849077075155 1.3942200270856442
Ni 7.049752967383719 8.011384220651655 11.693643731858804 0.23916607294534295 0.059459074597581464 -0.6814212706078135
Ni 5.786066342497825 0.7391366529405938 1.9951812490339376 1.0729501455600101 -0.5043380830361442 0.4805309533142176
Ni 3.889364999295673 5.364685618626358 3.859981305619596 -0.5892091699489272 2.02000133973165 -1.0352256344260429
Ni 9.35971886519226 8.021378358062837 6.773139415709426 -2.400592227615104 -2.6964436690676337 -0.9906956703344679
Ni 8.72972563027938 2.9215141386527788 9.118141505376366 1.0385284735470306 -1.37128604399729 -1.862166715976948
Ni 8.878856754198239 5.750701041370256 8.442884589706445 0.7732703315003263 0.23721537697687536 -1.0163470523539853
Ni 3.4130118712266984 4.402570928013881 11.801002150460523 0.25323129278915746 -0.478106403033125 0.41602968830703835
Ni 7.553680617835546 5.044306112275895 5.19786719570771 0.2739456425183734 1.9567141496372302 -1.4343886288847296
Ni 6.658010671481413 2.920268357803385 5.590807858412157 -0.4723314482225608 -0.68946008175189 -1.6136590539157047
Ni 3.0105130944083567 3.4190176505454177 7.212180477651854 -1.752134042196873 -0.256781472034261 2.387633096351275
Ni 9.038465452872819 0.4976978165176565 12.592870661444117 2.058882847288196 -1.8629750708108561 -0.12589123807888639
Ni 0.8483525865699917 4.706411299057837 12.791694495945775 1.532037070067839 0.4832738061666774 2.455462911511055
Ni 0.44577943477556686 5.3096016519647256 6.23406122187347 0.40605663625472643 0.38447428209826046 1.5817884304593532
Ni 8.872116521990698 4.06392306816298 11.050799430765949 0.08658267028725089 0.2557548305419595 0.3711883636226317
Ni 8.471439932086394 0.6081009607027826 5.490620117192061 0.19825442233264567 0.14203622326986506 0.9081871701165908
Ni 4.6578816271635395 4.243250432371623 9.5494122416925 0.5628970144169596 -0.8915814432391096 -0.37385639737309806
Ni 1.0972168346676372 7.562642802453573 8.824326881108426 -0.9207935460266916 1.2470259137639232 0.6476135780297492
Ni 9.235698592573495 2.700304366037275 13.504587938575405 -0.5609594310746145 -0.7348613927048248 -1.6927047923959624
Ni 6.075152577661273 3.231062789111122 1.906205535458386 1.2372487797725016 -0.5063391726265731 -1.1132593867020182
Ni 5.57294484853137 7.057711089824623 9.574721116366417 1.2992077379738012 1.701527790004231 0.1652103473934832
Ni 7.571623580815622 1.7495876405095516 3.7761765122562303 -0.12365874920394186 0.02045903918530025 -1.7815122382486739
Ni 3.1521974238468817 7.312408195421595 11.886168005886212 1.6137639549246852 -0.9788058608754175 -0.26580732968195514
Ni 1.0816166834341827 3.899777495947323 1.6018733598850794 1.5508230924260904 -0.4954217543831209 -0.5412465260267194
P 1.9009221230948745 3.293268159732721 9.932092876446267 0.14004130432702336 0.7048990420147795 -0.2810827677837869
Ni 6.038680948764466 0.3276412930777862 10.50981537816786 -1.2628777931945154 0.6888173059615684 -0.17459127438775093
P 2.9158709373424645 0.7608913334449343 4.315200784234525 2.0659857768815644 1.3319957310380997 -1.5340337887828936
Ni 6.896261610491983 6.926113866517384 2.4619799817378225 0.08159987236067882 -1.2226014621729717 -0.9721569881003321
P 6.380777948131226 2.233861703531389 9.418622916562963 -0.5619727028304773 0.2656556345954393 0.5125134197580851
P 0.5583078439022708 0.4502428630277608 10.35333600661198 -2.256304232196585 0.8819976562054166 -2.5409173817311337
P 3.8877566404378734 5.990709089190792 10.286580746828491 -1.3034613710438325 0.9182337557193153 0.4960300773910812
Ni 4.06647970796584 3.8707340677868274 5.477353480833217 2.430155285984202 -0.09352079216798087 -0.27567650916655106
