# total energy = -340864.03755784937 ev
CRYSTAL
PRIMVEC
9.28487273985259 0.00000000000000 0.00000000000000

0.00000000000000 9.28487273985259 0.00000000000000

0.00000000000000 0.00000000000000 13.58934978409276

PRIMCOORD
 96 1
Ni 7.519697872294402 4.028687789028342 1.3023315578839116 -2.5458212467906542 2.3132999328553385 0.06444958583363739
Ni 6.0290486649292045 5.187337795493128 13.116263656151355 -0.5601845005818029 -0.15576539993049948 -0.5425426191303236
Ni 9.060169707733307 7.53981819190598 8.460729027325796 1.1679740046360787 0.4010746096591028 -0.7350693949505728
Ni 1.1173601766019863 8.033541309278224 0.24556074799042207 0.5071763238158878 -3.6137505420973057 -0.6067111833884326
Ni 7.351558108636781 0.0752371822226755 4.045237146515963 -0.31509717705601864 2.8458345329303567 -0.39292909773383294
Ni 6.920238622141055 2.3798150622810965 3.4442746754373212 -0.23199500911820048 0.26481745496486003 -0.2574841545282404
Ni 3.988196458236421 6.046764202455227 1.2210564228031793 -0.4583184217729204 -0.14364804784167517 -0.28735497394574383
Ni 5.55062701812451 7.773667001198643 0.1582578734118419 0.09015881767428344 -1.90186866255226 0.4023532192612103
Ni 5.560970366554274 1.0359504108639546 10.762724784225941 -0.552776638153506 -0.7015285828806499 -0.07758895142907282
Ni 4.653039783472708 3.3001780901987967 0.88994856970282 3.4469196283812638 -0.779228348855974 0.7665404689756605
Ni 5.323156916525966 6.789303344262666 4.959678282487071 -1.1065722044898296 -2.927481199368571 -0.7774373183938224
Ni 3.911401274338239 6.7054795115661605 12.357624544705487 0.8241511775105935 0.1948561952843741 -0.11679338954267629
Ni 1.5917429036876978 6.475168238854953 7.046240847038535 -1.132859677431449 4.314798071576479 -0.9143506186148255
Ni 1.2020289327339562 7.3756709236027564 4.072999845025691 -0.43027745647530413 0.0005170488457345933 -0.21719213977741306
Ni 8.29933936627898 5.956979481345879 2.7382269411690734 0.3606167587543725 -0.22097911762367103 -0.4752457936558783
Ni 7.6060564752973026 7.380294790315523 4.533773733876658 -0.12465119502419822 -3.501247809510183 -0.5452417632290416
Ni 5.6766598831026185 5.7624149693659 8.416727086083881 0.29859300875340833 0.11326583600539201 0.7712427595473362
Ni 7.202424479840674 6.902253823300434 7.013273048771425 1.3488588253420253 -1.420815261075669 -1.4216295294468484
Ni 1.616839915182896 4.410686030587888 6.876619217663329 -1.0984197505860243 -3.3274106396796372 0.9785384661466437
Ni 9.308920738058081 5.133485532573353 5.1718617693147335 -0.15775646221859926 0.8156421115983178 -0.187284039364071
Ni 6.752386689543868 1.56116781717135 5.788967848934516 -0.5418841596107183 0.1981109547762459 0.38067650561872507
Ni 9.134810801114698 3.695917943675803 2.8779661355475548 0.2035614363678559 -0.46118134514301223 1.559698026318217
Ni 5.9050863266116345 8.509075360605667 6.083951975463207 0.0786292197681291 3.82822631138482 0.398481652120946
Ni 6.760315971015158 3.8930265108350954 10.620661586156286 -0.8055158217975934 -0.6053919503563768 0.022272181134639062
P 8.536447165965582 4.704654392019436 7.165691665605638 -0.12806973378744396 0.8427744490387357 1.2296920504711661
P 4.656753732639589 7.878149676135923 7.641427198675386 -0.02425347323072597 -0.5301033649257063 0.8043971348121178
P 7.484814604744472 6.361883504392164 0.6487238573647315 0.7272864085710442 0.45894371406174506 0.44889224336301403
P 2.292500117367724 3.056366612265976 11.659770710786672 -0.10370647445173109 0.17524202059787242 -0.553548226212208
P 4.445374315806556 8.841195264854003 12.115774960420072 0.28841735377198713 0.011294084856580549 -0.5466743819105101
P 1.886351921350534 2.6153165789530215 8.127572931259902 -0.22219884896338507 -1.6292345397564587 -1.0038306650545292
P 0.034044843525506505 2.860158677779652 0.9038563808454977 1.0246190625547902 -1.1441841013053329 -0.5916537748346778
P 6.98132380106333 0.42241900731729576 9.3237208254881 0.9968987138213863 -0.1149689347394278 -0.7477055956573445
Ni 2.409127406080705 0.24261930025025233 4.812029304870426 0.016121588152210944 -0.047255333442537975 1.2242235711574272
Ni 3.7051935317200884 4.721460011999574 3.4908865944562617 -0.4293181778858284 1.1290693571510813 -0.4475778954269647
Ni 0.3312489831687007 5.0173317723791495 0.6767892427315596 -0.8995750029675477 0.32323728966464976 -0.8311324939244331
Ni 1.8973359260115845 2.428272814035976 3.260289347659203 -0.8128560642127485 -0.405655801271882 0.9648627684317642
Ni 2.4664986358360994 3.5756416999063614 1.3718993967033433 -2.1443527441272425 1.586168818915236 -0.4990999745656566
Ni 5.342850131983352 0.648934623979952 2.090041606433539 -0.38659801330948257 0.25019713394852394 2.0639324938969614
Ni 9.147772483707113 8.17328793155504 11.11712095557723 0.2619876988255488 0.146634898384141 -0.014427745389555796
Ni 3.959264794226418 8.065611260334242 9.668034553338597 -0.19768929385779502 0.0213470982172084 0.11251481677198041
Ni 8.238291326848374 9.42758141393993 7.335531489494398 -0.8088939942412069 0.2945185815737186 -0.34588279497830754
Ni 3.390222787749827 5.803305549693261 8.261645567697013 -0.6297768069586445 1.9737155692912332 -0.13326619038671886
Ni 7.950859515950535 1.9879748554293155 11.404481272953605 -1.536108154813419 -1.33403590139658 0.6552417839989683
Ni 6.3661824005528285 3.398588458248226 7.731348407416617 3.306603216015983 -1.4210276341967916 0.2721471558570539
Ni 3.5335997953372686 8.712144816177805 0.8826423032042734 -0.7041403094718841 0.26607703840357405 -0.5202719806575814
Ni 7.242590840080492 1.8828886637524174 1.0228429557667398 1.062592970695402 -1.1379226937766531 -0.37780586893914936
Ni 4.290846175845555 5.377714829787448 10.278372889089031 1.2966412627982058 0.33448380911274656 2.137969466308718
Ni 4.109986136291367 3.840464845250812 7.343752315975289 -3.9112107227978514 -3.6504808076388033 3.5136757508608905
Ni 4.593375190106764 3.023962405784939 11.420910855580596 -0.5100148217059475 1.4184760714195315 -0.5547697573241349
Ni 3.4127850289386292 1.5671565602029454 12.771365909794367 -0.6022294934679951 -0.81819753103032 0.21481026980879783
Ni 2.685993031598767 2.7374590821788205 5.596161891885055 -0.8109611611828806 -0.7717464386566322 0.17758738090159737
Ni 1.406212573056157 0.8285514190505266 0.28086090633433436 0.04356939995051851 3.2814202889924515 1.5596905701190493
Ni 3.5803955548399693 4.593598027056777 13.066757642244124 -0.6347850588065131 -2.0225351618970975 -2.348094671937021
Ni 1.813874203358851 5.3720881967996235 11.44110452568822 0.7433506611227584 0.8367560107587976 0.4025427095641971
Ni 0.42024820402925384 1.2631883906395691 9.145469835223647 1.8713213858930222 -2.905438874856551 -0.7592459921967762
Ni 4.784179328555276 1.1289755526214067 7.817979985683283 0.4118441894707811 -0.47710830078591376 -0.16241890069127513
P 5.61488762358447 4.156893314269074 2.97480364612481 1.2745786265712113 -0.6715225234368629 -0.9118692469538683
P 3.359155602968867 1.671927066200659 1.4651223062539318 -0.31908110140443113 -2.437647994816821 0.3952603169701709
P 0.43737693758690904 1.7150274462823127 4.778790388314132 0.20518405957294342 -0.8331176426752619 -0.5144474035560044
P 5.650244419653176 8.29741739758512 3.4711553110199143 -0.7268171822441095 0.7111815325893817 -0.009255714270313091
P 6.32167071978776 2.9334813192068 12.801304054028595 0.4138185395883324 -0.0942890377925731 -0.04751295797929882
P 2.0479365647286096 5.948957351145417 13.465197536765452 0.16121768129432235 1.7796520451114834 0.8789149035150348
P 4.300418879823191 1.1213805265751349 5.463544195034069 0.9594804210739283 0.28944090994049504 0.6587690804259364
P 5.5232923522562665 4.841531988564836 6.517696670764906 2.9771060614845504 4.500008259130657 -3.650658470867248
Ni 3.5301272528662344 7.414073157988305 3.233178447228263 0.6561095313159023 0.49375979329966574 0.027300487587165887
Ni 2.404401405765849 8.204011576038061 11.593672628976398 -1.3871623489079141 1.216473494898363 0.21636141634600156
Ni 0.25956605029873037 3.7181087899479173 11.761921954134442 -0.9125379908861188 -0.3045034607005724 -0.04205553440915337
Ni 7.9556412255028945 5.432430585888523 9.414076566281857 0.8729507155117998 -0.3419677761946175 -1.2555059262104764
Ni 6.939876128360938 7.587551723573318 9.143471730571864 -1.7702865447361833 1.1466276777498188 2.5106490697648955
Ni 7.277799078182524 8.765969224478829 1.246839586406959 0.010587802818175313 0.3651503849586679 -0.15667608467022695
Ni 3.491836436955692 5.420480954444083 5.802014023870477 -0.4254630658057963 -0.8609758025381108 -0.7365025278526734
Ni 1.8756836023686683 5.952745579295635 2.2351353870233717 -0.7677265188639617 0.9731453201555306 -0.5558503919828234
Ni 5.566782697000443 0.8418538564790027 13.51246125386318 0.009536221625209384 0.6844690562952018 -2.4331218248116935
Ni 2.5456336077094166 4.025512362490658 9.573167292794372 0.3144855116139487 -1.4614633736143345 0.36919113068694487
Ni 6.86044404055427 8.363507123009768 11.889852647136825 0.025135104504730905 -0.06423721271251517 -0.9235651952345579
Ni 7.029159466332758 4.591583209633744 4.481808157133659 0.2370135453787144 0.7567615352120257 1.0254199611895307
Ni 0.9655153649140562 5.779554844771056 9.384751223660164 0.6119197241725655 0.10611894054796563 -0.6825142465616761
Ni 0.7628869408054869 1.1796152495118293 11.659879343799803 1.5902874690692999 0.050710381870673955 -0.6152703858123533
Ni 4.182008895510107 2.330837357642853 3.4844586769356822 0.16711013551935736 -1.5898971756094167 -1.75184067932617
Ni 8.932864815165544 1.0205003823297296 2.7294072403850227 1.0220243052444207 1.4464545589103284 -0.27781335300389576
Ni 8.783480494800672 2.704107818660229 6.477282404418199 0.09351436441007767 -0.5236087583402982 -0.28946687808242405
Ni 9.13383588945839 8.036726020688825 2.0873239241306742 1.307720660540819 -0.5457801522310148 1.2884834095777615
Ni 1.5663859157508175 0.05412895213270729 7.168504053612258 -0.14766668208276504 -0.10418469963973025 0.5040053822870739
Ni 2.9215224028894435 1.3636321458578662 9.82279017268607 0.1624952624551653 0.39062641774258533 0.15940839599972545
Ni 8.21105879458222 6.003440985423561 12.018054458428391 1.2900384127697073 -0.0594935273799427 1.0920513851658353
Ni 2.020091230849919 0.1502116025417942 2.6425713949141776 -0.6523161257117411 -0.8927528378393914 -1.6416593957833727
Ni 5.8648735420072295 6.554451768694944 2.3624402795911355 1.0936714372677616 -1.2637139159425654 0.11024864644562303
Ni 4.998167794678044 3.2626207792487127 5.250707053153035 1.6876911412314548 0.1994165609615469 0.3524337087229478
P 1.496897926838474 7.967934397245271 9.66027518504169 0.8635990990935708 0.32462465693047965 -0.5740617727845274
P 9.193528337443087 7.453311030936404 5.765526330280455 0.8446770653780872 0.5392168971912004 2.958702105056066
P 2.975922473311333 7.367973763954395 5.409594440948663 0.05720318868386923 1.866374069190076 0.13634122976761678
P 1.6274896644189274 4.569670909549147 3.807980788862687 -0.4893866039326346 -0.30363468494237383 0.96221118974153
P 6.425011355356224 6.078109933423703 11.025923076809882 -1.4659412068800302 0.9609719180177901 -1.3466217084813903
P 4.960499065252952 2.907557954021971 9.225144258213454 -0.8854869003055975 -0.3065806549445752 1.5561455330802683
P 8.524181848841957 2.748433801966954 9.44988460717434 -2.641015827116632 3.7212555643595198 1.2505712079130205
P 8.753146814980171 0.048187561952989386 13.178408239073484 -1.137292516391822 -0.333674940058206 -1.1703697585617652
