# total energy = -340892.2126376365 ev
CRYSTAL
PRIMVEC
9.07066483088816 0.00000000000000 0.00000000000000
0.00000000000000 9.07066483088816 0.00000000000000
0.00000000000000 0.00000000000000 13.27583485686138
PRIMCOORD
 96 1
Ni 6.242821436358056 2.131987155763982 11.436136134864057 0.2883566757373808 -0.3339024826879798 0.9368264311198381
Ni 4.542407432984262 0.3732297304290509 5.8393092920645975 -0.018799649205006336 -0.07110720035947107 0.7946012317676185
Ni 2.7406741057028947 1.714165130951581 4.687444639204934 0.19805387628606536 -0.9364029704291744 0.44265937507942477
Ni 3.261239548769644 4.322525451709107 4.894361919525648 0.843325179335883 0.1990553209673862 -0.3255800788652135
Ni 5.232385679329591 4.739639964680435 2.6747358162477735 0.07610645334627539 -0.4760297230097544 -0.34262417883169377
Ni 7.419141508124362 6.418873966145171 2.9154531141760778 0.07668263756471955 -1.2807374470837554 0.12343943410428418
Ni 4.9267859173089965 4.653722629313154 11.541532722522433 0.5780726937161335 -0.2151817942156036 -0.352164000001329
Ni 6.023320422997326 7.881827040192524 12.570848160910003 -0.8297536112990356 -0.2866782595936934 -0.9357532526603174
Ni 1.747835438054975 6.434919971874131 0.303966135320884 0.3958886945827892 -0.1052913024403477 -1.1125181376606197
Ni 2.5749349215991195 1.6995613608986544 0.44197266938750474 0.3853096335153622 -0.9399891451185359 -0.37229805174704267
Ni 0.8020971035603639 -0.05616283418428981 4.686940310251553 0.21525944153107443 0.12817154947263087 0.5201655369867042
Ni 8.41520026171563 2.2528084086242206 1.4648161885621802 1.416847534677173 1.0011194367709533 0.5811125089837217
Ni 6.599108072326323 0.6269507331697006 4.6300137261054894 0.9163774192368669 0.4941048353439104 -0.1631902316396609
Ni 0.9790875400701329 7.378123962671359 2.4966931826410232 -0.4464147283567989 0.4707797874647247 0.22435111941969751
Ni 7.8332536311034415 3.9187992397304017 4.000871520361387 -1.0988843489272688 -0.3362948941795563 -1.1285492229815532
Ni 7.610768369079723 3.842796140802778 12.787987173201303 0.9431770559282144 0.07287509089317128 -0.4858667637048343
Ni 7.932241794201324 8.857404233051177 6.70085825280378 0.5272777225514532 0.005345580582629504 0.4842634237734563
Ni 7.059634786212747 0.5701248334010202 0.47436582691111473 -1.324718737760712 0.470754333543428 -0.8887442309006307
Ni 1.689492923160301 6.631390567741457 9.355188701901824 1.1917299694050958 -0.1558394477015445 -0.2658407540230518
Ni 9.202642799501144 4.870756421894756 1.4491765486086048 -0.27294445494736863 -0.7869138904256899 -0.10275542339237141
Ni 6.466866852697987 2.0070024678389644 7.00585662975946 -1.668400411322643 -0.6411804208098958 1.0830766924710507
Ni 3.230072745103895 4.324874753848057 0.41396880647793904 1.0039689904046063 0.21819127046588876 -0.3665328671284913
Ni 5.7903766846562 5.45497071866423 4.8808738412221055 0.6345742283472877 0.44527984342140736 0.23760695598833914
Ni 5.456703215608397 2.9685836251748436 9.25859338013311 -0.8545927818299024 -0.1556162759471449 -0.6300768546975665
P 0.11393208307440157 5.43870701698417 12.233415808439881 0.551152986507154 0.8274661008164395 2.085844463478704
P 3.882933831786754 6.3800968748555675 12.399629388303762 -0.0029161452055304618 -1.5380225982273124 1.544122026256831
P 2.355633462860231 8.373992232305413 1.0084656086710144 0.08090413184523486 1.5387643614893434 1.8557924370194876
P 6.616024861859682 7.680539921407122 5.412558104991263 -0.9931312763591542 -1.2090455778654081 0.41983826341985114
P 4.749762826406563 1.4531204735893581 12.903978297146521 0.028379322473641444 0.14667192226966352 -0.8748828995375062
P 3.8128992301851095 5.998593791218271 8.238611655648931 0.42057051360018544 0.7013030971334051 -0.6292026796227292
P 4.680979976523741 1.105287697055456 3.6342334419183375 -0.6111761611383216 -0.4051973735782247 0.08913526150577553
P 0.29408364620742833 5.558403507430394 3.5464003821813805 0.6402615085400523 0.1836040194093225 1.5429187499773491
Ni 1.4222348605271122 0.8657051392722577 2.5732949454341703 -0.7470319666290878 1.2195752737521381 -0.8713347771749317
Ni 1.9434624621117893 6.426466112439767 4.973088031974941 0.8974034492375255 0.489251363906351 -0.7590541879009444
Ni 6.002630236978241 5.442244576189537 9.08218437322607 -0.1714820393348079 1.0098223638615897 0.7568767206336513
Ni 8.520419971413736 2.3287208009055522 10.312655405761921 0.30930525296458994 0.34014537827389807 -0.2352747083107367
Ni 2.116195128644637 5.039507066655408 7.015296470439013 0.9728781825370728 1.5773723036695286 1.2718149477831453
Ni 0.8096829003897196 8.968365673459532 9.128463811230443 -0.16611357593404294 0.7062342158864353 0.5597335290873133
Ni 1.370160174891179 1.1887105996497214 11.345886650069897 0.2481248248005275 -0.6203945944127961 0.6164703196577254
Ni 4.057535055233205 6.79672157193692 1.5642116245019106 0.07444192115965889 0.9395237754463431 -0.8202171325635099
Ni 5.924731369143126 7.9988839672316665 7.954680804360907 -0.8892957325287264 -0.03331584054331037 0.26598473580008386
Ni 5.381824879094788 2.875799796683298 4.945340868874379 -0.4279122986772373 0.2971498485489786 -0.518867387000571
Ni 1.0360513139411764 7.651404946618301 7.144164309891769 -0.9225493523755337 -0.7154037982008453 -0.25167834647974074
Ni 4.925788144199791 4.449823159114557 7.109461761153578 1.3221283513257165 1.2362910438449224 -0.3040838566646505
Ni 8.111178795340507 7.350866615460772 9.119502901643306 0.40151323985841814 -0.16952208739495966 -0.2743778449597855
Ni 4.490450665988507 0.5515127366484733 10.64963513206705 0.9080100211087782 -0.5813930163386181 -0.47474957074575014
Ni 8.69413226972653 7.04376112311174 5.137469337583733 -0.9681591797948488 -0.10413019225271097 -0.5840327679543104
Ni 7.21752784541231 6.118979652176311 6.998940247979736 0.27073330622866276 -0.5385579234509629 -0.09976831573958948
Ni 2.3249383337551977 5.414198081156213 2.4366998067838446 -0.04437749767411067 -1.4963298464742165 1.4511902738231006
Ni 2.166963638573973 5.233637431048412 11.342673820658252 0.6698564485883496 0.024859739356157186 0.6172519350187563
Ni 1.1296152195908284 3.3106746709984956 3.833888748136956 -0.7871445183792573 0.30710798820295493 -0.3656782324376799
Ni 3.690672024307353 2.9384327359475586 2.7660728737309697 0.5521096939934685 -0.3331234384301101 -0.12704694894988441
Ni 1.2233333265391755 3.1193924952990426 8.186331065925916 -1.0304657511435544 0.5308217311489697 1.2939793996953264
Ni 3.6388875999395527 2.7373814544425144 6.837944114410542 -0.7143900122243503 -1.794027597106865 0.7962559937622222
Ni 4.367652008239114 6.849177225487277 6.21513504671051 -0.357448645439036 0.20406382992557115 -0.3386945047599844
Ni 0.5812744943631677 7.473928322484411 11.491084407054505 0.05655372802532841 -0.07161422190287665 -0.36094740262091385
P 0.18647109518015345 5.676675903529842 8.181750380288197 -0.700333277020968 -0.37927499728550806 -2.236130071241555
P 8.571043350709004 1.3954673292064994 8.103901401108542 0.06643164926067269 0.7249603315410289 -0.21889626695271336
P 1.6672516534896324 3.1584417065275208 10.444948328178643 -0.10291740289153242 0.6691062006858863 -0.754272707351901
P 3.9492585315550772 6.183735126963792 3.716171476712811 -0.5835866815558272 0.08356445228621737 1.0784412505815684
P 6.913334036409235 3.98358192651177 10.506920015991437 0.17854023173316994 0.673066213774899 -0.20443329744984792
P 6.415009863013154 7.779727639126845 10.315987060880207 -1.449573564155284 0.0035514647966842063 -0.6759021405617973
P 2.625531088900502 8.392714084099975 5.936422548783634 -0.15452175733138548 0.44718940173929433 -0.6726982889125188
P 7.138114176584128 4.199255119398999 1.7442851799191266 -0.43123930616794115 -0.17475068278375064 0.36346065596107086
Ni 5.582259355405051 3.258137381466476 0.5115473882924514 -1.512922203615259 -0.730835045154251 -0.48486429058224884
Ni 1.6720137524199346 1.121397197436821 7.092694637586599 -0.3812894566123756 -0.8729489157395869 -1.1808004669767858
Ni 6.713579859946158 0.8551904248341504 9.253017642585576 0.20480585029791823 -0.4561779783911499 -0.03548790849396468
Ni 2.8291675098248534 1.5490246107133299 9.292048712484794 -0.7805049015755526 0.2572239588883183 -0.24529326888900332
Ni 6.213396200301102 2.040364372344967 2.416892196433176 0.5070881349774558 0.15578365476294462 1.250366805211698
Ni 4.107287650724077 6.88935119912977 10.26248555969811 0.7492184327574452 0.5476094921302698 0.18630059240487915
Ni 8.246494970278123 6.995441692632274 0.41140725078666796 0.05400627901312634 -0.16144162437967036 -0.2845393588738196
Ni 7.796771417965012 3.678417556393375 8.329032576004584 0.04554914938470866 0.4527689527096009 -0.4134333883347719
Ni 3.639223214530831 8.581773946965285 12.521900133371737 -1.211152339795766 -0.5166235852717167 0.510003765962354
Ni 9.126721336555184 4.869713295462404 10.16464302154289 -0.5523521490215778 -1.0885626552862864 -0.2799926200434017
Ni 8.389258160876269 2.091414072877807 5.7702887907684905 1.7386347221588574 0.44010061321331306 -0.6988674911087189
Ni 3.4458275739727866 2.7127001759866056 11.521751417099187 0.7044930648256126 0.03350378818440036 0.5279094425981812
Ni 1.097641126773085 3.4730214265309693 12.781442688671374 -0.5350499102977043 -0.5261639206619841 -0.16718289773882175
Ni 3.3257138329536216 8.222357931699962 8.098219536784844 0.09337346795683919 0.4136586169717005 0.524416084732942
Ni 5.401707775961878 7.8696814202540954 3.44797278615758 0.8743766493250489 -0.11738011528408171 0.6875065575699449
Ni 3.122095553358528 8.478731196778174 3.3102628628243322 -0.42195119599779585 -0.21770841729219922 0.6839211542115319
Ni 3.5128688562468127 4.3386077400965855 9.494823420269375 -0.7026339001296867 -0.5968564020815398 -0.427468012050967
Ni 7.225165345030052 6.03656359335588 11.45841278012678 -0.37988691983789413 -0.4670406321372666 -0.3447923901276062
Ni 0.4452625994484964 -0.024065380327590046 0.1076297852900702 0.3663850286967174 -0.2458296010084476 0.8403216166228689
Ni 4.640007784393884 0.33652619307367027 1.408114556898919 -0.08204235921473613 -0.8264104058584154 0.8117584602731955
Ni 5.7664754833583975 5.5779417190415765 0.4377575315343401 0.5868216435533571 0.9431960820916078 -0.9491039629356105
Ni 7.854687611622117 9.120371871314779 11.199016262527673 0.6956142742787439 -0.07481730222120662 0.7086927047292569
Ni 0.052784918676395454 4.782498855053155 5.887102623995573 -0.4790499978933168 -0.4457956067155613 0.2843958913174199
Ni 8.090134853400887 8.704590746043937 2.3559826834484534 0.03857348939782389 0.48879242199206147 0.7533561090749026
P 8.414792081807317 1.3802286126295322 3.61847497625812 0.6875641502807578 0.7689822456479337 -0.14454896238938975
P 1.843757716508205 3.2056182332637144 1.7953312521861147 -0.8232212094971564 0.1605203981169816 -1.3808546615223316
P 4.659174098755272 1.0108348662721476 8.393699158278698 1.2445404283379082 0.03790423124494117 -1.685534242789452
P 8.543822286156935 1.6956428337788627 12.54043331534201 -0.12829290554184355 0.7862837130408586 -0.24630422665202098
P 6.359588102129065 7.570276922175211 1.4140095818414018 -0.5630708209906625 0.6097358291473692 0.19962687720014008
P 1.593207818121905 3.2111604093521233 6.000133083005838 0.8246047201082444 -1.4753897538874396 -0.27383071420706384
P 7.0057096849924685 3.958419902830516 6.140458078951668 -0.449438088564155 0.3621869314549698 -0.25594740616873984
P 2.421069237494898 8.39466427699524 10.546150640512499 0.01717728311023493 0.8598571155526352 -0.3822237955011869
