# total energy = -340885.66128445 ev
CRYSTAL
PRIMVEC
9.14763653064807 0.00000000000000 0.00000000000000

0.00000000000000 9.14763653064807 0.00000000000000

0.00000000000000 0.00000000000000 13.38849071987791

PRIMCOORD
 96 1
Ni 6.462979083601257 2.17239904196744 11.322553100733112 0.9658588137964462 0.5883442508454706 1.3089612178161392
Ni 4.811290961475795 0.7270440968857681 5.826282534647103 -0.07938769520070844 -1.1090988275664253 -0.05610687029589692
Ni 2.720735824429497 1.6508373919189496 4.836913491674087 0.8063930821962242 0.17263877864707045 -0.026529670859412376
Ni 3.651773132909315 4.7897940153972565 5.12578396449551 0.09171150687338399 0.5632878220974751 -0.9339046294873529
Ni 3.5164064060709266 3.3206103916602716 3.1201875026425854 0.3080412986505017 -0.9562855682857143 -0.5773250169168315
Ni 5.472848042497032 4.668944587889354 3.0398035605274583 1.0811776756761249 0.06001289021852244 0.389154204072433
Ni 5.515896820473884 3.2547016697471354 0.3873383777887474 -0.2997309790125935 0.029147310987917542 -0.2697596294614838
Ni 5.277427081188173 8.24538693315749 12.563210466200289 1.1812756068409915 0.05099526010094444 0.8168045073375352
Ni 2.6716221633675086 5.726393086947607 11.427290795846066 -0.6128121540798478 -1.0465161197381978 0.3734717603401697
Ni 9.33708418375534 0.5695400894047995 0.7413244724275581 0.8326792695862628 -0.5361117759033154 -0.8102273683406497
Ni 7.769279889519324 8.94757781608548 7.137712420423143 0.35496701666776287 0.7941641442302001 -0.9937182592108758
Ni 8.987443216515384 3.0009004914709436 1.0461703778581555 -1.2822371715577336 -1.4875703551140314 1.5375518292384809
Ni 0.5831993404194691 0.4510855131664118 4.992675789140862 0.05078520097266738 -0.9124341183184028 -1.1633946127955126
Ni 2.272263791048038 6.842230950609823 0.2817728215608537 -0.4739543285379645 -0.6799392867456483 -0.454882656618494
Ni 8.003514273045731 3.9993009960879347 4.011472841386702 -0.9541266129611826 0.704268093299 -0.8270866059898335
Ni 7.779259961081743 3.9083643403574024 12.666235723736264 -0.22434520588242654 0.41097464238163417 -0.7769475232415974
Ni 8.16923285821969 7.670933648119168 9.261461586505694 0.16585055208064342 -0.22541529901815374 0.08155487805535633
Ni 7.022411949294492 1.2201666594178462 0.37802516893659416 -0.8711571139464869 -1.0106307186954981 -0.974150364381277
Ni 1.8561926866070824 7.100203451188913 9.50534672667587 0.19157006833393458 -0.7176707398581511 -1.0241621775230296
Ni 0.6804469506604629 5.26440999426487 1.325185186975316 -1.4901918518972788 0.39800599803610803 -0.5987106816814592
Ni 6.451928738553225 2.0494365103981997 7.044086359523636 2.049047349255013 0.7129982740831463 -0.1997675165430624
Ni 3.93600849825074 4.988178810973965 1.3190864576346513 -1.0148187886349167 -0.5127371057331169 -0.8327450898271918
Ni 6.355988325586539 5.831947666011545 5.054651027303458 -0.3434579875868988 0.9663905179302 -1.1036010376766479
Ni 5.577881206273108 3.1067843854535324 9.174904819193205 0.44848446640163403 1.0704374064404856 0.22696593133472523
P 0.5363204469859856 5.926717181489699 12.489387209075598 -0.35790501625016424 0.2527666944479131 0.5282382866925096
P 4.295839932695587 6.140268758597562 12.847904128136836 -0.1536838348111224 0.33452314699111424 -0.4858225407304601
P 2.024234771484849 8.652703749344337 1.3429864878556717 0.9924771877149229 1.1959180393445146 -0.3600251479169606
P 6.519429149239837 8.046663675025505 5.507141617456109 -0.6189393500235083 0.740726079015718 0.5313416082081817
P 4.674149593131348 1.2806599804465166 12.717178912124085 1.2133948559730392 1.2387965838755954 -0.4514265797490935
P 4.300816247021853 6.480963337214196 8.247993094833141 -1.1126695756368192 1.2290883554488963 -0.14152765906456272
P 5.167307831446281 1.6844549565311324 3.466334072690201 -1.8134134578326448 -1.0808611728769708 0.22442491008042642
P 0.1443634274631726 5.965100664785676 4.014123826481835 -0.17038366406430655 -3.2346789190718552 -1.5681376724451381
Ni 0.7581131299330651 7.390146941786938 2.5845412364761695 -1.3339009184806123 1.2553107794805347 -0.6979760896427011
Ni 1.780651503323435 6.831720316122912 5.089648055519318 1.2847121154607875 0.7111727908386333 0.4047631142542836
Ni 6.046185315866597 6.1575852347365725 9.51133111055867 0.8985108233690913 -0.46985573298855854 -0.7770123150412618
Ni 8.957512149464755 2.857776568771023 10.368181085975957 0.27241017971045345 -1.6911796140006874 -0.1513788408270296
Ni 2.538368540590457 5.639042304775707 7.09877824940209 -0.97296071494855 1.4503124992038376 0.8568563810530986
Ni 0.6506951772877655 0.269023760390786 9.257244526019647 0.7125840693638631 -0.555589682122269 1.2372765476866434
Ni 1.796650719787845 1.5810683673483057 11.657426123398945 -1.6765492656820224 1.4058555544420432 -2.0580953183898942
Ni 4.32277057493185 7.344573416100436 1.4607915818933883 0.06548985417269367 0.5234298095602727 0.722179169251466
Ni 5.701319414947065 8.300830758766864 8.165037752061554 -1.2876331457623245 0.20727230956053982 -0.16697155305896405
Ni 7.225379710822412 1.1085289019955125 4.753221764153853 -0.8143714724160105 -1.053007383889496 0.12686388640480084
Ni 0.85968940182698 7.884146762671754 7.11397430337046 -0.01886212701182558 -0.14796750115263546 0.47757444178905495
Ni 5.5762071887699705 5.008331054468016 7.280165821358146 -0.9631460428509735 -0.5128826301720457 0.3210600795076729
Ni 0.5945753413314991 7.866921762899034 11.495157111997845 1.6354915764097642 -0.24295922143918802 0.025381930408214348
Ni 4.902813065950594 0.828662447908177 10.320464269027243 -2.5611884732753443 -0.6270802339630879 -0.0280821029481968
Ni 8.557851905136522 7.564994868316804 4.954865862661533 -1.3560075205716644 1.349420097162134 0.9625752579491682
Ni 7.358843729241934 6.58789006177251 7.211938173559517 0.6851516841845233 0.27051939044564377 -0.5625041498539151
Ni 2.186294302007142 5.677627036077527 3.038210042226657 1.9409730847528897 -0.9966022656268901 0.016526794010429603
Ni 3.640155634390275 4.676967065213131 9.288974933195234 0.15071626754236622 1.0504025992767974 0.7933226221655111
Ni 1.233988738364515 3.4846824022409812 3.870853541595847 -0.09066352522484385 0.8164378680267358 0.235105272612408
Ni 1.7829384124807262 1.4079219012314645 2.5206239550572023 -0.21974267411340864 0.13007210892945342 -0.3294259349738649
Ni 1.275701961393509 3.7464603196578055 8.297691289875734 -1.5270954097918474 0.7943811453370125 -0.8260995594862158
Ni 5.432991789703758 2.9885420343849414 5.064932970874639 -0.5624074763750507 1.1671579364926867 0.07634787993312013
Ni 4.358181076323349 7.330165888409501 5.811649060331428 0.11207438680045215 -0.25425973405367175 0.27747011073186406
Ni 8.489766045705643 7.234033375073603 0.6064755018223803 -0.1610811557164581 0.6719704096075589 -1.2605375750971128
P 0.31173499057602183 6.000172703621896 8.094320117572467 0.3635624716462577 0.24911367107635807 0.34318467932085417
P 8.798050547745143 1.5378457842754998 8.042586573379886 -1.4247747599440495 2.1850692480099982 -0.9817536306498318
P 1.9854670874504465 3.6386188314365753 10.43592665332423 0.42113589918535216 0.39108484543624256 1.145708508369659
P 4.1921331762307394 6.519035800864783 3.7039933313705684 -0.06911588096105517 -0.6299673257028957 -0.33150724298292583
P 7.415824357805005 4.330463737336978 10.380471850550903 -1.6277391861578547 0.4462221527300186 -0.1751296633897242
P 6.305273828114447 8.326032497680213 10.415402101019373 0.21385459076374783 -1.3444655813703363 -0.29448721411515094
P 2.638983395874647 8.763774353295663 6.044341152322158 -0.13439387623325888 0.2287111961606061 -1.5063918586959089
P 7.09958141189813 4.2683787275348335 1.594315059951 0.5477889551309276 -0.06936296397485472 -0.06542043438733895
Ni 2.952573527159063 2.400477066042419 0.09772786116402483 1.2650058952811116 -0.16338486414897022 1.3472362021369377
Ni 1.515790832362582 1.2945826833961063 6.9160121286060185 0.2583860975172195 1.2737196210050254 1.5822545714624945
Ni 6.983717446353123 0.987487374118397 9.241098032605509 1.4748631919600084 0.14596538312094218 -0.20745048700961694
Ni 2.891256918833768 2.2880160213234606 9.000118181828755 0.5455456676227056 -2.3718179836958893 0.9470067140869498
Ni 6.9596408667451595 2.109646254691366 2.5009162867033283 0.6373934429636378 1.4159952139792065 -0.4840631348371921
Ni 4.216703728216678 7.385371875466514 10.54291466704796 -0.5606159316922668 0.4510046617203265 -0.491284849396612
Ni 7.57896330944954 6.576171939250549 11.383443429191487 0.3166182416862354 -0.6472567089109628 0.9014159128310282
Ni 7.899908140583805 4.435167586194405 8.094266146516354 0.18487183037815255 -1.2463785099879114 0.8302416066790476
Ni 2.893232808345668 -0.10484106340686382 12.578246436527648 0.6949591571932483 -1.3876631998037328 1.3062846994252406
Ni 0.31581666603995534 5.203596505954179 10.372211534674769 0.23543925891305903 0.6938903496091018 -0.5086590790090013
Ni 8.772949432834714 2.5065164698477034 5.883812936171587 0.1272292401640196 0.6996395933880531 1.0359583988270094
Ni 4.16045491058394 3.2137751434682498 11.180487559591185 -1.4201640006449154 -1.1174209742788757 0.79379621936782
Ni 1.265081555267048 3.7848163600438953 12.719467650808703 -0.41556200464200044 0.9804441678097889 -1.369498355969248
Ni 2.9931432956094115 8.924617248146276 8.219221033343427 1.6393695713079317 -0.05455829486185442 0.2826192590329713
Ni 5.903207755352743 8.624218008881115 3.2555048322431763 -2.436993649062274 0.13737841278287954 1.5506852812966456
Ni 2.7275691089914837 8.301004563862817 3.344926639347919 1.8652355847102589 0.6342980918677658 1.0341545128490512
Ni 3.6578288683578224 3.6354263062529966 7.223773385830331 0.8618954861389027 -2.061941945829494 -0.8055613303235482
Ni 5.643076412529169 4.921574868677013 11.506269660974954 -0.1850160692655007 -0.06199006854955131 0.45890411907306133
Ni 8.021150916466762 8.976145885278365 2.613727685905184 1.7567705125276196 1.6513691668719688 -0.25462894446763246
Ni 4.338559395753789 0.7739504332291391 1.5468122976994074 0.025053086313885885 -0.0189207481639029 0.1302448870618918
Ni 6.392185523728147 5.8986888228579355 0.2648085294320666 -0.37883122487987014 0.32773466331437107 0.5547712999860316
Ni 7.8173964581887345 8.985476474640112 11.767412732409715 -0.5560501666984552 1.0512914296396538 0.6745037175523739
Ni 0.2974244278333556 4.900736552435774 5.921903695095431 -0.6858597659951413 0.8762610108319554 1.1102825634618814
Ni 7.470938868495725 6.77869146658364 2.75200427595531 -0.4198863430489671 -2.7638554228533883 0.4734467927739266
P 8.947376568079639 1.9077487666490578 3.4961096299181347 -0.5060540372859865 -0.995046748214312 0.1369788633516157
P 1.8307622567780026 3.523742810647517 1.6110771893102829 2.1782758792372485 0.15388309530612207 0.4173502068906748
P 4.692014927468108 1.536656591513708 7.98928695379639 -0.84530647143197 -1.076535034697791 0.3653697000583256
P 8.808634363325089 1.7321781768254878 12.344174880933242 -0.6587464547181171 0.883434131541627 0.0860864473771227
P 6.383257430378081 8.060138143780264 1.2288962490530586 1.196286478427527 0.3974377842374639 -0.9798929232920093
P 1.8639590301052436 3.4481558891807236 6.053807126706018 0.8383223268046529 -0.9208297985812658 -0.31556203250757914
P 7.053138860731858 4.105843519907824 6.070260980710898 1.4528074977115495 -1.181390278041985 -0.18745270373145137
P 2.502427476274467 9.038047942347927 10.388598610932254 0.15143643353784242 -0.41702624789235276 0.38652859352412783
