# total energy = -340857.38665752934 ev
CRYSTAL
PRIMVEC
9.33969781487044 0.00000000000000 0.00000000000000

0.00000000000000 9.33969781487044 0.00000000000000

0.00000000000000 0.00000000000000 13.66959182318125

PRIMCOORD
 96 1
Ni 3.801172944347457 0.07506595306924187 10.040711225802342 2.137607197873293 0.4615981209654566 -1.4949599627098833
Ni 3.470379527925722 5.909180094950292 3.0243286369234337 -0.6067998864474968 1.4082531081399423 -0.4274201895321671
Ni 7.219063370678223 5.404705658375567 2.3189778481629455 -0.8812800613131017 0.6320679169856662 0.5092943986001551
Ni 7.9243413097959285 0.13106211118535543 12.494321751616791 1.531661431895975 -0.9613768667656927 0.42726566623217377
Ni 5.8277379301979755 8.779904326095917 8.584244195127374 1.1268767203751366 0.3410249526653739 -0.016404409499952394
Ni 8.02755431010302 7.990867977173307 3.0276227483349176 -1.293756999271875 -2.2414769373757655 -2.196258688967914
Ni 4.130742860358348 7.162334046285383 4.891157705395238 -0.07461855594683925 -1.2165421433527694 1.2017107347668916
Ni 4.549899157596787 0.13656506112481237 4.7109379628175825 -2.279366256222371 1.4673859097463569 1.4875377021038834
Ni 3.1069905662074757 3.1197299139967143 6.722049484700305 1.6467797477290738 0.7068782772283375 -0.8323419408515019
Ni 5.370111417751418 2.6185337113472267 7.922157688451995 0.11713380360123053 0.1299677221411052 0.6541986874464346
Ni 8.555658182093268 5.17876902907244 4.497323196812359 -2.364768790158592 0.6408608326869478 -1.486881299466807
Ni 2.184517954920607 5.8132894177126735 10.90259348162887 1.9825655634826949 1.1834934404279167 -0.18819009611810814
Ni 3.888984782994392 6.728925370215289 0.9456135805078334 -1.5876780564709108 0.5121215836363051 -0.20164390763016884
Ni 5.535265293819676 4.716771538058901 11.631907133016082 1.3589262368803565 -0.4697968547261651 1.1183663689112804
Ni 2.5113419997804454 8.844040030838366 11.719064258847748 0.56955617160469 1.0931376762514786 -0.6355826150071441
Ni 0.456604749508036 6.471831509075725 6.694518857516773 0.7921779670381066 -1.1061155765683854 -0.11703275924699198
Ni 1.147839519024642 6.288567958987428 4.359246038614909 2.651792606017162 0.8358784932498506 -0.46878898228694105
Ni 7.002625214030268 2.172535122652577 11.415612807714133 -0.4406274322510605 1.1955192612441992 -0.04581165901747594
Ni 6.097916707945108 1.475083850285152 0.1261587698441896 -0.5534320123493178 0.26837071953375713 -0.023771134277668738
Ni 2.346813883464299 1.2980218595312063 0.10945752225128923 0.48033117859858565 -0.16588191953921108 0.3051344094163519
Ni 8.424809016017585 7.084665119441316 0.453816849716916 0.4497373649721287 -1.559065792050857 -0.3061325116635631
Ni 8.565390147193257 4.799474562013231 13.41294547344329 -4.079214830886387 -0.7969509629467177 -1.3602945779827926
Ni 8.092876156465142 2.286899722124149 4.396291015939862 -0.1386235980438903 0.4864311208487364 -0.2616639969375429
Ni 1.4709650435585726 0.24284054833812982 9.550697443320052 -0.968949536906628 -0.21851728634673978 -1.2368158060001408
P 6.114728163971963 3.9846046089960216 3.8583244230805267 1.0546078956073968 -0.5142864524981078 -1.6911071088915393
P 9.129610630547862 0.4910878477284518 7.985789049513639 -0.2418204798490545 0.1194547384249233 1.0805760375363842
P 2.461738864803433 7.622528975624931 9.696497597622281 1.0567136290964898 0.9172528798632847 -0.19081647799736168
P 4.313866314979754 2.8103991231025964 0.9931395666957503 -0.8013853445689876 -0.4160199181150255 -0.18828394138349508
P 1.2502026068325989 4.700455086015059 7.475598717889784 -0.24023642319138624 -1.4969134868918286 1.8273827755285432
P 0.6189324330242231 0.6812870573976048 11.440012768197553 -0.4929259845444608 1.7612791990312504 1.8442466411634175
P 3.510474850549769 2.0139096953414146 8.407496018219263 -2.557005288431932 -2.7718800929300778 1.9458556096561714
P 2.2936710030238543 6.050751234091989 12.932896214536028 -0.41856659579627914 -0.16835017857404552 1.5044036246212864
Ni 8.47203052805746 2.23318712011835 13.327168754945385 0.25321483772892517 0.6693903075852083 0.6355638459540667
Ni 1.9219790499679004 4.04801181731064 3.288370299250985 -1.4110221862446473 -0.34049607674509746 -2.5699415368776255
Ni 6.060212347955992 9.168613208530164 11.2224753291194 -1.4669241396185897 -0.0641312832622702 -0.3756384289741853
Ni 2.553940361412936 8.404728665763287 3.704240890805953 0.15879390234417814 -0.592270068262438 0.014233627100878714
Ni 1.6852363903186223 4.2052176105573125 5.431038002332297 0.4421256140631418 0.435761876628643 0.004550595485159905
Ni 0.14655386791410158 8.941807987332314 0.9900471927565885 -0.2840745034222591 3.072829774841121 0.16992549348096542
Ni 5.787960157298881 6.864808633401234 7.1923378254444215 0.535459229920981 0.31311357096708653 -0.6894932489826706
Ni 8.968267351179025 2.0532578421420467 9.956903315599138 0.1877496661465799 -0.5781326004197915 -0.7190190263559294
Ni 8.314600582063763 8.565632979335867 9.684823909351191 -0.4352008619188505 3.55120820058871 0.7460703740467668
Ni 4.30976618764876 9.051456039418577 0.37287062291739226 -1.1525918657530536 0.7349392971306118 -0.259474702595708
Ni 3.734664956365663 9.25895610527892 7.5861583244806114 -0.10437830370777507 0.2868852333981769 -0.8040225250815185
Ni 7.638182309125491 2.977262163866917 2.2910783029166017 1.034667705040044 1.4232069012362973 -2.120454854463722
Ni 0.30838748141705513 7.966304571978514 11.539568342849025 0.16875564154258033 -1.100402071123376 0.8983817539903947
Ni 0.15981063496105538 0.13913721389692107 3.5349700759506755 1.496464572279868 1.5405553919514952 0.7590729569540217
Ni 6.007592490591938 1.7998158028394264 3.126112663468243 -1.4614348343692443 0.8556479625672941 0.8584905742224118
Ni 7.81494542955007 5.403724990107334 7.119383578046108 -1.7162830939365346 1.4888371376415972 0.8737081625031147
Ni 4.226782972760649 6.834930940162397 12.13148943588699 0.19024337910271108 0.2898281180765847 -0.03514466622193302
Ni 0.5333929428502512 2.604953790756645 1.6904638191731949 0.9185777693222954 -0.09479580222566254 0.3483058025975034
Ni 1.4769704692392767 8.259374949015546 7.380731671530246 0.9623096629926071 1.4957276941138433 0.14200074204623933
Ni 2.0398273567161485 0.4699465078049033 5.47382409189042 1.0886243617621574 -0.7234279540569025 -1.6519026707779356
Ni 2.464680869608132 2.0551724801895492 10.897098003447649 -0.9317544159135694 -0.04389104495599538 0.9477837014622904
Ni 3.4790561071751376 4.357846951885564 13.122972140194317 0.8908165400486271 -0.8672451804865903 0.6216253814961036
Ni 8.070227389317852 8.140060309713846 6.87829235510455 -1.057461820116424 0.5715806582338866 0.9253076318469612
Ni 2.731161127029357 3.9278659449053883 9.025935315200032 1.152372807763712 0.3839001547623453 0.029865162990548567
P 6.532885113546582 3.7025830944477494 13.589993454650546 0.21275981503767233 -0.22319797965186075 -0.29440828124809937
P 7.224648509958255 0.4817332064192867 1.765933247187081 0.9566966876812041 -0.3184802345956386 0.07599126792464977
P 4.313903673770925 5.263816317172736 10.075514675657049 -3.157194097320814 -3.005613424895624 -0.29157878221910427
P 6.990240774757152 7.304829815508557 11.674022632272688 1.2405300216269346 -0.8745077755862746 1.6938445624273604
P 7.5964805584811 6.9465029699939524 8.85214035073397 -1.782323164185743 -3.9236301795081268 -1.8145699400345914
P 1.2864686533616405 1.9992090110157101 4.179217759842003 -1.8942615396289635 0.9863196527539594 0.1787019541220148
P 5.579656877428364 7.127879901128124 2.3887341830370397 0.3299738370575349 -2.6168081195221773 -0.1184214120644025
P 7.01981025796883 3.425773131267802 7.120094329048133 2.3853584413844855 0.928824129640652 -0.4225942288984335
Ni 6.393237952150181 8.08207012611899 0.3408877617960814 -0.13622758700788795 0.6432439882071438 -0.18451727525221126
Ni 5.5384968292559495 6.7714209951720585 10.004569397253945 2.5757221481151444 2.589127108667141 -0.5004351484373124
Ni 3.250859271006177 1.8444502185907243 3.4461859747635204 0.9089466739904345 -0.13271108921419728 -0.9374182990675662
Ni 1.3209321382166916 3.216760034365041 12.989625538928868 -0.5741543324983338 -0.47053399000250573 -1.6747065560463286
Ni 8.962906364646017 0.9532562552115973 5.945657218649448 2.413536189370282 -0.6816464992447422 -1.4332532297287057
Ni 7.052629956012367 9.339595056021064 4.607623159804549 -0.18783862631596038 0.7472474250740034 0.9322349550944138
Ni 8.914629466755567 5.840374541311494 11.212633155585454 -2.3829482892810963 0.4070441969789763 0.7356802890616942
Ni 0.7972132543401158 4.5893033425841745 9.858400324888901 -2.718182603406622 -2.8174940341144508 -1.870364935517024
Ni 7.308089370038208 4.690928594266508 9.52214225128866 -0.03978062233204762 0.009324876945351683 0.10956678988725001
Ni 4.670035690304246 2.5606556041258846 10.24135408554329 0.46660611570300925 0.7734251119106358 0.8538571892154585
Ni 6.563285829861811 6.82441444044782 4.706276519649247 0.23026208558749375 -0.12927840938356444 0.08176288030110435
Ni 4.6988673373903005 5.096775822150354 7.92405738298303 -1.1348592243599809 -0.7733034987311069 0.3982865053910044
Ni 1.0137494778148943 4.911653672201312 0.6951126120401337 4.252277584444754 1.4698135453512426 2.175977570121375
Ni 0.5455635030439143 6.934604195006057 9.135948549469987 -0.43841345531887715 -1.3151143819017286 0.1924720113229137
Ni 5.802511406459901 5.7443998067937425 0.4983868215534443 1.1190443688149114 -1.2681159016650032 -1.2386937397491442
Ni 1.608492093556033 1.3794360051901442 7.338943995666162 0.24871592141730717 1.6383403587124687 2.0858845726880206
Ni 5.171895011497014 2.319822156843405 5.445022331837301 -0.28694745409468 -2.7122269000438193 -0.9573831722252671
Ni 5.590808476592843 4.3434264584936395 5.809070676219713 1.091471087182333 4.132270058840155 2.1287186371344116
Ni 1.0860574181259528 7.222733871910753 2.213161874081029 0.27635013819480797 -0.9311970007482028 -0.7427307681505726
Ni 3.921318816752708 4.184324706595049 4.296189068967517 0.5341801060982413 -1.0943733484307927 0.586819329560512
Ni 7.062445978392491 1.2423292415933553 6.989671987161576 -1.044477492041614 -0.7542020020149656 0.8872059398792334
Ni 1.9957720022279974 7.9773627741650674 13.522370306752306 -0.8278759346603484 -0.1708965991449831 3.342578862779644
Ni 5.236749872969502 9.097192539509411 2.7883228794299995 -0.045906018503495134 -0.908827631914067 -3.0072985259075304
Ni 8.916562784198655 3.7957372402321075 6.019459510607339 0.5078342691148608 -3.2522675786878956 2.790212315580362
P 5.630941158008062 8.805756609586101 6.239540149394445 1.073679310416551 -0.5781382568467462 2.0034169530104076
P 3.034897438945649 5.912308893710845 6.430039163362744 0.5958693555779222 0.05382990133626212 -0.5495357626187052
P 6.32622562048758 1.2730381679357425 9.586292899547576 0.6643848839508171 0.4105743216194219 -0.9872401076856998
P 4.406385361314208 1.0336803929045093 12.172061083098466 -1.1777845629685975 0.07266451754426195 -0.17796559017662253
P 8.833318057772349 7.382293269001185 5.0570242004050785 -1.4508945969595528 1.0616516898280555 -1.85927165381734
P -0.05803408017448001 4.9950384940945085 2.496805694135892 1.2162644642113505 -0.14930087525207836 -0.10158968521904439
P 8.837548940872441 3.630751478724118 11.441584639336066 0.057472640295171996 0.3166771199486288 0.27465783809404953
P 2.5011150306974423 9.276776248667385 1.8568776204736868 -0.4723281057884511 0.09506679649886209 -1.6494570374509205
