# total energy = -340854.8012436751 ev
CRYSTAL
PRIMVEC
9.37677979243378 0.00000000000000 0.00000000000000
0.00000000000000 9.37677979243378 0.00000000000000
0.00000000000000 0.00000000000000 13.72386504564938
PRIMCOORD
 96 1
Ni 0.11818962206769429 1.3007469057265701 4.334476513496999 -0.28923470746695995 -1.2071933551480176 0.38221196842664495
Ni 6.297435994370377 5.70922121536855 10.582389982579715 0.1859367813075572 0.21089447969415936 -0.5625368028640635
Ni 1.5236048332669636 4.512331523654577 8.004911042091514 -0.7833521412163605 -0.40979630580281684 -0.3944360212966626
Ni 2.0477574520905617 8.932404910015011 11.175412236628876 -0.05230755115446476 -1.1833695132555424 0.06598067776618313
Ni 0.21945321876394228 0.7185923395647882 1.9096346713421182 -0.06641133754569853 -0.6147651640411606 0.058290251100460905
Ni 0.07149232055955639 8.589599214178378 10.034615379868384 -0.4341012010967685 0.13276842481469392 0.06994968971626017
Ni 0.7602890043599505 7.98482504189863 4.575083747682792 -0.6145155099241998 -0.17995742379567073 -0.0861016168857743
Ni 3.720068637562814 1.7802754290747305 3.8529479229992463 3.8299013850943977 1.783577605418135 0.6238128760657257
Ni 5.375267199743898 8.867105014891886 2.345546165374551 -1.1361278066597593 0.4060044428605523 1.2414234799754813
Ni 4.369738831934682 3.5616479413960724 1.1946758339829893 2.321684043153976 -0.5630242840234433 0.870097819444037
Ni 7.668199315502515 8.983902185146572 5.271006784196221 0.41708898280948814 -3.170428850843533 -1.030183186906129
Ni 2.6349876692044036 8.982927000038472 2.3956791190327626 -0.45808110895113363 0.3327002348497625 0.5903916202928026
Ni 6.579423895869189 2.7468151461197374 10.680214176413937 -2.859537484338746 0.9203009226609893 -2.418080357097539
Ni 1.813816170725422 6.106430988101272 5.902511342895769 -0.43025174544369127 -3.2060535420256784 -2.9337760312383474
Ni 3.972650957340472 0.27217603902654885 8.758597855734033 -0.07479107696896152 -0.27476942397124937 0.49933548761523033
Ni 8.326964986363386 2.244979263423801 8.722325658102674 -0.7728085613725594 0.21547824241009986 -0.7293206653922536
Ni 1.6930807529187948 4.6056586138556765 10.82188513067108 -2.5348014986413827 -2.0134249720657134 1.732390283911042
Ni 3.0243772075125595 6.28387717065584 7.858065980693511 -2.4615584828858315 -0.8975230055345254 2.8891805040161596
Ni 4.777000512704737 2.193716407789378 12.793264022203713 0.12428301305150208 2.759215867198848 1.4407863048809573
Ni 3.4453664940350923 1.3659905401703811 0.8875562870348671 -0.5491277285470091 -0.6712409876407021 -0.3691168258055837
Ni 8.606758721368974 3.628401237401461 10.504095745891165 0.9690148429269247 0.3785977687128254 2.2978319191267262
Ni 0.4854377700320479 2.4375501919337967 6.782265211387852 0.9248407195128717 -0.13068480281278783 -0.4888294458775839
Ni 8.878244629395946 5.905983564487396 11.576615579914863 0.08254192455897398 -2.230518381481733 -0.5924647007717474
Ni 2.669362944264911 7.6455918991984 0.3420714939715923 0.280595029514091 0.9357586519769562 -1.7943464138988647
P 6.1429254154159185 3.359071988748172 2.8528759034054443 -1.1001418754834538 -0.042107727803327485 -0.25889543305347024
P 3.279931966513943 5.344605129518077 0.8301891476949367 0.8764073066018325 1.6687991894229581 -1.7096265078519652
P 5.059710426254737 5.921136440782481 8.372435805062493 1.769188426575998 -3.024287347156043 1.1004648060405113
P 2.4319616311219954 3.9654683439481233 5.545292598697023 0.2556589283940436 -0.48748424470359913 1.8477533687650949
P 0.7077799746787349 7.368629951718256 12.449700682552326 -0.28590178643898506 3.338779543638211 -1.3105730423879494
P 6.245966849578472 6.393238554461268 1.08415829321767 0.16847796240116147 0.37504296148203153 0.4182716902636796
P 8.290592457187252 0.650847917925495 13.33360002543182 -2.304170973970877 -1.6655619134325834 0.667693893719392
P 6.030375926449397 1.3901545019355006 8.560576205076554 1.7330106911038603 -1.5975135545040937 0.0670764819335232
Ni 4.193811687721577 5.6193072730457985 6.140071123618751 1.5902746135534933 -1.1041846780942595 -1.35110725505657
Ni 6.21750832262576 0.24220878819024882 12.233686866650412 1.7431755474520043 -0.9496824611468999 0.8027133193517918
Ni 7.5100505459524545 4.748166914556603 7.776244199412008 -2.37599859743614 0.6927035283898522 -2.2358529063207686
Ni 9.317528013475231 5.244704916617191 1.7346967774069413 -0.9501956533378927 -0.7822946464861237 -2.0327211012911635
Ni 2.9475063660106384 2.695317870988175 11.03387818335806 2.1783334719480614 0.28823814788164553 1.67222595571632
Ni 5.756461432432062 3.7076350274345455 5.078612139148074 1.7011135852849477 1.655666508695742 -3.2470135293778077
Ni 4.832586063866409 1.2536098332417989 10.902636083689648 -0.9930212331438509 -2.134844290416175 -3.7636607687986086
Ni 1.3726480538891372 5.802970260664501 13.476575289771048 -0.13606766439125598 -3.7299865164746144 0.34363822191850496
Ni 8.092564242783855 0.24061004721975876 7.443741709313643 0.4553323425614029 -0.022508722625477363 0.6065939410842779
Ni 5.693665137538386 5.897788258867407 4.181112714722546 -1.8603612873370927 0.6207548059656922 1.2636421821643655
Ni 2.4624455425299905 0.3299585697154102 4.802542861113036 -1.314885553720374 -0.18300109571800094 0.1619015947352244
Ni 2.227313410119383 4.10708585055992 2.048451333802094 -1.5295508133108755 -1.7460191875483866 -0.1980075964291622
Ni 3.2087903375221067 6.166789320224701 11.751197156214388 -1.751044922897752 -1.153092459538556 0.19980016955321073
Ni 7.40788115231926 2.5223444124390255 12.625366214606624 1.7113141799670335 1.1377326892530342 1.5877413056086784
Ni 4.043933238030592 7.051563516667518 2.0226914441004507 5.029714388617944 -0.38539190881652335 0.263305646306024
Ni 4.319713711245154 7.179500301426265 9.971939107757242 0.22528880074261845 1.1755669864919882 -0.8720215188293111
Ni 2.8480468617643746 1.3165842869533015 6.972917650733259 -1.8438152100529535 -0.10126084112471592 0.6508189723409243
Ni 0.7382395064590275 1.3758455358301176 13.043669053691941 2.5096957047126907 0.1724050653697095 -0.15791432795270222
Ni 2.120718176380199 6.473860107917417 2.4432184553746246 -4.337176696381995 -0.7881441632883652 2.072407621247508
Ni 4.246077858803756 8.11256491427978 12.068080744057356 0.7105014758032215 2.107282578747822 0.9690266700014667
Ni 8.226417775650397 2.955607903831773 2.9573829282641118 0.5037063629894164 1.0367634112268078 -0.006739632716678716
Ni 4.692853290011612 0.11668933728600275 6.255241422563291 0.822500529281048 1.94255765563119 -0.3859647506008579
Ni 6.285574367815128 1.4793089250875207 0.597791284298962 0.06756550575479976 -0.2977347745181711 2.405532345229199
Ni 8.170307124815134 1.064508313289465 10.812003880027664 -1.3569673133817726 -1.351291346042918 0.46651715553362877
P 3.0027637298763152 1.0185902221898182 12.352370645018075 -0.6355461053422539 -0.4119604033336711 0.920898189925356
P 8.900467597724752 5.015845849950031 9.054923791355872 3.3460711922036173 2.2156080400288034 2.0819914082812017
P 6.387068633296562 7.0454967400815525 6.163196138172549 0.9191290138400751 -0.033046388932007606 -0.5809577285734123
P 0.13717853901396648 5.358285851371127 3.6965235432701427 0.18037471383874742 1.3657684566131703 2.7315824217522957
P 5.382956159250067 0.2509282558058423 4.335725500577757 0.4650881363965861 0.3128927132055321 -0.9363944857887421
P 2.316871034806483 8.108035929595049 8.709411956844264 -0.10979664650986896 1.0452742769112966 1.5428189911746915
P 8.123273196909103 3.295741217401017 5.973449495764088 -0.9539924013761635 0.896772757632062 0.09824647977842434
P 4.605386687238995 4.15100668754394 11.806531409675127 0.3353376724726096 0.8937193155177188 -0.7645229243249995
Ni 5.2217974433567385 6.138124504114506 12.780225609772824 1.3127453674489198 -1.0381006419809928 1.327320179939301
Ni 1.2499997729858536 6.446658069469373 9.837074758019035 -0.11453853207022854 1.8792100446124798 -1.2561083356811658
Ni 6.146854286187974 3.029149988474315 7.127434793433637 1.2418901351992546 -0.978868852902869 1.5220182523792563
Ni 7.939244514874864 7.449607822810057 8.640216009678685 -1.4031273568776028 -0.7790979939256969 0.3010728377524686
Ni 8.494143594943253 6.030197767631571 5.826865108846904 -0.8087952638798135 -0.1371030476343058 -1.1674713539680475
Ni 7.495507160349932 6.487390801292299 3.2008031964155763 0.8790141480970602 -1.559891887496578 -1.722408232997666
Ni 4.662997622855951 7.719293389098998 7.48543556107484 2.704789469929168 0.7374535789120332 0.21001747640584473
Ni 4.539017839208916 2.739135563393454 8.926015572200981 -1.1999631559481656 0.23086346661691853 -0.16527385364156696
Ni 0.3472127823828515 2.971210865561365 1.0101492449368261 0.3634208038620709 -0.5010946363981822 0.378231129402026
Ni 0.5538423169752853 7.092924492742777 7.373229262252129 -0.7639323419288521 0.4417404628095812 2.014893843301756
Ni 1.1478397561325449 0.8815692130779293 8.532209570566721 -0.5112291537290228 -0.6691560800872153 1.0015544674258428
Ni 0.8350013111322123 1.8384771018244768 10.75034311317813 0.9714915866021915 -0.006147507658634574 -0.8296037159847325
Ni 2.546845938280026 3.558637995052804 13.299495739310007 -0.16133595203974152 -0.05580322301254905 -0.4502431009639536
Ni 7.23340740898842 8.536029670692104 1.1196962889839888 1.6553777738107296 -0.7466465582652109 -1.044859043750749
Ni 0.33661795879014356 7.469796029903693 1.063513436943606 -0.9600581479542692 1.880166752098794 0.5275376610810593
Ni 7.613654586908142 7.6054686580680375 12.35342740811118 -0.06923363748584205 0.955091547977613 0.43196975657606246
Ni 3.4594222870835654 4.793775571920026 3.8485427118090043 0.9456725686565584 -0.08914657435968518 0.42103511194142973
Ni 7.158899516017663 0.9208522947305454 2.920068032709477 0.5793942407410344 -0.36678226413513604 0.02734676744406903
Ni 2.734578448369066 8.065221552637526 6.302657923088653 0.7606354163451352 0.5496584042394985 -0.3637717594435864
Ni 3.58659955267158 4.657240280006209 9.727242659863352 1.7145177745059954 1.3737848991597434 -0.3822032266758966
Ni 6.931578241251737 1.6171757197450882 5.1532972532586685 -0.3574090504503522 1.894533048122795 0.5593689466590431
Ni 1.0786109902373655 3.4084032277261667 3.9483838509966107 -0.27478176526642356 -0.07461547062304569 0.8381616328570726
Ni 6.868031803967214 4.279965541310213 0.9200918378818255 0.4856492483773894 -0.06885928486555884 0.02072849079660301
Ni 4.20591711055385 2.694867785553668 6.110784627002144 -1.7550103353034034 0.35902550300785263 -0.14311840059045028
P 8.847066836276419 4.1317655352187455 13.262565291730679 -0.5978128524575381 1.4149760286860729 -0.9776295811791293
P 0.8893481896709999 9.066408471359722 6.692113098856007 -1.5829533973017318 1.9906483404908297 -1.480208515432322
P 4.949101930724529 9.005121838027621 0.31185107007838175 -0.9202836962698087 0.22444290780255538 -1.0712339341998518
P 2.1271881545012437 1.8530392409867702 2.6936516172025087 -3.13887113064191 -0.8131003190130706 -1.9739814213581102
P 2.2669959425951247 2.8042572996987527 9.133190835382756 -1.1039427372867827 -0.46146802314549557 -2.2967363720697027
P 8.407745945077592 8.27439875832487 3.1440005392247574 1.4010234231607226 3.04713879783292 -0.49187800289592065
P 3.5470858022337795 6.975902279770837 4.307495767054253 -0.3834846644914815 -0.010362059960614413 -0.43089400701338054
P 6.574716752366632 8.199628315517318 10.466889620983205 0.013635588505563614 -0.8959664596806827 0.17318616651010818
