# total energy = -381171.83410368895 ev
CRYSTAL
PRIMVEC
9.20481781947769 0.00000000000000 0.00000000000000
0.00000000000000 9.20481781947769 0.00000000000000
0.00000000000000 0.00000000000000 13.47218131604627
PRIMCOORD
 96 1
Ni 2.6910193172422066 8.498532250940526 7.687064957581363 -0.9846960011076072 -1.9253847433963294 -0.15446416462057272
Ni 3.133844698255612 3.718764853666288 12.534531029291022 1.0085473538039083 0.06250326074054396 0.23195721390172958
Ni 4.764128411609861 5.948797684117683 13.63721574993487 -0.9428052744110924 -1.1343126078278918 -1.6738346949643366
Ni 2.420986778425185 5.46946599519085 8.155492619187408 1.5332177206395015 0.035401262317429356 0.4921752224213653
Ni 1.294749690141881 8.291985341392014 3.0383944182407157 1.3232655502539532 0.8708992322994099 2.453010079095188
Ni 2.2013506177791204 7.298251607222121 5.6325974604871 1.1676428465489053 -0.7423556441993409 0.42398236749521173
Ni 7.875817113106113 3.3558280874740216 9.842802941068147 0.13201997668444362 -0.06706465485898128 0.22206309471646918
Ni 0.11159553066546357 6.772720937100761 4.928150903281809 -1.8815345789805982 -0.4596584807405826 -0.10556486781670851
Ni 7.4222036854778475 1.3293690103795006 8.728599311265736 -1.7397672931014039 -0.5142756538648304 -0.8385362425876721
Ni 3.855189460218207 2.8999870939065104 4.9427681541558695 0.09665239581842709 1.2896527472955144 -2.209984780304755
Ni 1.225833218294218 1.9462206791920134 5.184540060961846 1.4378573041596205 0.28950390196794656 2.2066505737251996
Ni 5.373607021259828 4.658622788487394 9.137197497285372 0.22347128791790546 0.2491486380793516 -1.5536718747287952
Ni 6.589443807281231 1.9675942664272574 0.7317995941683618 0.21231527130108596 -0.9302225526500755 0.6031671747909161
Ni 5.1762097007345 4.206629408814943 6.491422621618272 -0.3654370629611513 -0.9313301838919573 0.8012629600585104
Ni 7.385135883670643 3.5541919138820806 7.375183634523896 -1.842144250108434 -0.7338869446066973 -0.05414023348782934
Ni 4.578936679660733 7.055621811384997 9.37434766500831 -1.901128699062442 -0.00189027504417739 0.34323455872218306
Ni 6.722619113103589 7.073341085901726 13.321643294887165 1.1675461730700407 -3.681410407338124 0.4950936816197409
Ni 5.851650035676353 -0.09595562451929501 10.361508238693842 0.4590920667141513 -0.4502197039251859 -1.4901519997982786
Ni 0.738593670283062 3.5290259416593597 1.7785705687735494 0.6391387077895186 0.6886566120139882 0.6073429034351605
Ni 2.0357099191149435 5.989648666094433 3.7392446530804553 -0.6009192592970037 -1.8418112922490473 -0.3783216322333033
Ni 7.993040469454448 1.155922626110032 10.928552637682968 1.1021547921484245 0.9093225692726146 0.2797411661542279
Ni 5.395376415666095 8.548201448494952 7.879083902989743 0.8009572558926334 1.0410566392855232 0.4033785752019311
Ni 2.644765107140095 2.204471051057651 2.6079587221621248 -0.16103667563176782 0.0783512835163941 0.28446608243372296
Ni 6.425818963743893 4.4770577548029875 1.087914669792136 0.8465426578319162 0.3537002341401973 0.7714775012659616
P 7.335687601746556 7.977502736787312 8.936448702551452 -0.8697584338267472 0.12614346329900858 -1.0703962687899051
Ni 5.715050537583751 3.422673475287262 12.47651950524594 -1.0939516875123418 -0.6305651071878947 0.6168457007192731
P 1.52738305370619 1.0675655787925864 7.196556778722991 0.9907319228890421 1.6487350716832314 1.2138573974317548
Ni 4.961516527317259 2.581666080224678 10.080626901463617 1.3232084717637729 -1.2413692296987782 0.3416412460931342
P 4.147295152433211 4.0348398917730135 0.9975749046924027 0.040551181949485 -0.28246473573297803 0.34068916659251003
P 5.4490865282921295 2.3409785009709463 7.811373262291012 -0.3486565010687027 -0.11461026584842841 0.46877586966081847
P 8.902955131546765 1.2489833353901005 13.112325735141493 -0.21361984904512243 -0.35028118115631934 -0.49238116778458435
Ni 8.310698736245266 3.304317926333442 13.40977850609248 0.14786748523966148 1.0463510549152433 0.2625867658621284
Ni 8.759995104264002 7.720458196070604 10.44721890085619 -2.058121543642139 -0.4538539582436635 0.7439972935678218
Ni 1.6706192255268768 2.149757613277164 0.12824520533863742 -0.15092041313337234 0.44997544912486376 -0.40724088637081474
Ni 0.5126669370631105 6.50185075985204 7.518636119565957 -0.17648180654224446 1.390098805828419 -0.31830205714656146
Ni 1.3689497274818048 4.867912733779275 -0.15228266688304598 -0.7304087562501098 1.2451410380363845 0.194072265930498
Ni 2.26196434385323 4.52092791706103 5.9503661850930865 -0.6642735551839334 -0.10249162820802347 -0.886719230050802
Ni 7.74159245803965 5.501968207304394 8.749144464887213 0.9681422105139842 0.7898498331255623 1.5036160957229847
Ni 0.21566428170893784 8.99416567242275 8.345060321580824 -0.2927751165200506 -0.3660829240752663 1.283761064401428
Ni 4.095048605858169 5.79685375453449 5.14525481851512 0.4608607285787999 0.6389718431943512 0.8051209003520198
Ni 5.433392313720169 0.9879346988735092 12.253272294525637 -0.9786086572629469 2.0031752693132465 -0.9579339025224146
Ni 4.615102409310722 0.3906193356372594 2.7373987128681754 0.36846556537482994 -0.22706851835086056 -0.4863231345159625
Ni 7.936679369264354 2.982802840829633 2.630968926025459 -1.423650159421303 -0.7887306319194546 -0.1765838793377475
Ni 5.47520980157965 6.746643687902894 2.158054836159958 1.3087118208094946 2.1785317040017964 0.5329182086666823
Ni 4.628697925394466 4.96824524922465 3.105674273460288 -0.5383661191551309 -1.2157307031950675 -0.10206508219356615
Ni -0.1616485691276028 7.664364035600502 12.892635266069636 2.0975368122149685 -1.0724413242443918 0.049373922447437546
Ni 0.6179700541911008 8.783476594805391 5.986054184692468 -0.8399575484152308 0.9268896316221005 -0.9498557534999706
Ni 5.791082333691898 8.918511273849763 0.5179532640007508 -3.558300588659117 0.07033252697697565 3.360131526951426
Ni 1.047232135983519 2.2772443416183057 9.585874381057367 -0.3055761249394608 -1.6534713008166362 -1.7887077275558485
Ni 3.687937918416145 7.6931843205417385 3.7854408728296023 -0.03815954178885686 -0.6175067313420397 -1.6361523499222146
Ni 5.099515157735338 2.71393931388982 2.5474950346202867 0.23216727303000664 0.7272195598888509 0.9102563939407936
Ni 8.759313947737125 3.6027289188310223 5.212252085824217 0.428291793503843 -1.2491499020854615 -1.182052594216332
Ni 2.7313088053251793 1.81033915689801 11.286346672097313 0.5994033368731095 -0.1191616326645367 -0.8206015124861222
Ni 1.5446697017801732 7.200468826343568 9.690378519988968 1.6100762216604527 0.2772690504646515 -0.5042496370873961
Ni 3.144209323245657 0.17783708242244517 12.736748912966693 -0.2448710937499202 -1.000407498305593 0.97290826444406
Ni 7.362179067751307 8.946070498734484 12.53695649881578 0.5492771096406799 2.1117763528531177 -1.8288408481313083
P 3.6135629895355366 8.189563332276354 1.3372510959736177 0.5441991808971403 1.2391007453795757 -0.33144810761021626
Ni 5.798851200025466 0.6547221307432798 5.525655885767432 -0.45535779648269964 1.9241202748616086 0.052372857174761415
P 1.4593962684695347 3.62558448175312 3.901530195608867 0.2842524237610201 1.30216450660928 -0.5059105697295868
Ni 0.5349711313911554 3.27542400284876 11.526367822532857 0.6289987911420393 -1.4201737708369284 1.427119348916826
P 4.3797260100030435 6.064888847860534 7.4150754744722605 -0.38141826888075603 0.4859012164871954 -0.41293073766674043
P 6.600388335800916 4.5744815477822405 11.053453732667357 0.8056271505644771 -0.4690190960198762 -0.8152811287144732
P 6.561350702956527 1.2661871401027067 3.2479945658968634 -0.06769328958191569 0.323925573980926 -0.6248240909390594
Ni 7.899436675916465 0.7876930896075737 4.722565897207063 0.877246000453044 -0.6480560648838065 0.8464369854919873
Ni 1.0249472717731287 9.26934370446307 0.9719855108448667 0.29922035792476215 -0.3388832237320228 -0.6943919718358686
Ni 6.081328652684887 7.733860410977803 4.528835776145353 0.7577596374592369 -0.4392372367717532 -0.9212116074007167
Ni 6.406691352083757 6.574697688956141 10.698137635239972 1.8070250378077977 1.1937284878923635 -0.23594242380172267
Ni 2.326278406735509 7.237205254705264 13.018087729648077 -0.709288686442043 -0.03904580104855211 -0.4416599872806329
Ni 7.441819152488315 8.420880406876563 6.677661861847922 0.9937514264416564 0.42237054292340165 -0.10146138717129624
Ni 3.713067071367143 0.7561638267493127 8.924430892261041 0.8122186877390656 2.0375509185796394 1.1696632194130436
Ni 8.636392809089644 1.622892244555843 6.790963045275959 0.22891354197939928 -0.06161931547369388 0.04896203172099955
Ni 4.337724425784947 5.356301963549984 11.135592925472567 -0.03619907562837637 0.19553933739432774 1.0704320071238467
Ni 7.906036530372827 8.630308424437406 1.548775050577296 -0.541805483853983 1.1475008243833915 0.721335333193932
Ni 0.3164192982973355 1.3366868406344616 3.3584938027467723 0.6388070354817127 -0.3836384164605264 -3.136970571185088
Ni 4.029906109362122 1.754438297604454 0.6703288995448976 0.33295323140083305 0.8047054100811561 -0.4791204461199361
Ni 8.826260588547603 5.454719876865759 11.610285386162294 -0.9156922202443843 0.543642794173038 -1.0947420446241212
Ni 0.7530120970898176 4.560434995619888 9.706329548981195 0.9739603598576582 2.462187374719082 0.28672993876723524
Ni 4.33081160751894 8.273382404353931 5.950083597182611 -1.1293902308256099 -1.4293132712443513 -0.0652132034725393
Ni 0.28362713441897314 6.965359366755882 1.698303635935456 0.14777672529806807 -2.680388158266668 -0.9900806624582884
Ni 8.617605775692946 5.0937897609824 3.321889923763279 0.32209160609598075 0.3728048161801321 -0.8122780802220914
Ni 1.0456120880277038 0.12469858898991236 10.890035997533458 1.0686983122621916 0.40569642470183037 0.6808348019767242
Ni 2.9335846793538147 0.5889960487904211 4.383604920279069 -0.19042618453747848 -0.6485438031535025 0.4492537404674908
Ni 4.833891726707154 7.624663655865098 12.05229429982524 -1.118867476917415 1.2507792101587685 -0.6690923167288154
Ni 0.4554415044693165 3.864164157700706 7.633580362994633 0.859996469343977 -0.825429787112701 -0.6981344695974364
Ni 3.0299683279068903 3.777325905341837 10.103098623478003 -1.40158212387767 0.8094771204381866 -0.34242131879226834
Ni 6.488292063040018 3.3113688168684106 4.629715057775816 -1.1374046164896539 -1.9869338677537198 -0.38753132375702937
Ni 3.6384988413099886 1.424896610865015 6.512317558321117 0.717410544218229 -1.527974212852375 1.1762462719472002
Ni 6.542775380372236 6.281395370410137 7.008296160475743 -1.234837085007215 1.0994736457718353 0.6657694230031695
P 8.495402612844064 5.190983433513384 6.443717732210272 -0.9190871048585463 1.97977257411859 -0.15004649516885127
Ni 2.9463425570058597 6.252252916841324 1.5199041391374408 -0.9350235735831445 -1.4620084474845272 1.7510492937731261
P 3.3722218682087206 8.72882759075042 10.617547613292508 -0.3461028814089136 -0.06311903994767194 0.20016320931958428
Ni 2.777388123886606 3.0691348282023094 7.871755026953266 -0.10107212215267755 -0.24660093195683336 0.18504692250343616
P 7.608371128127637 7.044493186506698 3.046100691812355 -0.12859603860455918 -0.2556944096176693 0.6315878920254543
P 8.418385901217325 5.640666403885211 0.18833701823607266 -0.20110269041471815 -0.591322102526872 1.3348730525858945
P 2.2045354847831664 5.954790020590613 11.264804636693937 -0.0238418396146041 -1.8518033704647527 0.49736190882862724
Ni 6.804983823948104 5.468453465218466 4.948858061698867 0.544094794108792 0.7689156540760564 -1.4370234954044157
