# total energy = -381167.8118869971 ev
CRYSTAL
PRIMVEC
9.21597166182192 0.00000000000000 0.00000000000000
0.00000000000000 9.21597166182192 0.00000000000000
0.00000000000000 0.00000000000000 13.48850609176657
PRIMCOORD
 96 1
Ni 0.528062258790643 0.7833262345942966 6.5594068176767335 0.26944646909643916 0.091685538731455 -0.6101101817676524
Ni 3.5161787837513097 4.956754921010192 9.221794971115747 -2.6353537437348487 1.550079015171214 2.2046376570602293
Ni 4.527852828081957 7.102997988274336 8.88924862395327 0.29153661612725923 2.072064378975477 0.04985111919417221
Ni 0.5800523182426304 8.927087559322418 4.13001869633618 0.3395216286469701 -0.06065463756757941 0.9999966360204198
Ni 6.5177745884798455 4.590843992592679 3.816141142436229 -0.40102370181650937 0.655629249245374 -0.6952615189250154
Ni 3.2488511013866415 4.2243063781200485 6.877317280660794 -0.8315132743026196 -0.7339471084206715 -1.474590912135228
Ni 6.890496119761063 2.4355692733577214 4.802892435313131 -1.6115186105339343 -0.2951796121964852 -1.523361653781028
Ni 8.668487401872403 6.464109987024697 8.12443727589914 0.1290981750519583 1.8061950857073346 1.1905148660510723
Ni 2.529056087227036 8.05459311505628 6.250843192885325 -0.2827989791439452 -0.8684230028447754 0.2872940388008214
Ni 1.8035287388573833 1.5033461184560326 0.6601271289352872 1.3587390605702148 -0.8735986335084439 -1.6741563399698136
Ni 0.8351006403155524 5.516643615429412 6.552028510974863 0.595627157660129 -2.32087286010659 -0.39689682413232935
Ni 3.8481104256214875 2.9454981868241075 8.596993582149157 0.5450347894245581 -2.0250203902127963 -0.24664104116614943
Ni 9.035476598943573 2.5035739263093846 4.616413705238619 2.336604926129866 -2.2897080044680114 1.4740136994755195
Ni 1.4790159539632302 8.588695521501688 1.8843168657363063 1.5202130808497174 -0.6462951163286418 -0.09304950895851717
Ni 6.400611944087043 6.133109158265797 1.9387970806602464 1.6142164690810716 -0.8917611633500835 -1.1585755941403142
Ni 4.899560602509308 8.548089951518623 6.858500110258747 0.5563324738255645 -0.40446769450105174 -0.8521556331433194
Ni 8.837794012439552 6.523082988005547 4.5576443772256825 -0.40463224510337403 0.3196485438721269 0.28628796613381013
Ni 4.154688930173598 5.688281866760455 13.28969894182123 0.21483109574440418 0.6514668903375683 1.2761611405669828
Ni 1.2867892225272923 8.369770120923459 8.258013565353187 -0.7827415042155552 1.0857280140509689 0.588542997119838
Ni 3.4482202106566406 2.831349165078709 1.5556430697555998 1.7986494121495924 1.2434065718437812 -0.863443547352313
Ni 7.083773471936462 2.955082797078848 10.483765582666102 -1.2774736887308191 -0.48192989054427327 -0.7634831702065754
Ni 9.083104739132514 0.49584045798905746 0.8721940035985377 -2.4847135808460563 -1.8681126491477376 -2.1755929330884465
Ni 5.997772618274583 0.7352612573610532 8.411189461181035 -1.6650716040597258 0.7765456598174884 1.8856097774912366
Ni 2.9483827858719285 7.781321131139392 13.365989674657543 -1.2017876107514143 -1.007678835156026 -0.3503547147067321
P 6.957846438743411 4.1140004164479445 12.315059278556614 1.4915812760456377 0.20748211157850074 -0.5809068207308189
Ni 7.445795260423686 8.725626424544894 7.328925683921365 1.8491381649277638 -0.3913879784989582 0.3865712738366052
P 7.0011983682033145 7.569455164652634 9.075052744921392 -0.7385735514490893 -0.6050710766818482 0.3156376229405209
Ni 3.3771282072863835 9.109268881933675 3.0453808848441812 -0.24030610008705708 -0.32285702350709555 1.0073566759299168
P 4.121373193566976 7.661393695326952 4.801475940509138 0.5096726078751803 -0.008221102358211649 -0.5845914686712577
P 7.50206798178469 0.9930854300192904 3.2084971274227647 -0.8701685247809723 -0.5802486183215297 0.13790111805556896
P 3.4901989603781236 9.093546434727342 9.195802245382602 0.49169211213735964 -0.4925953406779194 0.9098185350724266
Ni 6.227969151873531 8.631061342021919 10.859204903912822 1.6440500075027364 -1.0408972308895235 -0.9365042718937291
Ni 4.336446318100512 7.091164680998291 2.013712790563861 -2.2096078565813104 -0.16823987824842637 0.2882499749561874
Ni 8.122505608293954 7.132590472435847 0.5411885668539379 0.31816810267185847 2.8861005795392556 0.038386570197998404
Ni 6.046469811145783 8.639152964910057 2.163205984220755 0.7095247137122489 -0.05218825196778109 1.0214535203426152
Ni 7.758981616468728 2.268502143840477 7.08273298876554 -0.4163886143083539 -0.8667684979604879 -0.8368053759394943
Ni 7.372684959317094 9.035817589885328 5.14653942002545 0.2731578565097554 0.3750092800306186 -1.6642017998602627
Ni 2.1752180813419364 2.2321174887580586 3.429803013413301 1.1431680013359926 0.42531162782959653 0.19949549382859835
Ni 2.1267789356699023 6.8270533726518 4.146339260086295 0.08059765634840958 0.3737178149127048 -0.43643319166405486
Ni 8.314566452244714 2.3691866313722456 13.086723622942886 1.141087978878512 1.572292832264092 -0.4156116269330133
Ni 0.8247824387374685 0.31725797220902646 11.707388537226095 0.08092367222926064 1.0528184078071416 0.3014813860447969
Ni 2.048968489149928 7.806996827456417 10.412357471476867 2.57083448100554 -0.44987723298410265 0.7286660625273902
Ni 7.291123612437812 6.251571254625828 12.38572550404825 -1.568779676904511 -1.33599173957137 -3.492664438716546
Ni 6.215794853655731 7.203092653636581 3.9495285044765995 -0.4953315086621598 -0.21052295528735357 1.6249497963381756
Ni 1.3031383557887437 6.285246414117004 1.071059920830163 0.11700010623684366 -0.351090307321176 0.8177771556634498
Ni 7.756097017420907 5.138060726338565 10.133253620858826 0.009586101026538328 1.091392411425598 0.17857648428774409
Ni 4.2828277965023585 6.13225207292571 6.525253349269962 1.727125435967677 2.394575074886747 0.7585337966211001
Ni 4.139795920393155 0.11082113447329607 0.9250743258876483 0.4419592636886066 2.133114966429894 -0.7355967282089524
Ni 7.897774145734488 4.4552678373450965 7.84380910361174 -0.5973359128211196 -1.0023360827868737 -0.13165616558712168
Ni 8.009932517657749 0.8326860558090698 9.631332464940845 0.5489562359661513 -0.7763286587106759 1.012123758301257
Ni 5.612056567321073 7.563160656187262 0.012041588229657514 0.1522861831326474 0.8321370239295476 -0.4729161170814371
Ni 8.103105988499504 3.0689369077394857 2.469219549726119 -2.8216705340896437 3.1166200325531936 -0.6789198443421985
Ni 2.2137039779032786 4.453618178464713 13.151333112031233 0.5695464014126772 -0.2089792649493175 -0.7932506312769951
Ni 5.04784558231582 0.5785067998390536 4.660521344353222 0.7902555532044132 -2.076385374948334 0.7254490982519893
Ni 0.2019680132044577 4.734087836044054 12.04237619521211 -0.9895831539965796 -0.07978621619070775 -0.06329490340390388
Ni 3.8437144072642657 2.6371317838206325 4.954773487159452 1.2242801354269752 2.2158926611487577 0.04227124996438526
P 2.925481096945938 5.618618338957011 11.206372389699476 0.09505625497590081 0.19362206576695687 1.1246622292223212
Ni 4.7903789893478566 6.829237557873313 11.21921300264941 -0.6062854087049235 -1.0730984982124163 0.2811706995119029
P 0.40128919942318325 7.479203156744296 6.37658314185898 -0.8058274395007412 2.6942314919076633 -0.2732342182736456
Ni 0.17823965164399605 3.0845487632890336 10.3688838911945 0.10442689755752338 -0.31060623116420055 -0.6143597010726258
P 1.2966871758095915 2.607428708002336 12.149757929159378 -0.714587215836821 -0.8094580942747931 1.4248950875719977
P 8.928073668262087 5.217170624825767 2.8085903237093994 0.2515405353502958 -0.07078786934683938 -0.1372827677452797
P 5.97846515819412 2.9749985112716306 8.355670606280452 1.048869964682355 -0.014843235660419599 0.355827050675213
Ni 5.75422214211879 4.258847838922709 5.998580858966257 0.4307772789298581 0.33934242275662846 1.093416640944478
Ni 1.2850750518471177 4.297177063970272 4.584877572709103 0.7654102120259593 1.2231069410544808 -0.6790419717423596
Ni 2.8440672056090373 3.3233437982030516 10.87466285274001 -0.2573466005091116 0.3762806905438746 0.04882730591534817
Ni 4.66944701265295 1.7095903423895285 10.339829619762677 0.27216129692444097 -0.7866097289217098 0.2940010185073517
Ni 8.750205420265463 7.5403419110038605 2.453113718109596 -0.2746056446998754 0.323539651396417 2.580107164556718
Ni 0.6823228744521304 7.131742603067159 12.449688031944403 1.3675661719435415 -0.7821822892779754 0.6092542615252604
Ni 5.459523024699719 5.061061285301684 8.531102151439237 3.78942939312228 -0.44415241468518346 -1.5219264639963983
Ni 3.9354778344820063 5.058849452165974 4.626732828413842 0.29474432443127946 -0.06219781368498319 -1.9094942974183176
Ni 1.2326546065308066 3.514455397099736 1.48099738781397 -2.150841951396012 0.6419815765549525 0.40143687809452794
Ni 8.357632686591254 4.361052961735278 5.436731005833374 -2.5284822412915746 0.8727550545612259 1.180946762746663
Ni 2.747880112119878 0.7425262076147184 5.202556858978709 -1.57680768941531 0.10915798448460555 -0.8341309144311246
Ni 5.486848379897127 1.9618775594313733 6.448679686111705 -1.2299147080049333 -0.9839382970059766 1.4899385982358921
Ni 9.043144287147365 7.461370252087639 10.369153919156483 -2.271296077619727 0.28642783414578415 -1.6239660922686676
Ni 5.035431668841652 1.6507555809796604 2.7604903257848408 0.8116566445880086 1.0380983279881475 -0.9072798278109728
Ni 1.9903733429964283 1.4762142986579982 9.704224347525289 -0.32955911811761956 -1.1625985992567784 -0.28898042536430874
Ni 6.842628364315753 6.661387070787172 6.2437487381025365 -0.24862618991697824 -0.8097715117501537 0.13475588755836793
Ni 6.520133877157935 1.2916091755688588 12.05852165550565 -0.8090667723736453 -0.10788451708882064 0.8070502561642487
Ni 4.857904411786782 3.951458328887506 12.00570123703063 0.0798558930863786 -1.0347926606536824 -0.30744788804087697
Ni 6.78512070278731 1.141499433425386 1.0146139392068612 0.07923497167292805 0.9629380406052255 -0.21457861341396595
Ni 1.4303095451206311 3.4907058388050576 8.296577797671418 0.4795009693878064 1.1970516387283257 -0.6334838234965865
Ni 4.220020951419612 9.07689317440973 11.912373859466516 -0.5771455539161738 -0.03485361734407546 -0.14344981578794003
Ni 0.30826226252666866 1.6205917065914246 2.6649372911279183 1.392236678107028 -3.5716487278312488 -1.1520406212352738
Ni 2.424288924365604 6.341021473022473 7.865133939831398 -0.49162449212421777 0.46791249321925865 1.1248681745855402
Ni 8.46715529069446 4.892049585819295 0.7310514016260865 -0.4238648680807409 -0.9844915984062852 -0.027988000572493732
Ni 1.110994568095395 5.418069585347966 9.947840257078012 0.15728312212660656 0.15911426179807436 -0.3658947193238602
P 0.09999513287113881 1.909291226629884 8.400479580818503 0.6049854589465774 -1.024509019339487 0.6962735051292978
Ni 3.236252868484497 0.9806254366881278 7.442553081685593 -0.45569101145240226 0.31240908870089423 -0.004271630792160385
P 4.118829585460911 1.871284560581279 12.551485808821145 0.3645304919864819 0.9241866308686406 0.6209530380194273
Ni 2.510624144429458 4.879377625145961 2.725001463122385 0.812605381654523 0.34521636503890224 -0.7836295632474634
P 1.7729685776989994 2.7626993941291307 5.957225108911331 0.26139994464287886 -1.224177291300524 0.2312686724751372
P 4.608243746593592 4.946488328871941 2.225630366490451 0.4769321802193658 -1.4194813727555942 0.008985748438378073
P 8.251860982847354 8.439636400097676 12.138657291609537 -1.9186217136408827 1.1903508296693823 0.8044004772462275
Ni 6.3286444234339 3.582920848621338 0.7488686391313649 -1.198078280220627 -0.08713031526060477 1.072859385618417
