# total energy = -340892.8263591065 ev
CRYSTAL
PRIMVEC
9.08685726813468 0.00000000000000 0.00000000000000

0.00000000000000 9.08685726813468 0.00000000000000

0.00000000000000 0.00000000000000 13.29953412552775

PRIMCOORD
 96 1
Ni 6.056681271011616 2.0869785509371463 11.314698649504933 1.0826318916241484 -0.3043761910940887 0.053659694306985015
Ni 4.843304108625635 0.43451171488349405 6.127481520846713 -1.0051995203775979 -0.5478236650236049 -0.6902969758308886
Ni 2.8593705211910247 1.3467449692049138 4.776873728539072 -0.016920687014738603 1.1524599681608798 -0.10694760709684809
Ni 3.729391687906212 4.3715599040194535 4.9762466505158285 -0.21045893481863756 0.4915144489089148 -0.7437471252302288
Ni 5.045214081202913 4.815407456248848 2.6473923105572386 -0.13740283826291175 -0.3780598939314844 -0.556665431684951
Ni 7.376856269027693 6.116727225052599 2.5177083157492333 -1.2181997335608503 -0.2026929177199735 -0.24497059544226196
Ni 5.034746021418529 4.702612294700614 11.271980423938638 -0.16104824559599362 -1.156195523943912 0.5475110188791926
Ni 5.764357066789698 7.878950577522629 12.744079500375813 -1.4911022795266902 -0.10610222837741728 -0.8474600274398632
Ni 1.848212284535681 6.553477941612197 0.34359316265028284 -0.47867230283892404 -0.3640602372182827 0.20824958587214457
Ni 2.58410234840599 1.4715256957319696 0.522717840167366 0.5934710305490747 1.2296645396673405 0.177908511686442
Ni 0.5953281920068464 9.03135492640755 4.729314025322501 0.5829709023486992 -0.05099988808663474 0.13715087015310573
Ni 8.575031118896941 2.614297975718064 1.5518962238352212 1.2549132869318003 -0.8872285655870528 -0.5725563918835946
Ni 7.125913613640919 0.7099516292743665 4.724898721286708 -2.6714882846738766 -0.529644680121733 -0.19490247514127726
Ni 0.670144832835605 7.560846958710173 2.819235689198256 0.14970093890397446 -0.40821173492451635 -0.836446964158811
Ni 7.659112235193103 3.863749962187384 3.783837411699699 1.111363455230886 0.4787352948663755 1.1497595385105812
Ni 7.422881202020668 3.605674123701008 12.81319686421085 0.6813909315905103 0.35952429702114214 -0.7903558262277033
Ni 8.13842579205657 8.851144369424986 6.596821342971169 -0.009991821105389244 0.30600318517455044 1.8218433337675526
Ni 6.746291969880302 0.8589724567396376 0.23636824471995532 0.12797820251490216 0.026425541181380293 0.2884762320343806
Ni 1.8172624480551136 6.374166983517354 9.226671475217858 0.8538348206179552 0.7093002564062687 0.26543426261325254
Ni 0.06593060292671903 4.9495930802384365 1.508779085226797 0.5164916876795428 -0.3391243932085514 -0.7632222032357049
Ni 6.534704494116939 1.8336642257554732 6.937848377077086 0.4990446958476889 0.4775641573764098 1.189332672817513
Ni 3.481547650910476 4.5205025845106395 0.6612060911603453 -0.5576964440526266 -0.9995734324400719 -0.23600875826328385
Ni 5.924231236795306 5.629344538772003 4.690732137268231 0.8549226543654954 0.3695747392786087 1.3597101662342324
Ni 5.5529695018902725 2.743976518411599 8.983901539423163 -0.030508453001502293 0.41248413704762515 0.7892026864598666
P 0.0713409178534747 5.414076885740692 12.537963221484132 0.27760843608194125 0.4405050477405833 0.5419769764348408
P 4.00336044007565 6.082278948453118 12.643388941639019 -0.8705433916218879 1.3228384900188637 -0.07259535486922336
P 2.1671428073762438 8.516084674607615 1.5258160342630318 0.6133885954086081 -0.08024361544310052 0.3562299425405865
P 6.33821937543834 7.938333190969637 5.7530193947471835 -0.4106529973761573 -0.8195938971572142 0.41350332234075876
P 4.430133787153258 1.1272155800287458 12.61670992816076 0.8904221328236859 -0.7218374696413311 0.5736102870694056
P 4.13496539654895 6.07410986360402 8.104975252405287 -0.16032653693862067 0.6935825885606959 1.161374239931374
P 4.890846546813049 1.2646997332733096 3.788465348199861 -0.387820572862674 -1.4596795422410345 -0.17809440244500294
P 0.18944280415351425 5.564182683985699 3.6431546846321283 0.7730659287990042 0.083779653620817 0.6661918552525689
Ni 1.3272627468284204 1.2963946920649183 2.57326081878034 0.5523251524383842 -1.132509750291198 0.5222244763982619
Ni 1.97511933570644 6.492532388683494 4.811824508355633 0.27408782452319247 -0.013480036764305816 -0.7030974700296665
Ni 6.057980691627212 5.766256219997108 9.300018771196674 -0.7145165104998856 -0.4465651378917342 -0.4532039833644904
Ni 8.781893428785407 2.2596288425198767 10.17061967941728 -0.30485441628208787 0.05538953251389815 0.05742430355573982
Ni 2.443083407612706 5.140626084446002 7.1191348179819345 0.6492822239814238 0.5052842489994974 -0.47869158611263357
Ni 0.3352250756229914 8.972790130131196 9.16728886177085 0.34553801004437906 -0.7680779886661094 -0.3339225372926379
Ni 1.6751803449399778 1.2168029076452795 11.579931296920284 -1.2931435340575923 -0.3742014394173427 1.1469626924917342
Ni 4.156074166409302 7.12438702158903 1.5127954762204585 0.006471723767272725 -0.17226314047520658 -0.12506231441968785
Ni 5.70882728090222 7.804665517854796 7.979068664239963 -0.7930557416573697 0.49963656379541693 -0.05609607166261952
Ni 5.580175553100731 2.8290295041597227 4.991780633329549 0.14601603385321948 0.9576114861859895 0.18057757387817286
Ni 0.8617021487181351 7.403417153359078 6.7313995192026725 -0.02599153896775524 -0.2660906652503289 1.1000539437553376
Ni 5.23039514921157 4.50699951433738 7.068995355934819 0.4963146985110355 -0.3828876543374309 -0.2340305514909905
Ni 8.049011114731618 7.030301699533893 9.221923592199332 0.5296824753382039 0.3582865679592991 0.42887569103177103
Ni 4.264371333518932 0.18321648942759391 10.459032900191978 1.0536632723059403 0.11809513907323532 0.15953592271652522
Ni 7.955816304706751 7.218072521916291 4.522546218751532 0.6406448600214 0.34403700001882037 0.6013802580938223
Ni 7.394121298185966 6.313266864875909 6.969395220092232 -0.13183460014651488 -0.6019883239914664 -0.6886810374940203
Ni 2.281828035274435 5.369378633935668 2.5367534602822985 0.17624269394824485 -0.05273409716892209 1.044266918692705
Ni 2.2005551822262275 5.080262090394208 11.517542751028248 1.0866631242707283 0.02773397558015869 0.5287219111971475
Ni 1.3592848324882911 3.3252173553110396 3.9751911819753105 -0.6116263613018628 0.6873018977583066 0.19799885467841383
Ni 3.8173706417537914 2.7699649307235252 2.541607659533009 -0.9280869943643112 0.10713529762762194 0.5143473876430303
Ni 1.1260342885600219 3.4438371924858275 8.082313538606437 -1.0571697427973017 -0.28550995031720505 0.6710306714021089
Ni 3.534805722435023 2.7230767462726364 7.58161224535885 0.9739289923990904 -0.8965891808663462 0.35109879196160826
Ni 4.084742335413279 6.9253121485366895 6.034862817584284 0.7043629670056514 0.35147597279536885 -0.020835191577796376
Ni 0.6017798607975695 7.2071864666891265 11.347601251651875 0.4542884746779208 -0.08449750562344803 -0.07717808914389934
P 0.21175739999770962 5.653815445889491 7.994482700535322 0.342324645313404 -0.41385479214290655 0.4783498865024987
P 8.524117456594938 1.6584423535139048 7.929528026098917 0.5480046706861595 -0.4230873664847682 0.9078112748344107
P 1.8166172811760415 3.1954933783302466 10.303202381752385 -0.25686477577668665 0.18991787744249228 0.3059131965639054
P 4.005195985280898 6.350759238721717 3.8116331999587736 -0.7372933991850852 -0.45628750738582063 -0.5598402298685068
P 6.963367907544504 4.045205418640833 10.488238968727558 0.05210983332136187 -0.20216764134412277 -0.09350048045300671
P 6.2968287397457425 7.911208921476244 10.503812933714066 -0.7699086141169451 -0.5636693738066099 -0.8898701169749578
P 2.4944604996447457 8.543981326984404 5.810034881828017 -0.12275577777369825 0.12861635031953333 -0.03637416775365993
P 6.888982892444702 3.983850957126802 1.702446369409617 -0.28604705376759765 1.291469488789279 -0.8426060417816715
Ni 5.234338845345618 2.8545817473139667 0.49396429713288 -0.2536164440427181 0.15167426058026137 -0.20338094492593362
Ni 1.5018394521909164 1.2299515903779223 7.055934815719458 -0.2036359983595332 -0.7408003838970789 -0.7471312112111133
Ni 7.106549520411298 0.39262311940254285 9.16807396625468 -1.3082999300830567 0.7483272884017435 0.029664102723336014
Ni 2.173067438434767 1.1901057204521184 9.400483067182918 1.6777836523097558 1.3499227478301654 -1.7988365884597342
Ni 6.6235285257075285 2.0793001563904405 2.594673089679579 -2.020075387502695 -0.9725511382149573 0.8603055159439635
Ni 4.129931277520695 6.793589062916517 10.47406165373138 -0.3430507248461511 0.569418103364929 -0.03268669159974371
Ni 8.401117754128421 7.16754050762726 0.5029830031537147 -0.8931981529069263 -0.10576567097360494 -0.4555092344588994
Ni 7.615940575439968 4.0858963663096475 8.318659066182763 0.6046872109798682 -0.5615854946943876 -0.22529034340451523
Ni 3.07223924385508 8.407033298329491 12.851446173282385 1.116415672942813 -0.19714704820107984 -1.8073068307142743
Ni 0.171174585932571 4.7990783734081015 10.3835983530565 -1.4290829004011 -0.4465713085393212 -0.7446871205459948
Ni 8.643918585238449 2.386426851401215 5.845650819610045 0.6323731069309109 1.190534406435098 -0.02054054315551301
Ni 3.698823499438617 2.563039012832897 11.258295616616344 -0.36125824899311326 1.0777833052825954 -0.25505574759240585
Ni 0.8905302039837254 3.3156216338420204 12.892488782334583 0.24854905682213968 0.06540732176121639 -0.43299202719298974
Ni 3.0741747444922973 8.480545975113928 7.931708871887331 0.10634339785394589 -0.9484033373241603 0.5756494289866215
Ni 5.6173498869357275 7.8966972101258435 3.4740646237989825 0.29193590844820694 0.5796446661889436 0.7199770193938246
Ni 3.1497501379182746 8.43433930497192 3.551095731788726 -0.049255137481386144 -0.3199609329062232 -0.33698343560614863
Ni 3.5607305267447877 4.290723220128928 9.402917436294235 -0.2133776511273293 0.6239892537425898 -0.3238720950351713
Ni 7.072764584405793 6.180798656944696 11.605213660408213 1.6048944203491973 -0.9254148468487869 -0.3094628615883767
Ni 0.5452995896206421 0.06285379299356572 0.2129087048368429 -0.5246765374831802 0.34219480460375906 -0.30144821881401634
Ni 4.75845103374145 0.6353894204542561 1.683388503276119 -0.2572882364673505 -1.1703011101073586 -0.15953412294431235
Ni 5.874108131091604 5.331913520662216 0.23117692305778614 0.026658997348425056 0.8625174359936179 1.0772973667851122
Ni 8.005485067537867 8.831098761886485 11.472072116339827 0.01457892625543941 0.3512576861369757 0.23554801657678143
Ni 0.37502551126153677 4.998026030456117 5.891773890663498 -1.0744673535354852 -1.0441823293986985 -0.7961616342762029
Ni 8.015907693034993 0.14093715907621865 2.299476529817171 0.16377104384379537 -0.9624166208841167 -0.2682732747239444
P 8.672696662788056 1.6447666330490622 3.807164283464016 0.9770811648748269 1.6171999771894279 -1.6696273417512084
P 1.7686205001160422 3.2810734018105703 1.7012896124560128 0.4181945571688411 0.29066218394210586 -0.6467849114808667
P 4.654533731923549 0.858082853395114 8.329059883222005 0.8054816261255483 0.857053327555253 -0.11143778165771775
P 8.383716422108371 1.6532628447664228 12.40579215379159 1.1730581040272055 0.283618389721447 -0.048543713236658334
P 6.409651161866331 7.846592278137044 1.4439970610819757 0.6339291385641211 0.2911668914926663 0.3733874281564795
P 2.297402908946688 3.1253064913731405 5.976611517890016 -1.8795903107700338 0.389066272344317 -0.034245294336115215
P 7.229767307456658 4.210277271108827 6.063071149171668 -0.8074153528131514 -0.2518531814947082 -0.5525056438803065
P 2.3039727068842835 8.305351363444716 10.418030273312569 -0.9214172956536196 -0.2785232345867268 -0.05996918146478059
