# total energy = -340897.53837444726 ev
CRYSTAL
PRIMVEC
9.02941957159823 0.00000000000000 0.00000000000000

0.00000000000000 9.02941957159823 0.00000000000000

0.00000000000000 0.00000000000000 13.21546825075937

PRIMCOORD
 96 1
Ni 6.474509134204405 2.044892633977837 11.47262510963454 -0.500338474958448 -0.4716603902974651 0.3160184033187074
Ni 4.545184040396492 0.5424685617293993 6.077397070514652 -0.04700130845020292 -0.680996267255253 -0.16525097082343154
Ni 2.647272297026203 1.4481112110189582 4.771735787398556 0.1868173841402976 0.38522067334598176 -0.1076618595550533
Ni 3.4521998982800297 4.099175864234813 4.681434368871222 -1.2558000604121276 0.49038522040047805 -0.15614566608805364
Ni 5.0684930768905945 4.5664934704145415 2.8028817009071596 0.43564720542764973 -0.497069317288873 -0.5231377322411508
Ni 7.368530017656578 5.9586583982166195 2.7684290478661135 -0.5309250894960533 0.2891501181729536 -0.7345214928669027
Ni 4.924528012395771 4.824310485374444 11.32208843362822 -0.7097136897946036 -0.05117060933654413 -0.09621427983974398
Ni 5.54621257433337 7.875694452086159 12.306125405951555 0.09375810498976757 -0.5865231384763319 0.5809235329013672
Ni 1.7272286265774113 6.445000991281107 0.357007896984174 0.9026472141349681 0.46865991290824444 0.16805707281365895
Ni 2.5270184881362088 1.4235963370787021 0.33365510933346143 1.4621359742013271 0.5205972252074841 -1.0452434236733612
Ni 0.41782735790475745 9.261475580302323 4.555398119733957 0.8648465983474267 -0.0721001604003597 0.5229060758463188
Ni 8.708134694553967 2.3480824819210864 1.4181913265664967 0.21314908005629096 0.377701225040485 -0.7528586006131938
Ni 6.791586229337384 0.6807884331533393 4.983751071948901 -0.2462720878625049 0.06203017775886737 -1.6197829074252557
Ni 0.8961436999764285 7.432313836998741 2.7880671323348656 0.18668445810685913 0.24575992411277678 -0.76158878139734
Ni 7.461180891137599 3.7066399103472416 3.886061699331419 0.029114915088085343 0.18880176156017808 -0.44400149092961594
Ni 7.630771448171076 3.7912907181519935 12.74659674207634 0.3213768394171433 0.12483605734149467 -0.5766783844717681
Ni 7.954584490250439 8.986574903649984 6.976022957911403 0.23661348172681831 0.3659499980418278 0.5421983484170275
Ni 6.8928963161181125 0.48227213075425895 0.36092666504681536 -0.6147613073864187 0.14918594694076887 0.11584182426268436
Ni 1.739743402003266 6.484378289717002 9.196194683207198 0.8576999600003165 0.8281525853605027 -0.9159506161120935
Ni -0.014584318375065138 4.910532412172053 1.3095719247011883 0.3722823680177588 -0.6422679974471196 0.1399502872751138
Ni 6.518735230911358 2.057813733281154 7.105296253939122 0.11496636363626651 0.5218136141130884 -0.30636622494092397
Ni 3.6660887873764527 4.574872771709774 0.5257072503130834 -1.4839325012511284 -0.7070857652534532 -0.016442718937055553
Ni 6.06354413511902 5.739478269293682 4.8235402758911645 -0.056826264960424706 -1.2579379326907367 0.20172026939405907
Ni 5.151428294990504 2.910488904846611 9.388387683131006 0.5238838663785559 -0.07322861757784808 -0.4099423444623778
P 0.1816258702839263 5.472622805415106 12.331128771486716 0.07025307988929191 -0.2417988825824997 0.6578997904471057
P 3.8687721668744017 6.355420120429805 12.522091964474738 -0.04040771439308525 -0.26145959423622067 0.03534521226851332
P 2.3684799405697197 8.312041149383722 1.4514024344264072 0.18648519761185947 0.6809013935486016 -0.39485973909764255
P 6.546320107481333 7.7234764981690915 5.829276749154912 -0.5741093381930112 0.04468885826694239 -0.5011064634727241
P 4.715162862468434 0.9886672586425099 12.691276197630753 0.24105120578319778 0.6249228213004528 -0.04330766164869961
P 3.8116430297031307 6.311835112507295 8.033312901805683 0.7194365735093222 -0.573267044797374 0.20503493558958882
P 4.7491586268828225 1.0019675935647927 3.773637300089159 0.12166408737141628 -0.22800002902619446 -0.08230229774434213
P 0.33220859632969385 5.507051981965454 3.5447984011279545 -0.20829689417031222 -0.7413827387631102 0.5911873767212206
Ni 1.5861529763223237 1.1341131479351976 2.3895022350476953 -0.9090029811496667 -0.7896197193926272 1.9495615977528487
Ni 1.9986349178835703 6.53510556846336 4.838076738342884 -0.6165973321538929 -0.7030100525221828 0.17441052583551253
Ni 5.82154666312167 5.706141652502732 9.108788096571299 0.2781504246283403 -0.8139104736191919 0.4896128610108277
Ni 8.62223782685833 2.450340657749227 10.325681156591019 0.8507834353861412 0.23909999559409792 0.6417455492847464
Ni 2.4317219947419315 5.071852020944287 6.742095981062414 -0.10975139509423032 0.6715451491446821 0.8049604635147556
Ni 0.5486437817248841 0.10861940186530837 9.230766524585635 -0.5144173216490173 -0.3187340024776575 -0.5025293119621798
Ni 1.3332569949894708 0.9376781267306769 11.39945159695519 0.0006931694122826772 1.0048125693518244 0.17267503120164454
Ni 4.0119245836143 6.75186581296052 1.7626393010273202 0.7215649327062348 0.3208528485928732 -1.0825928108560967
Ni 5.808174092843394 7.823730142868415 7.959345703152352 -0.7474119756763258 1.1827809877419242 0.22021241466097558
Ni 5.197243569529311 2.7995715157187626 5.085087344046176 0.7630440257866278 -0.7631427561480212 -0.4141805509134416
Ni 0.7004174882025928 7.47350604875397 6.972586360850018 0.6682394818102169 -0.507252685579778 0.0033401201168265057
Ni 4.926993043919046 4.627866434750424 6.93377249819087 -0.19182177933342448 0.11987074291641936 0.361129693835049
Ni 8.190153015564377 7.14683971011287 9.15541240709723 -0.20294154339566983 0.18513562556250052 -0.12774860300259935
Ni 4.706458502071231 0.40018748397117193 10.584176280955308 -0.05484625841591845 0.4679644295031166 -1.3057501670780092
Ni 8.485270562475366 7.196384134904834 4.792246113790928 -1.1130871227902122 -0.8435961736090827 0.3477936388477752
Ni 7.129214283250482 5.975417000807087 7.007171746357702 1.236123922139439 -0.22291644385569997 0.6217804190167291
Ni 2.339983092630328 5.212539406160911 2.573210289468131 -0.7029527169216861 -0.7679396633160323 -0.1778316357019195
Ni 2.3676040868782997 5.267952953627338 11.324427053278507 0.21621357791422763 -0.0696828092081187 0.5303244797975769
Ni 1.0860134302631002 3.336307299008137 3.6883445005580158 -0.41955595629274195 -0.2184805195715334 -0.15149711157244877
Ni 3.697204166970605 2.552932922098837 2.501383966178055 0.94003336809291 -0.07680476496488063 0.49117557751225727
Ni 1.1333185590192703 3.481229481969873 8.189757526990315 -0.054632085522583335 0.008766947559352645 -0.1550508903619781
Ni 3.592011429805233 2.654902156503004 7.2197423402072465 -0.3715655444563924 0.11614238622223867 -0.5204301035020005
Ni 4.318247640123762 7.049294891263298 5.934538109908478 -0.5721015637343632 0.00613722324598943 0.12134115681435877
Ni 0.7702609509706501 7.31760409168124 11.360108610313391 0.4153542595065685 0.39232591693219526 -0.28668185913811917
P 9.149691366902553 5.568795152500804 7.950266621845933 0.19922398533476657 -0.4255347995839962 -0.08994773010474186
P 8.654554119245873 1.8001050713552413 8.153653393122868 -0.9011644589418544 -0.3303793000260697 -0.3473539802071953
P 1.9099931066601834 3.2838012246204427 10.33474759671014 -0.2633771229739077 -0.7183795929997177 0.7977030106213939
P 3.909783790239648 6.079002501301605 3.857145886327266 0.9116118795274235 0.3430152436225254 0.7843859817975136
P 6.764750794585841 4.0440512581923596 10.579325676800353 0.5702094889179729 -0.4215642449720224 -0.9661933143177295
P 6.384711557285125 7.8236579075124215 10.200861170260293 -1.0906105389542506 -0.35180455977938124 -0.6889129509991685
P 2.3730127091583046 8.43933790548307 5.784119719297595 -0.0912188835076816 0.991893033076679 0.2630919876333211
P 6.848868866640142 3.8811515010077686 1.6421407948688993 0.3311575729529909 0.5401391518951537 -0.055843846442497375
Ni 5.318075261267252 2.928475508488965 0.3260243469147099 0.03815517091348268 -0.4168498702154885 0.2322166382107033
Ni 1.3589998699816144 1.096036085907183 7.025302820712043 0.34092390831113545 0.31965522874034624 -0.5926153674169987
Ni 6.92941128857277 0.9269782646241562 9.298813132873354 -0.5154169665581252 -0.9009888525959385 -0.301163597694062
Ni 2.742722290551966 1.5448524115331037 9.23844514292773 0.23086989437482175 -0.18601160040955061 0.3252134395544141
Ni 6.431303361900861 1.793170477179876 2.385774890678437 -0.879403413115679 0.08480552378217007 0.6411426255934248
Ni 4.10227295512303 7.091778310006909 10.176782417281848 -0.004302741140411945 -0.3459588996318816 0.20470326328178295
Ni 7.974990978318571 7.063272432648018 0.035687877628533586 0.20258981648320593 0.40700511621092483 1.5734187183384192
Ni 7.671114894493384 3.7930333961153337 8.52577382952281 -0.6662075389818527 0.7282523720287394 -0.7208874470232359
Ni 3.0951495630242096 8.463735396969838 12.358378656593272 -0.18641552071618864 -1.138586552612897 0.01949230439665675
Ni 0.2435731056999564 4.942379174745637 10.218252735157652 -0.778758094087775 -0.7848562365657128 -0.1790235991274917
Ni 8.54640876190427 2.311206332686462 5.580072897455271 0.4343056037980907 0.3774703399766015 0.820345173500942
Ni 3.834279784387559 2.6821800328100074 11.464973579550943 -1.0002817713610062 -0.18312810821416847 0.33352967272959333
Ni 1.1506640738771827 3.363982469773104 12.562676496297673 -0.1756737088186523 -0.12511759313765547 -0.07216366664844347
Ni 3.121822468224768 8.393748366431742 7.968253225488287 0.32877313188121443 0.2843215864360587 -0.05967170482901982
Ni 5.617797812122818 7.6746634563565586 3.6635126939933387 0.17721302828131416 1.4086246325467482 -0.8446937775486355
Ni 3.2196923461763105 8.245711033742793 3.6121443264625404 -0.12410997780874755 1.0114835536140967 0.2025052271891996
Ni 3.323575817514302 4.474420479781468 9.166923111074777 0.6094612353297439 -0.04236483811945607 -0.42234586033305327
Ni 7.186262155646261 6.039182761310251 11.344475073392521 -0.056013282140826105 -0.32218030915504514 -0.7779471681507054
Ni 0.5063897102365515 -0.09334975055025595 0.32547174644136045 -0.004109394182683245 -0.4237018601403154 0.3795850723267592
Ni 4.502962474818356 0.1728519833565793 1.548694429530002 0.2638126678494295 0.06412871215910892 0.0665370644902854
Ni 5.870486116807191 5.49770653278381 0.3035898512270633 0.629841855868625 0.6290167888641683 0.5433219204985094
Ni 7.915730898145495 8.717489173155112 11.364218802069415 0.2693503098382071 0.6851668536931748 0.02284502291897356
Ni 9.174161093745314 4.804644409705244 5.746257557453661 -0.5082672428872215 0.10811000283606542 0.16224766522073347
Ni 7.881030839010171 8.500837281691942 2.4593321536865043 -0.48322264121376785 0.7794846878411543 0.3058000680248088
P 8.328673340101199 1.59864969290918 3.39308428881894 0.47588676967398685 -0.3128623741882289 0.7709709939431884
P 1.9671132144119554 3.1736603655695235 1.4917224042580166 -1.1725287138862968 1.0139268729482667 -0.3910264813944814
P 4.8855299495788405 1.0455074543898075 8.156441677864214 -0.4266804831526651 0.10730267644342165 1.1500482733955935
P 8.464773780212242 1.5482023261672972 12.48796978818736 0.2811786699317029 0.8129455386027612 -0.33490007071455874
P 6.215211294446639 7.458119917927379 1.3444092310128999 0.11742202426561067 0.5355844426449357 0.6974448997295796
P 1.7201044145925635 3.1707980395882855 5.924930807561357 0.37080064126590984 -0.8168651853721416 -0.3744798898897099
P 6.811080746036101 4.0434914341834105 6.038252731101835 1.0482734687489366 -0.9711018073629405 -0.08138955612208564
P 2.4002544677873114 8.502327135909306 10.146334311788683 0.11505738068817603 0.08275044102535425 0.37452102754029043
