# total energy = -381171.9565113782 ev
CRYSTAL
PRIMVEC
9.22360532628353 0.00000000000000 0.00000000000000
0.00000000000000 9.22360532628353 0.00000000000000
0.00000000000000 0.00000000000000 13.49967873132615
PRIMCOORD
 96 1
Ni 5.095414728170075 8.234106155231263 0.9121029594552986 -0.6163258236600612 -0.18332171228221328 0.6346397914779005
Ni -0.09662556685861225 2.5869353574650504 5.831105167760618 -0.11490568560166017 0.8694267615189415 0.29519092505039485
Ni 0.29769186135431897 6.238606817402515 8.586713517875477 -0.08264116914099962 0.714881350038472 1.9182507034547094
Ni 9.1396981716988 2.565730288859207 9.44845190290044 -0.6617122222146604 0.5505459490507745 0.22519341281533475
Ni 4.043711579999555 1.0659997363997742 0.9865771158033443 0.2632395689547789 0.7985177932132054 -0.45684517966150356
Ni 0.5680670932249214 4.961690898397343 6.83345649336375 1.2865591959718552 -3.4833297915791817 -0.1387164148680127
Ni 6.218277991301046 8.930663604576479 3.726127169074892 -0.8573379486752074 1.349292313335018 0.6176427426992718
Ni 7.309679536722347 3.9182613241891726 12.939793121190263 -0.1014323337055737 -0.2406130898045146 -0.2674824033915329
Ni 1.503613690294605 2.815726887159671 7.729159882579298 -1.939704502453111 -0.47246051760125723 0.8322079863767989
Ni 3.5603393201658 0.7563531602042055 11.278306357702387 0.062294744274163684 0.8850343861492113 -0.24293222485599453
Ni 4.315697253357143 3.773930348310865 9.898234559279691 1.2221111528001147 -2.5249127787727614 -1.9041091218470043
Ni 8.33425606167852 3.0459111812559807 3.5024510508847513 -0.21327557833182623 0.9606199339950101 -1.0107307346084722
Ni 6.937728429023687 5.944705857830276 9.363472060105217 0.40324667760975713 0.03620010406964088 -1.423038236868917
Ni 8.964449670824065 0.7391529810236157 2.0688934099950873 -0.539617989284361 -0.8616939116510579 0.7622600964327517
Ni 0.9513964404330069 4.506801131758387 2.687070506143812 0.08289313725080563 -0.9168283907313566 -0.6787136418686633
Ni 5.9559955507287325 5.6913426435919545 0.7310454319568319 0.6384357681852231 -0.14927644977204613 0.12351553875785826
Ni 0.12898381900433561 1.8374989788822114 11.962510632456995 -0.9613149031795056 -1.5615001125239623 -0.8512907140398629
Ni 5.360925430600607 4.9037297626343515 11.703020177211776 1.1650486034591676 0.04793127646364003 -0.6083029533555847
Ni 2.080697780069797 0.24814634307543876 2.2929476960029045 0.47600761152256726 0.35495416115195644 -0.087056781710192
Ni 9.104703813155709 2.5349049999158724 0.8633100873696488 0.9949115081880285 3.0947396875403346 0.0771886306668606
Ni 6.119308706333366 7.930575751716223 9.732579530287051 -0.7113237145942007 2.283426542334674 0.19083524705043908
Ni 5.29005124740474 4.928790298259439 7.473638344698625 1.3025671413643374 0.22707546032939602 -0.3040712582591602
Ni 4.582775968690239 6.068551206316857 9.349486307374882 -0.8174634810777728 0.6556572742698321 0.09770809077645108
Ni 4.833289088888017 3.626361886969029 5.156783063734283 -0.7702318017843187 0.322743894967999 0.748358398749995
P 3.0912636485612994 2.3173017034613075 6.702766307377214 1.158586649883908 -1.200549367468939 -2.974368093728097
Ni 2.082007532023703 2.4621768720528574 10.431755561179548 0.41228256255978024 0.4196387458145353 -0.5566469197421896
P 7.5249123666124484 2.6205185043958346 11.087569578792449 -0.9185546293938439 -0.1244169675262051 0.43124393415363155
Ni 3.028045057772067 7.0971584467931494 1.758252529147187 0.06303367932271724 0.32982265619165135 0.730195097577407
P 1.0386240758420786 7.365851293055354 0.7064728250526013 0.3264671094558571 0.6886913219066655 -0.8623569991563534
P 1.101095554601267 2.2655203832554776 3.2118032569050663 0.6712409876407021 -0.6132952643638534 -0.22502911932332856
P 1.324601958453718 4.931732628353072 10.123558013378055 -2.1365677008651844 -1.4172709953678366 -0.22576188372429506
Ni 1.1989487833265333 7.012070687815811 6.280225569278671 -1.017620776860086 0.535745136592516 -0.5080836661215057
Ni 7.327997616866412 1.530934009220445 -0.031061413239250338 -0.9284991422010654 -2.0029014468265696 -0.6526817365812759
Ni 4.238191297943965 7.679518438805201 11.116971665436575 -0.20859745612986652 -0.6239602002768673 0.44319416453697225
Ni 8.36982228375078 8.50506800839953 12.060073317615023 -0.4898982534617305 -0.46890905280457307 0.6392016998169701
Ni 7.928076154677431 6.368641205051568 6.772856484121798 -1.0401621524957119 -0.21183344656866096 -1.1799360620939614
Ni 7.884752880540134 0.4930754926190297 10.219837695037572 0.17849420898658294 0.5084780733464469 -0.8781574565237199
Ni 6.644611475902729 6.762018747883492 11.848074283746325 0.20287418049284414 0.37159536925306325 0.5703606697838564
Ni 2.2636018733511647 5.849573592671222 4.221525165510777 0.8065388637454691 0.321122300204176 0.08570926654336207
Ni 2.2381908407243283 3.487814111619587 4.716477661810229 -0.11444648657705453 1.198354159589833 0.6771612097798789
Ni 6.7466245506224425 3.6606275806926942 9.343154302330118 -0.4715395484488847 0.12540941334646144 -0.3850530374198659
Ni 0.7039409453952269 6.936852186519312 2.7838501072110873 0.03963664055501561 0.4915036502756374 -0.4946288261681805
Ni 8.182398623867908 4.931917100459256 10.943271807893254 1.305289682501823 -0.6129844179916539 0.38673942398335326
Ni 7.89110794459817 8.16262321408499 8.112780695715154 -0.49330110849569236 0.46178041217959187 1.0128166706032236
Ni 3.7535922986040866 1.1325480487056272 8.586241269283645 -1.44129949707195 -1.2563880717051137 0.6595316696235738
Ni 5.563521921217109 7.0037878902481525 2.816600362582452 -1.0379687443888188 -1.933881725123747 0.24231130344254398
Ni 6.807491122057831 8.816143321057494 5.894998926458484 1.6175612171835885 -0.05279168987973488 0.23147436072804006
Ni 7.251238773483277 1.930629721689169 7.766904720225591 1.0862152381000325 -0.4335265595402212 -0.8823874354446676
Ni 3.10285772043496 4.991538485177903 11.126435084483811 -1.1514400115367978 2.316384485317933 0.7339015998947167
Ni 2.4200342193951383 2.879443552635601 1.3664918843259652 -2.0668982613935047 -2.5034026726151275 -0.9503959422741567
Ni 5.452368253635981 7.407311398920192 7.179723549718422 -0.6588968642530524 -0.44680887847142403 1.3968962883662266
Ni 3.595038523338997 4.545475708819848 1.842908623396055 2.6145581471457358 2.3997350218211317 1.3931108531818652
Ni 3.3480672675799505 5.7483537480081 6.430639512858394 0.9390825741438666 0.8674004751175318 -2.0178390419730086
Ni 7.942511096986323 5.786557921198791 3.160301411940105 -2.7692840500681277 0.4210921904316103 -2.013171718404326
Ni 8.68725266046678 0.7995196330512454 4.274997172569782 -0.08847114555921538 -1.607478893246922 1.7678820490597487
Ni 2.2012226306450686 7.046050449774891 10.1318463451089 0.6841031883153509 0.8999539835735211 -2.211245392184734
P 2.2420739785595 1.9321792873811139 12.720153252683426 0.7771259578009907 -0.5937993604227709 0.32586675686769684
Ni 1.1623956354861873 3.777075597721301 12.350342943777031 0.2830116093753836 2.3129829158355517 0.16581069998164347
P 7.745172061396063 4.287657493217186 1.6228370901607487 -0.8123135614457171 -1.1807953247704632 -0.15270732983046606
Ni 5.706690722826457 3.021072012158314 1.0545919813533597 -0.6972713502661928 1.1447875392172864 -0.7837480911031987
P 0.15072016727598825 8.066550141184399 9.753760617519092 0.209590159060439 0.799352887519991 1.1754281469212788
P 8.676313464570073 7.49069279091533 4.6995892404890895 -0.024243703038713087 0.7234336104838573 0.37303852945749305
P 4.292942619059356 5.347385178006706 3.7415711738046107 -0.5895788945835201 1.0941895145547607 1.3529358236248763
Ni 8.72571509460613 5.646580487026424 0.321478617086206 -0.019045703777541393 1.1053398747446255 -0.1637877560143437
Ni 3.6703492606885875 4.045916021668453 13.00954571398053 0.07672943164225496 -2.111192198214874 1.7556117163328282
Ni 4.329458872478464 7.852064423324341 5.149857058507607 -0.25499455533716725 -0.7547182795297519 -2.2285859403457104
Ni 0.78595447672301 0.3088561132205705 0.17124637853107424 0.6709183141939608 -0.24357525775663214 0.6482560967097546
Ni 2.5825356977325638 8.774812345666984 6.394770756531991 -0.09111552516059791 1.8286199903697542 1.941682709225404
Ni 1.9135568282618463 8.2286273336776 4.279169009251132 -0.3020881663908604 -0.8183412556970359 0.1349950001523675
Ni 1.8393436999440507 5.334287658467647 0.623602420791594 -0.043975634250001686 0.045749952541605084 -1.2416669634448552
Ni 3.19825747014798 8.52699251821949 13.114870063006245 -0.9277956883761376 0.2868425530856995 0.2522650722211462
Ni 6.105574758027973 6.205383391078789 5.081967633989797 -0.6940335600551854 0.33122107920107474 -0.29767101115977124
Ni 4.63936278726216 0.6608178234931403 6.120794629148678 0.3567577900195985 1.4782933006874799 0.20335626233558524
Ni 1.2257525803550586 0.5115845013929945 8.79186863660475 0.6302627454561275 0.0016969280864486905 0.8419046448392725
Ni 4.927618900385171 2.716646918928282 7.545524357396911 1.5673210900811136 0.7769709202803652 0.12965070512131865
Ni 7.717731835601202 7.959722344493284 2.3357821190588135 0.3112600626981155 0.3939739940585796 -1.3395270064181384
Ni 4.368843667148734 2.4006093066139704 2.9579548810274816 -0.10962643948059185 0.17202557054310375 0.9681265267847005
Ni 5.34722837671645 2.501700020802765 12.138425077635054 0.4330851011274284 -0.2505221213881105 -0.354885255587234
Ni 2.3580331445067193 1.1915422282632484 4.767695419731666 0.43396904639427847 0.4952775154957728 -0.4747760531083113
Ni 3.9937011920130914 6.38457959502586 13.131866400509503 -0.24083626155891427 -0.6584219814991629 -0.2845367877706584
Ni 6.743774456581901 1.5438931746798663 2.405697047302523 0.07505358660172881 -0.3720633100284173 -0.07771827791808551
Ni 9.132549877584173 0.43433219512581867 6.931072675432571 0.5235691633516144 0.2282764226160327 -1.3771281046003638
Ni 7.279951856810807 4.301077838942066 5.457771441626108 -1.6061259787634532 -1.4468245406552371 0.054646740810602654
Ni 5.986922299330468 4.31849200576583 3.156022581437169 1.1650357479433613 -0.719236027462742 -0.658986081532749
Ni 6.622410257923493 2.087975204658753 4.695957907078858 -0.7648471404336377 -0.8017962068541611 1.0221505464096396
Ni 2.527655246142844 4.814454486846638 8.208519874103553 0.24211564249197012 -0.06588580405953169 2.3019318002277127
Ni 0.8573986787269847 6.329385540855627 11.811368024057847 -0.5796883749426855 0.32015376564331954 1.3540033456574423
Ni -0.07293658134300274 5.147758688299765 4.705745074672447 2.8697571051842257 0.167029402880093 1.6135214998965761
P 5.915918985660273 0.2548067084692096 7.983534926320036 -0.5424868261917238 -0.4691872461666242 0.36071163246102395
Ni 1.3464065614046588 8.851589636260737 11.678369169662417 1.2104100623131027 -0.3697624298093825 -2.873659011341793
P 6.93607740367334 8.246465786345587 0.137635560784362 1.595528148642949 -0.2609865112545441 -0.3566778287112825
Ni 5.7641630075080625 -9.315841362288527e-05 11.975092552459271 0.6442454328884646 0.010288012189569378 0.5931041341279591
P 2.8310472955782466 7.323561062712687 7.87032623947602 0.40424529407760057 -1.0892242001296852 1.1046839863281814
P 7.923455128417523 4.093814204039111 7.432585922188453 -0.1540198779943025 -0.22670599280511922 1.1822431129605833
P 4.164476244312866 9.51165850300277 3.2697708491917736 -0.7823147010907817 -0.8224781606835448 0.18351968722563233
Ni 5.6851720516401025 1.4959304270720442 9.950019568927646 0.17386210953121023 -0.0644074197417923 -0.3070717356483808
