# total energy = -340869.9487259509 ev
CRYSTAL
PRIMVEC
9.20706176965622 0.00000000000000 0.00000000000000
0.00000000000000 9.20706176965622 0.00000000000000
0.00000000000000 0.00000000000000 13.47546556396006
PRIMCOORD
 96 1
Ni 8.379494113490429 4.6899483016389505 1.6747442571681623 -1.7712743625707497 -0.8843808117256123 -0.7545580998028038
Ni 8.595307638381998 1.290784006918668 1.8560966710393967 -0.0788711605756061 0.3107548409269229 -0.8717890911035308
Ni 0.21200180137172692 7.118504158045698 8.676083952286913 0.1560767605233312 -2.3170444874994356 0.6035826650617798
Ni 8.364753607801374 6.368128634211956 11.58298440995514 0.44838342204739556 0.7876402270687531 0.24471451356739787
Ni 5.345583161175156 8.836072300323744 9.879618160260083 -0.9781432875907542 1.299619114479607 -0.8037528163598996
Ni 0.6508545531316109 2.0310041417611386 12.570574352761424 2.6898778429246577 0.0711064290285227 -1.7629992670461507
Ni 3.52474861551896 3.716632987202629 9.37106795186926 1.0974288474276648 -0.9323799653127104 -0.104024262802466
Ni 3.7459943067793873 5.58629258074705 2.8934922137987913 0.5980002858779959 -0.05959405751354897 -0.024157828193126136
Ni 1.2554196831512399 5.68627206311896 2.5065442720464257 -0.31761274438902076 -1.033434603963891 0.5545427289149933
Ni 8.403782342102371 5.788507275593191 5.018816257140421 0.7585931891041258 1.9651005739287126 -1.419903033674045
Ni 3.098811529830659 3.356001589741969 3.4101823853874214 -0.3984320298299332 -0.6283310756510534 0.6707303665528707
Ni 7.780832551395735 8.655144331994212 10.70609557280303 0.7292808132932537 0.022876647487857376 0.10026351020845313
Ni 8.682305163838501 0.00796963255742929 8.520159601258918 -0.7188549899742394 1.7351161674826374 -0.2674394659687394
Ni 5.260758502266196 4.812070767260186 7.495956857126534 -0.4133518843645591 -1.0331720943311238 -0.1342874325623816
Ni 5.572242604681158 2.5362232352498375 6.596832966108675 0.6605765659483205 1.159764986462725 -0.3556684136101616
Ni 7.800213416152422 2.228375922183518 7.962841428762053 -0.01560093976205055 0.2293359742287986 0.3440544835203172
Ni 7.453539924141233 8.557834897498521 1.7047270534057646 -1.0099210942229833 -0.49479054855702526 -0.4118087082471553
Ni 2.609704794215691 7.629707841601783 2.2785801879057344 0.8137230401987342 1.1914535758152578 -0.8675352009231834
Ni 1.4116635192182165 2.209998627145823 5.384593481352869 1.92682584671823 0.4303543324598265 -0.9485578606241534
Ni 5.018898199989036 2.4331317660428873 2.0331107174648584 -0.35828014020139587 1.1641340620646985 1.0607078378575474
Ni 1.3255406646177157 7.486197371785874 4.253813474475824 -0.6965694391031617 -1.1450261375906536 1.04425329184595
Ni 4.580282990419519 5.473855943973336 12.526657589434619 0.19477212021100004 -0.025820303497213596 -0.4127535886589279
Ni 6.084854968668488 1.8792717658988065 4.342953483176451 -0.15683086508053634 0.9398461917827685 -2.1669110890437326
Ni 6.3497329250509775 1.1627690218464675 11.270124772530846 0.5752442231284028 1.5968203850918112 1.253093203003926
P 8.34287762933967 1.825373627045767 10.174946631611594 -1.1410728093698606 0.09248155227018912 -0.4539303200075537
P 3.0938765447904766 5.546757458055737 7.414039788284159 -0.5833234005921115 0.5601240796575128 1.7725887105067988
P 7.077320971320443 7.5379226440913705 8.996247551711912 0.24489783322279757 -0.35598851595374176 1.1570807547623427
P 8.351983413303739 1.8208437527178383 3.8504797251189564 -0.1499343950710192 -1.155145742523159 0.5375996733027515
P 2.3839108145040506 3.4239497046609015 11.785911731372384 2.1534837598942334 -0.5537868245855753 0.48798098183435956
P -0.1679598220065894 4.9736546990796 9.39082262332862 3.485056030241669 0.3597806360063223 1.0610569936668501
P 4.479879983212071 0.3197603301250733 11.891289313985073 -0.6226137135513019 -0.048367592670110246 -0.7075467640502717
P 6.752274867106622 7.876806961953316 5.584259661536468 -0.5940700975856542 1.0979476960456123 -2.202352717680794
Ni 8.340428550942864 8.699807788020195 4.0879307655757 -0.5343503131275185 0.03093628456754027 -1.8113956560716675
Ni 0.989354015816915 5.838326686138766 6.3027446859603575 1.8119816104821245 0.5325754806152828 0.9477826730210258
Ni 5.431871742885217 6.122410573106744 1.271832191234504 1.147551732225985 0.046091137931107716 -0.433108498166196
Ni 4.929368732580946 0.36169665449265526 5.590836265667442 0.023569816900140053 -1.1160906855032262 -1.0431528596929196
Ni 3.851507233198218 1.022821684886064 0.5140164408877554 0.16417882080517532 -0.28814661660910373 -0.7723542474439601
Ni 3.300630321026188 5.447947272512377 5.251577220396663 -1.7286657838716035 -1.2339431124380362 0.4641283435864781
Ni 4.621070273494163 6.6907440741522555 9.206006512867615 -0.21614724345266648 -0.8111156844828741 -2.338336564108992
Ni 1.1006029416387937 3.126395886510486 9.949933410727207 -0.6630340263498774 -0.9027523722542646 -1.4152686202258271
Ni 8.798507488823846 8.14476928398592 6.230745463918887 2.2024542762556654 -0.670290965022607 1.5330876228195403
Ni 5.375635010375075 4.835963092221519 4.643416732805781 0.8785253813860998 -0.40382491871073034 0.13833177783508435
Ni 8.524109430703392 3.037980473561094 5.581146753995263 1.1002208083505052 -0.8415313206602539 2.815942116246299
Ni 2.5023504554684344 5.661330133130425 9.75139969912559 -1.7211180534313326 0.7605860511644384 -0.8285361939521666
Ni 0.6213063302035173 3.269528866799067 2.6900262792754845 0.8138361687378306 -0.9802158538490665 0.5300542568553259
Ni 1.153773722622105 4.646804010783922 0.3735590327123779 -0.6816287586329293 -0.8247625858423473 0.008192306002805246
Ni 2.3853655302435075 9.19689704607889 5.290508359844252 0.6471749478304338 0.14999507310562551 0.8107804126306424
Ni 4.6944413477203115 6.954719738493816 6.791418689678145 -0.9124932536911124 1.2784275680036563 -1.8385189946510205
Ni 3.691129426453924 7.03320993899299 11.200375756354711 -0.9458008667043065 1.9038044461223922 0.24972250830495057
Ni 5.196014444798726 7.663304409533922 3.059496455912592 0.5957508277221869 -0.10746079928784072 0.7996066554020099
Ni 1.3272163498365837 0.5852118864478679 3.314451961963356 -0.7962361962678802 0.796283504566048 -0.4058149525575656
Ni 4.192951114196676 7.967496519128314 -0.06375061551628482 -0.7627015548455445 -1.2631480161367667 1.014900806825762
Ni 6.210945677857483 8.801343263809622 7.581485856251117 -0.8390252664089485 0.7841211581719012 0.16395539194045958
Ni 7.269766973764282 4.512703157966271 8.64134386729882 -1.094413971860741 0.47661567742021144 -1.5402936536496763
Ni 7.9550577788497945 4.026413783213796 11.193731940673748 -1.7851688611646546 -1.4650860579685863 -0.1655502472314052
Ni 6.370872338581312 8.577326246994915 12.987492200865093 1.005893718231145 -0.9014028002049056 -0.44961755156481276
P 3.6058628285861416 7.3541957290226305 4.513215991299738 -0.47525453540662665 1.7162280723288827 -0.22565338317088876
P 5.371270863156703 0.19801443332500027 1.884395495702653 1.598295426975441 0.3037930648971091 -1.2651635039048985
P 3.1961577925729183 6.022504747227971 0.8048131964990104 -0.05721115910366921 0.3532222660625142 0.6096409554407178
P 1.1457359578085238 4.501534992194366 4.4926262393494385 0.10736669691213767 0.34333868840021514 0.3556992668480971
P 6.717831249503407 5.906109073948141 12.937134177213453 0.7352696838868369 0.329158283134775 -0.06914904819183575
P 1.636196131484885 8.620424502541733 8.029571449425731 -1.5803946354356202 -1.4342078803324914 -2.3334566103088714
P 5.47853313128754 4.841220324419176 10.105372549606663 -0.6570855220759264 0.1494710822813555 0.20947060276343926
P 0.9159654481736467 7.641511294626995 10.96508008902839 0.390647757898824 -0.014065476954130615 0.2562806211384425
Ni 0.8533436184146872 4.708850399190247 11.508303170857317 0.26345168496558496 2.2448137150584824 0.40982921592328125
Ni 3.7905196568807367 0.4822474746915796 3.2501074909711543 -0.5273281161734145 1.0259344389321041 0.6741905571873292
Ni 4.7756108031573445 3.1398474035696404 11.48849417773427 -0.7285681034969452 0.5312539335903818 1.396157610427989
Ni 6.162360013571953 2.8405810719537885 9.675397246682122 -0.3738036897582917 -1.560151826026184 -0.8212399174010696
Ni 3.338784384471182 3.899485231415367 0.4276293436181253 0.9101728330880519 -1.685540413437039 0.053096108494031145
Ni 9.028435439212805 9.005159987381495 12.698779924009616 -0.9641269187070041 -0.8465398296184389 0.3780825196393037
Ni 0.85211171356697 0.5620671748918771 10.55110113500089 -0.5923988805308185 0.10621150026177194 -0.6784819854738314
Ni 7.442288894814548 3.8977082685184357 3.9921202407153475 -0.0876908157497651 0.6664489655686974 -2.44069706605579
Ni 8.728745582761414 6.774353400924454 0.5557925623827642 -0.3604545221448953 -0.24874111822828776 -1.0327056962176664
Ni 2.9278640163211977 1.643810371462928 10.714086381602236 1.2491319043633327 0.03232622293653143 0.3129127678101901
Ni 7.398647422630843 6.470557194980673 2.9545902748559776 -0.11372014993399125 -0.26446007162544133 -0.2373128217866881
Ni 6.41201869706 1.6300458143079408 0.32177023168155067 0.5381133797143766 -1.139171992802722 -0.1267291605991495
Ni 0.73582100078986 3.757070401934872 7.388516892706005 -0.16000103527840187 -0.3925282627509885 1.4644893049248522
Ni 1.334922660431048 0.25306529629563473 0.9456747946804775 0.7833477703409863 -0.12102696800804963 0.3157427810598175
Ni 3.1416888158980663 3.441792990123353 7.02560950960741 0.19931731637952124 -0.6543629809384408 -0.30755947391807675
Ni 7.353624891200819 0.7982356716618715 5.935619547923501 0.7812098980623772 0.9381865446921585 -0.02380327306718481
Ni 7.04301545964186 6.483760121375489 7.084186677186981 0.9064961555674129 -0.14309346088978583 1.461596042537457
Ni 3.569356829175089 9.202476525434022 7.285604961201077 0.16416827928221406 -0.83632483675865 1.592045332300671
Ni 6.066275118274666 6.9715502471756325 10.981803795795159 0.7795713340176896 -1.661017231484694 1.2897216528602369
Ni 6.027918499473545 3.8886208986776514 0.18287710327917137 0.7828330354880969 0.4064428159495517 0.3139939166895108
Ni 2.269798492511469 -0.12645991236084453 12.313259997517944 0.38529497822734293 -0.5422304872065435 -0.49712331045526
Ni 2.8970479810049827 8.729298006459942 9.559738138333662 1.2509309052452842 -0.9269487669948101 2.489363935133874
Ni 1.942791284167874 1.4810939710615325 8.304632415984418 0.16021392262015635 1.496116702022146 0.19046140865078812
Ni 1.9044622865516794 6.531940674948766 12.677111104434857 -0.9060487836173492 1.1171654066246437 -0.33502476921788105
P 2.469297104173181 2.1387820053439337 1.6269062062879738 -1.0152954711610191 0.21554817641608687 1.2766817889571431
P 4.854423250813993 1.5006958052976311 8.211422886037969 -0.11912178056553678 -0.5201447110510977 1.8649455642736656
P 6.100193933364279 4.380683101079743 2.506759717288851 -1.2438079210472577 0.32126679620184023 -0.86459334468604
P 8.326562716109812 2.606427080271092 0.15129043690350977 -2.5281405416814398 2.2231495998214874 1.7866783558306456
P 0.33965126609673485 7.641161426284595 2.303360994315532 -0.559196682747237 1.6439062828360205 0.3837029511498747
P 7.254197832527437 4.612682640338181 6.184887851997921 -2.7410016581836665 -1.9219242956515545 1.4167212935119535
P 9.458230283729158 1.3128441266132158 6.916080462900282 -0.6060552949719885 0.07449437166414913 -0.9036064927244438
P 3.7617567963107175 2.252811463781736 5.251335074675475 0.17305632580046326 -0.6226551083121986 -0.9960160541061169
