# total energy = -340888.74901704903 ev
CRYSTAL
PRIMVEC
9.12122049616446 0.00000000000000 0.00000000000000

0.00000000000000 9.12122049616446 0.00000000000000

0.00000000000000 0.00000000000000 13.34982818323215

PRIMCOORD
 96 1
Ni 6.612611321654644 1.8796008144365293 11.492306562712024 0.623181927349946 -0.34751647392698864 -1.6562272662952184
Ni 4.779984793473437 0.5759722465229359 6.015566319105363 -0.5124563412679045 -0.5101698592265731 -0.371458843675199
Ni 2.853008359073772 1.764408919073719 4.6008850657518074 0.5465555969444587 -0.5026203290140893 0.49855104404072204
Ni 3.537337058217821 4.968520423938975 4.820476628225525 0.6025115434847882 -0.5682773048922665 -0.7043292855542386
Ni 3.7404210355915617 2.7644139430741697 2.500622769661415 -0.3627674865487881 0.5406443736663463 -0.04552035302930225
Ni 5.584211937826461 4.2568006992367255 2.6312915521927747 -0.038151057148424615 1.1869523455107944 -0.09644722178615649
Ni 5.234321914379046 4.807576485885543 11.36401477027739 -0.9422805122558741 -0.21367204243929655 0.6003608156903726
Ni 6.046502763123262 7.99315367042637 12.473678757205217 -1.9219939725472253 -0.239242177598917 -1.9157832157508234
Ni 1.583525992718514 6.569212553887104 0.303498583190483 2.7781548701951957 0.8879988680941738 -1.4421438473501165
Ni 2.905026680338647 1.349502834960685 0.5114760954333459 -0.7797140302431411 1.1747869137928542 -1.183758006943213
Ni 7.865338005708731 0.1908788720459254 7.099719164047267 0.11173268719031725 -0.8283703577982637 -0.5168629549760324
Ni 8.964882910467304 2.259034471511321 1.336104673974191 0.3311508880847716 0.30751267984054137 -0.7774684287420739
Ni 6.805470410699798 1.19596532806052 4.782669168705464 1.240237172976864 -0.6786624769157538 -0.7855134105337375
Ni 0.5811439786213374 7.325279653302632 2.1511112768702323 -0.5029162629879532 0.08457798115239627 1.5899475692313778
Ni 7.936155162696367 3.697460086414363 3.491927973422967 0.48690368960978075 0.8858373416664809 0.8048619902636784
Ni 7.619302200378424 4.217360541223519 12.368255689139389 1.0251937041113377 -0.0850945157774986 0.6854010811911679
Ni 8.147347905212046 7.3975105994882435 8.956734011954586 0.08051435260598393 -0.3985500434650362 0.17243231906321915
Ni 6.968211229217753 0.6901234106116232 0.29547738176661287 0.7275566315132953 0.5662055099649023 -0.0352379972666877
Ni 1.9565018255857773 6.648430355076906 9.095839011448577 1.0475970115072022 0.42575462890428606 -0.46893579227745047
Ni 0.19377577171868085 4.882954253189231 1.0715090089016843 0.29188448638498116 -1.589846010656507 1.0159601013282116
Ni 6.450892079847483 2.2004944774944932 7.038430034131923 0.08028629575557786 0.4269867015391743 0.6144463472491611
Ni 4.015909262342924 4.1644392191160655 0.463742011499369 -0.4217208251545447 1.3492547752288635 -0.5264889081015708
Ni 6.3164817726128355 5.747253756625275 4.676338539186741 -0.34414318657938153 -0.0004861956077991627 -0.27993425600164046
Ni 5.431157855619797 2.862631246840639 9.301866406720297 -0.3522149078439224 0.27329335364635515 0.16720809454980234
P 0.4110569290062874 5.4590323058714985 12.234196548899076 -0.45212463425738264 -0.49739301917687884 -0.7589783403576864
P 4.18889321163073 6.380576589994613 12.637281531072906 -0.7614031477490951 -1.029467134675711 0.08186109644186547
P 2.0961294710219875 8.569295571653063 1.1869261984141073 1.0236973220714694 -0.21245642486464056 0.1578924735758313
P 6.668725070983332 8.240657992278445 5.777538945490042 -1.3437888670182856 -1.1961214136045724 -0.6676586696060824
P 4.68898237522696 1.0780644301699758 12.465028191557733 1.058109738113068 -0.5792548869496926 0.5607149191639763
P 4.1718365290487 6.38516456397256 8.312604356380335 -1.8541114497726392 0.6990315274904091 -0.5752048852500351
P 4.8393000912439925 1.2350315160278107 3.5668341736199745 0.4769740892008947 -0.09978888456487976 1.5251796808263733
P 0.10273504434554911 5.555981759970106 3.475387551928714 0.9361461172233618 0.7087551825360762 0.10148812664417362
Ni 0.8986536688247915 9.121092935012676 4.632483710387596 -0.923981199726054 0.8625482892315532 -0.4449324873843176
Ni 1.882017937904036 6.886758728973087 4.295493829280163 -0.8276576480019552 -1.2775726762025286 1.1634951429291187
Ni 6.015964916446985 5.8830960954991625 9.232234096292771 0.7992415587531073 -1.714994457032098 0.6792851981014172
Ni 8.823649930199846 2.457503111245218 10.194275687900351 0.264665502768028 0.03914607407184226 0.03233650734917656
Ni 2.5332730910360852 5.6885860655195986 6.869287942974359 -0.26238956224965776 0.2998261098295611 0.2588167572967349
Ni 0.6442281647570779 9.05365975087955 9.103047512114127 0.7113468545226522 1.0300397193497293 -0.07666258296006151
Ni 1.572945376785276 1.0357966937608172 11.602095959094441 0.07538011670321211 -0.5005235943860605 -0.9473355581812781
Ni 4.2322372520744755 7.222209860159885 1.388769689781882 -0.4553320854510868 0.3738913643760916 -0.48413975371139845
Ni 5.900535869347741 7.820397751654366 8.01474268754049 -0.6792355758104045 1.6356764387270604 -1.0172032297066933
Ni 5.295342880407805 3.0058070471027367 5.038906147190714 -0.8939255179912541 0.7727566250887014 -0.8125994681172521
Ni 0.6110734398814521 7.912439989052904 6.726978658672311 0.7945446674980703 -1.1490442576111115 0.3088619947795842
Ni 5.224844966142292 5.096664452599369 6.959212232942122 -0.5165374533158137 -0.7497668490617474 -0.30213444624776353
Ni 1.0270585643952639 7.213471730794331 11.12937775437102 -1.1671561367204737 1.5799490632577693 0.39143451546617747
Ni 4.400386954427267 0.6636144070885465 10.128328350608195 1.8257773787146363 -1.4544044098850242 0.6635135370894574
Ni 8.281110605781816 7.510112068191536 4.454423801818026 0.1285808690959076 -0.6048592177813583 0.3409979560821805
Ni 7.434405936945094 6.26636978646007 6.865282814994804 0.6689426785248286 0.2457954053364025 -0.4668259450232993
Ni 2.476475250159989 5.408482501128392 2.3818234315386086 0.408341061413529 0.0029220587428014193 -0.45835930231318484
Ni 2.4840093784021047 5.494158126525722 11.396681509849198 1.2432332794907106 -1.6141699321138523 0.5400851587287666
Ni 1.5178349617261186 3.588543590846439 3.6198859291824665 -1.1177863280380944 -0.15036762595369588 -0.10329998304193176
Ni 1.5474424438979202 1.105865910656621 2.55234009064543 1.1001516456754667 -0.1549745285980879 -0.26909654195618815
Ni 1.3470857114931782 3.6944318411645054 8.15864088847665 -0.7925721171527318 -0.5544334570306387 -1.069560403152171
Ni 3.57565530609328 3.2704501425225305 7.1503145748935335 0.6057254224363955 0.3925580875476594 -0.6363647445888072
Ni 4.3865318202871055 7.164928594590287 5.83326048233155 0.31633182079406813 0.2872636997835182 -0.3995399181821313
Ni 0.15938420932534206 8.85200780514505 0.07701502640714923 1.4008298190926778 -0.3487639731808445 1.4249974174778168
P 0.35022112375635983 5.917784097563045 7.801919982897855 -0.05385355548534596 -0.2317564107448331 -0.03273914210423394
P 8.948510319432684 1.739945805338423 7.950116102995862 0.6400483640879816 1.632061981902925 0.7625598870613576
P 1.8816804527406485 3.4467268524585246 10.411143653893324 -0.5522032821485393 1.1426398967466644 0.5326266455681924
P 4.4839646990792135 6.351945078430446 3.3888937530406853 -0.19838760547640027 -0.566016790992864 0.4035433829145695
P 6.915326391992829 3.9284367564810707 10.379090772470056 1.2619570811524587 0.1744750605248608 -1.2479682230725346
P 6.286363502085636 8.005138954336951 10.283652704630187 1.7312106617806442 0.9914644301796923 -1.5011987445307438
P 2.637464794316581 8.523762438257613 5.6324531616275815 0.5083307491353052 0.5406847399859785 0.7465851088996562
P 7.411785309777482 3.8685012157075316 1.2260425530948746 -1.9730694510668019 0.26733070830501704 0.5969800721435976
Ni 5.809980390912238 2.8200077828268286 0.02644150649039911 -0.7447076893712852 0.791104788578586 0.9818857853523218
Ni 1.8118392663606473 1.25221589569869 6.835072420139221 -0.5420206851885826 0.7053602979219142 0.3420338535458626
Ni 7.115081123835853 0.8698260510170346 9.185642901303996 -0.4826117471026462 -0.4191985729533232 0.8975849691207122
Ni 2.782291535513089 1.9755834191481338 9.341275552583355 -1.194317013405982 -1.279058773829752 -1.411207562782576
Ni 6.685489874505134 2.084408702509737 2.289669003126297 -0.5571009765604729 -0.8378656988832086 0.6926302519497555
Ni 4.335699257704404 7.169790205187197 10.57164886123435 -0.7004983418439226 -0.12526671712101006 -0.7102716191806026
Ni 8.216733030560443 6.725240154019833 0.10151736139116356 -0.39375416473828956 0.6149148022451474 -0.3277477759404936
Ni 7.924115151461993 4.173943531014715 8.271193102588532 -0.8392109000571935 -0.6792435462302044 -0.666277987208472
Ni 3.2522989134646485 8.478074244111415 12.355760528995472 -0.020889441854499508 -0.5196831980336469 1.0509561577874222
Ni 0.31793473908491005 4.929609296722431 9.929695528902919 -0.4271304262058902 0.9906738159575971 1.442099367265426
Ni 8.878322526668661 2.6050844610726207 5.65313188092262 -0.08890617621410495 -0.16833038107970363 0.8646617360301302
Ni 3.5941440203145496 2.7129064101646927 11.64971420352639 0.26619170960456734 0.8824308870880931 -0.10586645821752735
Ni 1.1068783661467845 3.1319626496653328 12.47221024068345 -0.6544534837697181 1.1881936741170633 0.6679869994797786
Ni 3.1570460064036125 8.601146874100362 7.832651199451531 0.7399174670714934 -0.3195279591338626 0.7532812899729092
Ni 5.922855496234494 8.117795150364037 3.633543132834912 -0.581181157438128 0.324651396403357 -0.36290889722265884
Ni 3.2102227226887643 8.45040958193425 3.317445407585307 1.1186425053908025 0.7585121993545453 -0.26727260137357195
Ni 3.51276448983494 4.445628208762491 9.249561679127574 0.4347861429789351 0.7814808923355767 0.48183630238920244
Ni 7.449857284695874 6.300072696695684 11.14271480317928 0.3773096460290212 -0.5717277253347121 0.09222984127069922
Ni 8.088570759458783 9.063264396205152 2.463564162355249 -0.19676266827846758 0.24281112589709794 0.27070810941768214
Ni 4.84106960804662 0.6012279943311617 1.5585520906278199 0.6384008011822295 -1.0204101666797654 -0.4844431438844301
Ni 5.94988167296741 5.7640368025883415 0.3908132919354012 0.46007037146702057 -1.1031747487725065 -0.02356467469381748
Ni 8.291481433640515 8.619973073485019 11.315140533764401 -1.1506185440767667 0.7558130552558273 -1.0436627094498026
Ni 0.4209151442654627 5.049516863152037 5.641944703817347 -0.8781458865594941 0.44580614823852255 0.1594896428596221
Ni 7.383016979903834 6.3186343806820116 2.4548862330458676 -0.0660215583064476 -1.0224181982487295 -0.17523276462649176
P 8.954949901198948 1.680657871229763 3.6271883784205268 -1.500997684263531 0.3834083027275913 0.010912533147445723
P 2.137795206869427 3.495662201149749 1.104993009842129 -1.1636530086632217 -0.6140377989568329 0.9409101142709086
P 4.3878179123962315 1.5374273436438728 7.91396505714259 1.0162951160701272 -1.7513616828072225 0.24572058623440907
P 8.68161428251676 1.408799890289977 12.320436777853532 -0.9297132171138246 1.4126239835141283 0.06140359991846198
P 6.536449129376596 7.82249563239975 1.0898390138839555 0.30163025291783535 0.5528496574832866 3.1863678906712933
P 2.026397739289571 3.599762692223924 5.794666773593002 -0.3857894013652582 -0.8178450327869077 -0.4947465826929673
P 6.94384844890941 4.138772104257331 6.043841190942815 1.3032726520717943 -0.36914562216099006 -0.33004351395320575
P 2.4860525318236957 8.694557294593713 10.26272041540158 -0.10718569124958315 -0.3523236655076448 -1.0839655228339073
