# total energy = -340888.54728300567 ev
CRYSTAL
PRIMVEC
9.09078330997741 0.00000000000000 0.00000000000000
0.00000000000000 9.09078330997741 0.00000000000000
0.00000000000000 0.00000000000000 13.30528028461422
PRIMCOORD
 96 1
Ni 6.555582101111834 1.9564274992654216 11.292258438183783 -0.8567566222504407 0.6946567954614811 0.3914537987398871
Ni 4.9971400090781435 0.5441733862891046 5.8162968666477655 -0.5375994161924355 -0.7973397137447042 0.4031407481595122
Ni 2.7718525902421876 1.6374773630648392 4.629253276663186 0.5360346428084769 -0.309223491884061 0.544180668954379
Ni 3.5189331714867036 4.2965042403132845 4.372155012678124 0.21158379245170011 0.26603358676014827 1.1301047403941311
Ni 3.9433818492465775 2.6783357012270703 2.6096448326466164 -0.27917166680400307 0.9344869843533841 -0.6696677296163112
Ni 5.18593739909136 5.064511804984729 2.3032636135989746 -1.981255072201388 -1.3300594332473352 -0.10806475142042679
Ni 5.434052150903317 4.535046397186687 11.508748172643179 -0.15143129133151984 0.8010112490590204 -0.1927427484857971
Ni 5.491696808553249 8.04863418802394 12.22215103763948 0.5289031739700181 0.2889025209385218 1.1499906806847808
Ni 1.8008660134263346 6.613063124660252 0.4008890034552589 0.46766669575703973 1.104647219552975 -0.1893416932240481
Ni 3.0275036015071946 1.647059048786812 0.2001272333863611 -1.721316542595384 -0.026939247593005217 0.31196300230241114
Ni 7.988707743736232 8.69050713277852 7.104340878556691 0.01920459795290886 2.1054105585360903 0.7386771669064891
Ni 8.675925516176962 2.2944500990757746 1.1897435526595561 1.7124575495428571 1.349941773993559 1.3590589058034788
Ni 7.141155824162262 0.7674739356848402 4.627256940624719 -0.9084483941977775 -0.4234660899804255 0.9577464691019569
Ni 0.8934767392421488 7.757583666131455 2.7246950603426034 0.3754371115966566 0.09989044313975055 -1.0175675550246475
Ni 7.835018959281135 4.074670943361123 3.633286136094574 -0.3612767609358746 0.07783989109761433 0.050888559319751066
Ni 7.629203622710487 3.7004124808488874 12.6505142067389 0.03271831616862752 -0.09185163199567406 -0.23694284004177904
Ni 8.412583702140807 7.066256859586045 8.824075286295816 -0.8736441420343986 0.34231153268728143 1.6789041390674442
Ni 7.056829717182169 0.9719320182912655 0.2545737534300415 -1.9597164267986635 -2.5829559468594225 -1.10434537204184
Ni 2.120879771286756 6.645862671230346 9.13702914175426 -0.37369133255014353 0.42313673166546484 -1.2044936968286675
Ni 8.993375673113668 4.922141045884334 0.9733492714260431 0.8737441579473725 -0.5750670741205902 0.7807327013156425
Ni 6.504400990471694 2.372939923101878 6.963558279319322 0.6051088718983191 -0.6491084174077209 0.6915709574473058
Ni 3.1831014504799513 4.466292802200652 0.16340865008501373 0.21453619021180473 0.3812480618514789 -0.09802587912718602
Ni 6.038498340328333 5.989644470243056 4.415264416721926 0.9331024453010316 -1.625712128425497 2.0426149633661077
Ni 5.2812724447899635 2.9981676434191433 9.164956937490953 1.1816856977952166 -0.10055173087283327 0.12979365845708615
P 0.41860421310080753 5.795828967783418 12.306732595633603 0.21656093395131737 -0.9646167138592291 -0.49756245487520767
P 4.097906985776078 6.2906584907610466 12.722495938916461 -0.45878019190068725 -0.03163125375203585 -1.4978511682147495
P 2.2188420533929976 8.886849873028206 1.223614902594564 1.0656060464901131 -0.9351529000721571 0.6810626017168142
P 6.603099626034748 7.946308329877332 5.761944890751626 -1.5877346207404592 -0.49408786606304594 -1.019713654833373
P 4.637535889434808 1.0230676750143175 12.360432762358712 2.111308154967448 0.38613804295392856 -0.3812012677739435
P 4.196260171569268 6.084188617784344 8.088506364092794 0.02392051537133945 1.5614705448376076 -0.03530613150046178
P 4.891496014984173 1.05423997135269 3.5545854058931865 0.30396455747796686 0.15629864672615018 0.6654696323745636
P 0.3433634350680944 5.767029365916995 3.2774901456248 -0.11360213629888823 -0.8915665308407742 -0.012213768457372513
Ni 0.4653335671014304 0.6176714611406962 5.256450969747009 0.31266671323765505 -1.4735961523221266 -0.2389300456751369
Ni 2.034653690572419 6.6789894860034655 4.7736549167790345 0.8343147483071567 0.718312230096892 -1.5465943990567235
Ni 6.129415265286065 5.4399066154241424 8.90059422847702 0.30787957626165685 0.06168924947968085 0.7790558278338519
Ni 8.945330882752543 2.4892746784947484 9.98151474008153 -1.022431310874852 -0.5035366701807715 0.566726672575695
Ni 2.692235509072323 5.50057850395208 6.69892921035126 -1.4171491250779915 -1.0975139509423033 0.40024002957294946
Ni 0.5806647000050161 9.022629814150962 9.198180114568299 0.14160916303477547 1.599011736316175 -1.374681185721768
Ni 1.5476967860342863 1.2520645092994156 11.257278012671849 0.009638037310396304 0.5667225588106369 -0.2473282970411611
Ni 4.060434776529425 7.098074601547056 1.442518240051288 0.2841467514210913 0.6300313461716117 -0.14727458885066894
Ni 5.857682658155622 7.758720014058634 8.283215490562366 -0.3249254760003501 0.5394007310672323 -0.7957697981544231
Ni 5.662512628966787 2.6838628975448686 4.835192247888312 -0.6357502509332599 1.4014633389116187 -1.1456658280571819
Ni 0.9367052325487188 7.681075632890352 6.811598561870222 0.8021924138513152 -0.7933848428620143 0.4034351394714794
Ni 5.09579319072411 4.6484539203191435 6.658999762346876 -0.05210469111503929 0.23378089737402966 -0.28190577790571447
Ni 0.8849786749035339 7.770683485035973 11.087156728111403 0.021349412210053556 -1.8877995860537036 0.9514097282506518
Ni 4.6976441493908645 0.33184086708650007 10.11686923254035 0.3007915590666239 -0.5183027727463525 1.4184866129424927
Ni 8.270840207096217 7.378470725274311 4.347247175192704 -0.03447026586272773 0.10110760337630327 0.8730800420008126
Ni 7.554495564586037 6.22559575384249 6.805624099008286 -0.6480987451962837 0.0776138911297373 -0.4770995590351653
Ni 2.3603673696355703 5.346117002906502 2.395403248926351 -0.28563284904831454 -0.2250093218289867 0.3071660951344
Ni 2.258486959876416 5.446597432019373 11.29884380169137 0.3437135552411306 -0.2837798549999758 0.9116681866866556
Ni 1.2512827019255164 3.289863610934266 3.628297114155087 0.32951489514324545 1.8158521491811244 0.17714386560627554
Ni 1.0376583823992949 1.1234481055095955 2.772341674390045 1.8059513451276448 -1.024888257055777 -1.0989195730405785
Ni 1.3730082918849236 3.6409951204325557 8.122660437392083 0.5710181008621973 -0.545326609633364 -1.0436722225314992
Ni 4.039662336420594 2.5505374679448187 7.002808645802425 -0.7635834432298656 0.7191815200757227 -0.8828903432230151
Ni 4.3313310315854645 7.214963894728388 5.9857263425901435 0.4787376088592207 -0.2720412264068089 -0.8402460261899272
Ni 0.5288572343874162 9.008130014600159 13.300677036891837 -0.11412664134379052 -0.06568320113042236 0.33720994979465796
P 0.42523866683884903 5.580850121527999 7.676454787679272 1.0881193971012808 1.2969775630917018 0.024756381009073493
P 8.638507851630814 1.6627224686150464 7.909589746575984 0.11235489415534845 -0.44069530937451845 -0.09247563873291816
P 1.8163021636691332 3.3847077543283284 10.22026507589519 1.4269185457599296 0.391345555296797 1.6931454794778067
P 4.064525629067269 6.372520995435017 3.6321152431904085 -1.2709253460893402 0.5439410421397471 0.3780537232838973
P 7.073029493232031 3.895282514184948 10.215128783264342 0.5898372904512293 -0.09873473226875254 0.1456121135465815
P 6.504391899688278 7.588604183968239 10.333785324742024 0.795663611593862 0.12886600443649418 -0.352040072828955
P 2.4674022535924083 8.723597584417973 5.605527962192959 0.5536089042468143 0.07329649470130603 0.4435294363892039
P 6.803178678268997 4.110924987629839 1.3865962858589582 1.3384335162436432 -0.3340341231698376 -0.8949935542444521
Ni 5.026321423848099 3.0269308821518965 0.28634785963064785 1.5586487591180964 -0.16309304394016427 -0.02805793457848071
Ni 1.9972451168096887 1.3195908485240964 7.206073108546141 -1.6617505101062928 -0.4116503282924201 -0.8795759341378013
Ni 6.965758248906341 0.7791310472610126 9.314082148670497 0.6473330706748529 -0.3194976201165594 -1.7508873142739652
Ni 3.0924663398081593 1.9084008904711312 9.21886982854803 -0.6044768947412751 -0.4949566418212444 0.18769361609766386
Ni 6.560845664710526 2.1638246321507024 2.0766349283941175 -0.9940561021662687 0.06445549937090835 3.246932282517912
Ni 4.123561176580069 6.960358323556387 10.414535117525702 0.8745792522541583 0.15094869526814647 0.4424313182290186
Ni 8.190695860488141 7.10272908265678 0.07073720392771757 0.432052803208172 1.6451010744750703 0.10716872196871867
Ni 8.020261852978138 3.9057187335481593 8.14473467768629 -0.8598717708406546 0.21070010429516614 -0.6896673126666897
Ni 2.85172421334774 8.63466245024524 12.31913333329332 1.3315478448674034 -1.3795315718355339 0.2129703883865816
Ni 0.34368433972272977 5.084520619286495 9.814719773173524 -0.299598052979155 -0.47135185791811074 1.2340207597535071
Ni 8.755915319466942 2.730189529840099 5.933143433147037 0.3253700197369364 0.7916807156867139 0.1984300286785615
Ni 3.9447000128421053 2.8865055507028328 11.377970889635034 -1.7502136852457084 -0.8825972374626284 -0.09296774787798828
Ni 1.1844745345908128 3.146101961971005 12.770235278954763 -0.0495209895482631 1.036984783208995 -0.9068756503940189
Ni 3.4538886161349818 8.481891834915306 7.86340765773709 -0.17152934763297553 0.2642384425329385 0.34499576438766394
Ni 5.717030057121123 8.080815561321646 3.5657352517546657 -0.37047308272316193 0.8422707699294398 -0.9890190539629934
Ni 3.177956067065685 8.683107235076733 3.1726306861397533 0.24362642270954168 -0.3510106031231761 1.1773145653107142
Ni 3.7297666205037734 4.681608007442516 9.624068772421493 -0.6789841219212306 -0.9455064753923393 -0.41641149712648934
Ni 7.604403965547735 5.802756144747501 11.370865533315971 -0.5128054970772072 0.653121909442488 -1.5573410960502663
Ni 7.900354419702215 9.069447348750735 2.48088933987051 0.6210024032001241 0.2569385664374155 -0.31851520159863206
Ni 4.810224411232336 0.5667730738648392 1.3957507047603117 0.4184892055911244 -1.295112484858505 -0.18401976679050244
Ni 6.234395632190563 5.8261376396971345 0.028578695829379237 -1.3766676200241772 -0.08962042867231017 0.9487730619587532
Ni 8.097378968708206 9.151509850659888 11.29715473413241 -0.5999939192692569 -1.3417895772000699 -0.5139712352505341
Ni 0.28680148972317776 5.16707402350019 5.466368067795601 -0.008806285437720319 -0.720491754246714 0.04161896109236703
Ni 7.313080720152727 6.068216111319917 2.2178438853737634 1.3925812059306404 0.6260425367271929 1.6858669435385225
P 8.577663238217944 2.0016541467671427 3.7969675096821103 -0.9613161887310863 0.2793246474420996 -0.7239372895931532
P 2.053180707177144 3.0915481706829993 1.476805947866814 -1.0328134254401244 0.8108518892985261 1.4900686960558531
P 5.07055717595732 1.0284585095808543 8.134648453484651 0.2992692088848265 -0.23626586857941242 -0.8998380268209472
P 8.682579969638521 1.6673860405081886 12.479422026509472 0.5710767220142745 1.4613376466697476 -1.6672783819030579
P 6.603181443085505 7.829155403976892 1.3665856534005083 -2.1262223530751188 1.3586976658093182 -1.1522151991399254
P 2.0158266781149186 3.307417913713326 5.986777237153198 0.7763307155932049 0.24716914575547755 -0.8683309573516015
P 7.057802431007834 4.399384636248357 5.881359603566322 0.3696685845439956 -1.5435093323734967 -0.9861561305929016
P 2.6292272892061055 8.76084252407919 10.04090937353932 -0.9308578722412291 -0.5322409800939994 -0.48576571935059565
