# total energy = -340865.14217295643 ev
CRYSTAL
PRIMVEC
9.28875511747360 0.00000000000000 0.00000000000000
0.00000000000000 9.28875511747360 0.00000000000000
0.00000000000000 0.00000000000000 13.59503203618215
PRIMCOORD
 96 1
Ni 3.84180118568868 4.66119012708128 1.2596805709311039 -0.7078645524010067 0.294943327815963 0.9502948979199182
Ni 7.773926224620098 0.3493045591915352 2.9503798073229417 0.11682218589808267 0.7775291067766802 0.544720857728565
Ni 0.7092373118096789 6.197206513730693 7.769248407621635 -1.4703758456126161 -0.3683154129502108 -0.726825923994858
Ni 7.469059998038453 4.225306011771869 13.331261061964888 0.616589361734093 -0.85935472199492 0.7236292714344312
Ni 7.31706810060829 2.9314381782060566 11.077000986695413 0.7910983608206827 0.17818156284217057 -0.9975101221531402
Ni 6.8147879648361975 9.108116543472491 9.524746927498322 0.9664905338431742 -2.2298529799835918 -3.641073912502607
Ni 6.345315711587075 5.519498951761322 9.039703934307735 0.548307546638559 0.025325109028349935 -2.3036102163714007
Ni 5.500921441838916 5.4293237185979635 13.382758848345292 -1.6824905708671216 -0.004910807038056059 -0.6617199355241442
Ni 4.899065852882728 1.7037898787586614 9.542217217829354 2.2924176900896907 -1.0771207319979321 0.7387717835028244
Ni 0.5999513941891409 7.952864800192712 3.980054085655729 -0.643829942617601 -0.3096520947810473 -0.6169703992225954
Ni 3.229142774712613 1.0164405891395614 4.261675202946963 1.784332224195972 0.044682430509039174 -0.6506258824935117
Ni 6.507553105739446 5.048456898923757 11.26690958187721 0.08284325784947667 0.18019525083808968 0.9539607768072796
Ni 3.0345154920105264 7.9774521345750165 6.491777084313339 2.047066057158926 2.380220605937288 0.14572395653409742
Ni 2.8450063132920627 7.817016758885118 11.223690862793722 -0.008871848568333108 0.3584349206117053 -0.14180945197103967
Ni 5.721724436021672 5.9535438935884155 3.978449917673929 -0.6585651919452464 1.5028100548819214 0.3403829482060009
Ni 0.4906840540785255 4.245852737746049 5.760690763083919 0.5487711165385388 0.4865409069537234 -0.5753804915959511
Ni 7.400137436226327 9.022957237988182 5.752778601607966 0.05621948461436124 1.0969807041466526 -0.7626907562122671
Ni 5.329255961400923 2.9971839858214517 0.7911111846642105 0.738154975854432 -0.6674033590621666 -0.17715697823239812
Ni 5.494252115776772 3.125768220749385 6.982993384051142 0.47673626215847575 -0.2556342458036952 -0.7736338854873321
Ni 4.187974505582793 3.980965312517423 10.697944545363145 0.9871179802855387 -0.400595098919523 1.9460579554749649
Ni 7.9950078814516905 3.080606294128016 8.50461684488817 0.1263193267552405 0.2932407433025595 1.6240493960110933
Ni 8.958836962490997 8.117312918025851 9.134719537681377 0.8583046834638509 -0.035958934593112266 -0.07262929343095234
Ni 3.1932417367875634 0.5431432265974157 8.198280208396168 -0.3186383574400577 0.4468782982567787 -0.6954913755476345
Ni 7.881564317110517 9.260238483472113 0.020451980673576776 -1.5268496123296285 1.1450341080104538 -0.4880403743173853
P 3.778358989303663 6.471429137695328 2.7384197078632506 1.7499038673147735 -1.2453207581473584 0.33257296524327884
P 7.341283884792144 7.569722235553011 3.6395534084164223 2.3541786733475716 -1.5904386499351835 0.09503851436408793
P 1.1358010903910198 6.622520025894256 12.826912320462936 0.27039263505979233 -0.7119158396522449 -0.37712452660140855
P 1.3896256084608534 9.284528577695658 9.866961380027972 1.4539236135938638 -0.3121998009035655 0.1661122903824623
P 5.456511904369404 7.761553603011776 6.2381894294950175 0.6848691199470979 0.0003797519369219266 -1.9518660775163097
P 7.281993761874786 2.076501171576932 13.029356090464875 -0.20187247870120717 -0.24467003348270766 1.26964493671502
P 6.533106470637716 4.12116049114686 4.673075089054139 0.3462620326945972 -1.2835132100566797 0.7067767186534667
P 3.24402336016046 3.4254048782878717 6.4610526695281685 -0.9306174740956489 1.7851912297621577 -1.2880982583242009
Ni 8.912551096519323 2.677167799898086 4.055846610637161 -0.03607154891157658 -0.733438029994737 0.2985816958994987
Ni 5.337160691872906 5.445151757051852 6.443731928152014 0.6835951383306808 0.7040950580562454 -0.4674754056818401
Ni 4.627601989141571 8.787933159959824 9.821622038186844 -1.023401645207921 -0.7084993577715282 1.445380609119859
Ni 1.5922969529593416 3.788790261125094 7.926638000559755 -1.810702743769701 -0.4525802337375625 0.73476806166007
Ni 4.452936240851109 2.265620222587025 12.360915919320295 0.8401732639704627 -1.111649876123053 -0.08708557806559841
Ni 6.25486181577488 7.7315323469771675 12.673873580348644 0.3104064564485686 0.30336291933822596 -1.4017351045157667
Ni 7.141529209351474 2.611905007540673 2.302278294041413 0.36107750044087494 0.1959111189114497 -0.2058072949792391
Ni 8.74907829795711 5.769208551383342 10.171599103237568 -0.4611918866659735 -0.12008054493438028 -1.6100178576186917
Ni 2.246308901022684 3.0020327159111995 3.782219395865539 -1.3581273951281447 1.0594240860491173 -0.3594379079549229
Ni 1.3390669152070254 0.9204162269771331 2.700299586377969 -1.05289091291629 -1.3351191071584296 0.5852568701693985
Ni 0.1980139627609412 4.609563227006914 12.006860161966106 0.566305011657244 1.3752820525305607 0.4576293661256957
Ni 7.712657596896002 2.5586618641030574 6.314348860297416 1.2781072085497602 0.14682747401092133 -0.6648427974238421
Ni 8.792187409732055 7.9055107274004985 1.818022987271536 0.22185894912546308 -0.5753866622435381 -0.3696726983090537
Ni 6.658959811607056 0.6573549709738794 11.32823672875756 -1.7650510073688568 0.9912417726459251 5.207124620511729
Ni 6.382665795286073 1.792079494664896 4.605262533459877 -1.0665370429448149 0.07661038956588741 -0.5596201434379007
Ni 8.306998583088577 5.396181440896391 3.5672005093971237 -1.6567625699733983 1.0766173099989524 0.9922460455407234
Ni 7.380445275708577 7.500242348443212 7.443769504905586 -1.130840333008575 -0.808174342466363 1.697968869008379
Ni 3.0670911556594653 8.071955927550295 4.015510192218137 0.16414411091249795 -0.552664538055674 -0.9658007068650012
Ni 2.739653254522098 2.284402085118578 1.4612075408183722 1.6298446625366318 0.19502923052712862 -0.3956886627568411
Ni 5.818151001273921 7.684159696675032 1.9150096644479448 0.026491875642941472 -1.3247840437810088 -1.5809553930350968
Ni 1.6896895487275554 5.7451320985239045 3.1626260004354383 -1.0190127721116062 -0.16572508224637264 0.8382251391051564
Ni 4.0941487917196815 7.651472567966558 13.446710068502185 -0.8804174562024902 -0.08234369250523883 0.35984594202661896
Ni 4.822545089512338 3.426389486313759 3.3402585770605078 -0.11357025461968827 -0.5190913300859189 -0.510447795478308
Ni 1.386216635390092 4.147169005038228 0.6896594029779513 1.7897896477661177 0.3338762574357346 -0.5953718471162134
P 5.219230658885474 1.425768154014894 2.635342394058781 0.5233105103735891 0.030745251602656728 0.555301718568205
P 0.5691266608503888 0.12686674413560678 0.41312480790347267 0.5628008551587276 -0.6117726570717399 2.5605739796197966
P 4.046664676358012 1.4343138085792009 6.218530708495127 0.3120784448343529 -1.527600888673356 0.37531729818934073
P 7.1475018787915285 6.49198515242447 0.4794140076840979 1.6046946456335656 -0.3314581349125453 1.7299773035941757
P 1.8438364373087193 6.854488103540379 5.399756682680957 -1.9258886796159416 -2.793043100160938 -0.9068892772407736
P 3.524553048743752 -0.15209500261023412 1.628657784254971 -0.9827563608827333 -0.331867454535822 0.748000244079628
P 4.62620867589739 0.045774055573312294 12.21033684151973 -0.9425273381593574 -0.12645610944342092 -1.9445145222472446
P -0.08312228152131734 0.5703193369874072 4.684916393878681 0.6599296763929409 1.1694960977075601 0.3468091634473189
Ni 3.4779885201232412 4.843918514678066 4.506372590391917 -0.07984638000468183 0.9560572543249922 1.6741604537348718
Ni 9.172942764346727 5.758777279561912 1.0429386204173852 -0.8489160431600992 0.3932785106534517 -0.36434537255886923
Ni 5.624814855511441 8.632532289458897 3.924681959581006 -2.2431448119964914 1.7965678470302155 2.412209500139059
Ni 8.730398611730132 0.9378670109227452 10.498654307670535 1.207941546167952 0.3437130410204983 -0.9397813999831042
Ni 0.6474466560567642 8.488017839772501 6.406277810397451 -0.5324014169312637 0.8348168847545557 0.8076662924816929
Ni 5.39201078991881 0.47163188877760204 0.6307250393756065 0.6508511111304404 0.5131852490141291 0.21366484335044492
Ni 2.153681436549568 7.600356549415058 8.598952511398652 0.9188811594953271 0.6506338529133118 2.045154699068826
Ni 3.045067517646453 1.657336815197685 10.46828286557389 -3.850502863394833 -0.6123367571053261 1.510755020760611
Ni 4.636008312381459 6.483783181793728 10.64047780504467 0.8640660114276603 0.18546755498062253 0.7258126522389952
Ni 5.791798803448987 0.7923902462223682 7.644078719017441 -0.40373621565166595 -0.9412420436890305 -1.8039978209456997
Ni 4.6237007120578655 7.273680326184509 8.017289746852624 0.32186072103209734 -0.5990652368074005 2.1893563054211262
Ni 8.456157410255575 6.60146241839721 5.66340498799776 0.4596070586773568 -0.6880632014043634 -0.5695327745659223
Ni 2.9883039360785415 5.292314582920219 12.307351384961024 -0.5346094803261761 1.8486046610217968 0.7170307922813071
Ni 2.5159150137716013 0.5146954856532353 13.365180808456712 2.2995162488076852 1.255930415342405 -0.09138831920601036
Ni 0.9724676231532262 8.773935006233291 12.068228179368285 0.8702253461608368 1.5947511612676084 -1.1045207212774397
Ni 8.592999348344017 7.665591475507586 11.735992636293458 -2.944834345935038 -2.060543779930387 -0.6063548284902783
Ni 2.421699172200119 6.594245055792355 1.0997848719044514 -1.4851843713803583 0.21694402832234896 -1.075980961966534
Ni 3.8153375228042123 3.4556119094217035 8.544191585400377 -1.2380872165133967 0.5889451176542632 -0.6445043429768061
Ni 2.9364541058851064 5.607370573694302 7.172467265500753 0.42791255578755333 -0.19444121923414256 -0.32267936027865074
Ni 0.3352664638186691 2.164391371019835 0.8103138277955054 -1.9562374671111276 -0.052703758151618915 0.8583121396630186
Ni 1.6742144829621912 1.7524815322652876 5.954325077880653 -0.27768839739025725 0.13683565290553207 -0.10417492944771735
Ni 0.6993698674143929 1.3356765196461864 8.218822289992868 0.005146834308262104 0.4254252705893254 0.27763748954766376
Ni 0.5544485702606958 2.398718792426103 12.067072658251112 0.8492903957803825 -0.8243429818064255 -0.658096222728628
Ni 6.3143005587716186 4.861678614163886 2.088278383992241 0.5339541061303642 0.6032941872870836 -1.8343152409823185
P 0.20108110964913042 4.0963502266454865 2.606453437253943 2.094599069742883 -1.5049121888265888 -1.97063024549769
P 6.804533179359029 7.10103023772063 10.53321312050369 0.6131682518676859 0.3111183949139287 -0.6241100955911703
P 0.48765499108567717 3.3939067102144316 9.908276833219906 -0.8338084980946995 -0.18648879715628527 0.5866822897620154
P 5.881862571552812 3.377121929999538 9.229966431053551 2.308840097311772 2.293502952734069 0.3536490691872877
P 7.989100233296365 0.6116756607011714 7.790374751905396 0.19200329921661125 -0.44048190781213176 -0.3293675709321037
P 3.2189065667453676 5.432128922596246 9.552684715795133 -1.6703516215117424 1.0661868586942478 -1.7259969787901888
P 2.6042417846976806 3.2465963452847135 12.418762569716684 -0.8970144413292229 -0.725054691027048 0.5043427110218347
P 8.431003461820637 4.884900501566894 7.291518451212004 -0.8775031107691725 -0.03207811148146734 -0.049780670967552974
