# total energy = -381165.05065767054 ev
CRYSTAL
PRIMVEC
9.31405231002134 0.00000000000000 0.00000000000000

0.00000000000000 9.31405231002134 0.00000000000000

0.00000000000000 0.00000000000000 13.63205703454621

PRIMCOORD
 96 1
Ni 4.091812190407361 1.652545725361758 3.4252045374908415 0.22054331563783308 -0.38374280324887455 1.2776981460367995
Ni 4.561920351017106 0.49000577049048516 1.4702445743470303 0.5508130866692321 -0.12833867117811443 -0.9471422112235494
Ni 6.385136770314492 0.04495427331806975 4.665407854468829 -0.07138590794215448 -0.011465834547754449 2.071165007089659
Ni 1.7198118109109344 4.841090439935059 5.948415761499207 -1.1969999595547838 -0.1716044238452851 0.7393073442913203
Ni 7.256987947816043 4.4208776573766775 9.235732274856058 -0.7833711673797541 -0.8977418064135506 -0.7784529041425303
Ni 1.6556286766656596 1.1581837726210167 4.627469856731512 0.5016793052570585 -1.6557474984453227 -2.0704846931931824
Ni 3.2832872543415412 3.214009333500393 11.610559469218751 1.6029452670426265 0.5517623379563787 2.0030549416852987
Ni 6.548337594323447 1.84070820947481 8.923830743423991 0.7197952424003217 -0.2575342910398855 -0.631971500617118
Ni 1.1990538340153376 4.380110050557411 12.197692176860553 -0.23954916731637457 -1.063978023968387 -0.4311683437206897
Ni 2.8516461296384836 7.584721505309656 9.48405422263044 0.12246755710931811 1.3780932967271105 1.265044461828531
Ni 7.414134637844526 7.520231007339219 11.96323419590145 -2.5936787325935655 1.6316647464645062 -0.35664080482576
Ni 8.555161926170115 1.3485257449670383 5.40393861907335 0.4369677240112862 0.7573865703905343 0.8196808004440658
Ni 7.188771828934547 0.9950854031871165 0.42942624307143257 -0.8339139133243122 -1.447743452925081 -0.47282484291921156
Ni 4.605938562081272 4.94549165191522 13.14877334006192 -0.28712331755091197 -0.7375381682060395 0.32152210674575593
Ni 6.9257895628751465 1.1168666367173687 2.8228722279371445 0.30329118556002604 1.0777331687709504 -0.7402941336846218
Ni 1.8791286751201093 6.157901836896706 13.533374775141942 1.1663886624268298 -1.5287853958997606 -1.3751735519771542
Ni 9.044829596562922 2.6896095621642355 7.630857731861759 -0.8433038391796445 0.31924899444086313 -0.28508520407496063
Ni -0.061572405391849924 5.2888914453398375 8.29645667291661 2.0231709957088833 -0.9792635172381263 -0.35822717547627336
Ni 5.0794742939291915 7.700886365316486 10.673723217570819 -0.9728776683164405 1.4511763898660297 0.061982869460699704
Ni 0.8887701534638993 6.7853895388418755 3.338926608432529 -0.1523682013234924 0.7886964362474095 0.4889520874983773
Ni 5.809900901646931 4.927897407162743 4.9147515537780695 0.006907525753110684 -0.06889245209633942 -0.6827554160382048
Ni 6.704767102326551 2.395602187967988 6.523171025069241 -0.2997332930054386 0.07505847169773525 0.13842870842426483
Ni 0.20587222311377246 4.355828316269582 0.9580061610697984 1.062346659012551 0.8799474585446071 0.1685358122222904
Ni 4.40296673484676 8.667312429645278 3.6024341870403895 2.4853507002094233 -2.2234393631477642 1.4117588073003557
P 1.684036536112487 8.124964479570094 4.952498613443695 0.46255559978271954 -0.09438596838175357 -0.9477158243388325
Ni 3.966677898057156 5.130189308580987 6.380497440874996 1.9456303810192426 -0.5848544925246572 6.1015473898543755
P 1.6364510430259815 8.188197580483047 11.992638658941987 0.6632795667017803 -0.3306469518651596 -0.01059962989271723
Ni 7.420347110713719 3.4397633326060335 4.304321607174185 0.017736498047814617 -1.9782286266702382 -2.430466132356401
P 1.1484226458340412 3.2000568831884757 4.697415595120968 -0.8131568832826189 0.45969241930231153 -0.26769863316739706
P 8.430120774342686 5.98155888512399 2.0125282574615 -0.5638223544447064 0.722987009864742 -0.01640492372058465
P 8.116879882193095 8.47086043900512 6.019956997043822 -0.27634036800279504 -0.08644640181970273 -0.5209772342547221
Ni 4.39092366525176 8.352851396647315 6.242214500924435 0.03313149244664616 -0.2524640756058297 -0.7721639858100251
Ni 3.522257893629165 0.32196257070238143 8.095233093294611 1.3644430529335274 0.2891565459308569 1.6306422187372624
Ni 7.261654288007146 5.706673260253754 13.5256040613267 -1.1091996148103478 -1.1683419294984587 1.8666268086308304
Ni 4.700150200869686 4.872087605915074 8.959465376033046 -0.26119322794871147 -0.43509184714481197 -0.8360720973178957
Ni 3.785063192695291 1.045316087120474 12.643623851973205 -0.27308920805534903 0.41712215004026876 0.21660310004316244
Ni 9.377108411568026 2.616978582503134 2.8895869215914844 -0.4421682943756191 -0.2580210008683169 0.17967228845508412
Ni 8.256320558841768 5.867750480343405 4.332117533386372 -0.6344397596519525 0.25193828500934673 -1.5482846422749528
Ni 2.2521564688399254 1.8965552669315895 2.051651934053762 -0.512605208140943 0.39492710200046827 -0.5082657002253247
Ni 1.1401238252546566 2.0867761565980016 -0.07672543704235602 1.7129812832568112 1.0269130007952894 1.1870703591458975
Ni 6.01514535763719 4.823933955639633 2.0541052554236945 1.3089565898304487 0.5270077567195182 0.40839634013149667
Ni 0.6198445906461308 7.537527202418812 1.0035965841584316 -1.6685749892272939 0.7144350065296728 1.0363882872755765
Ni 3.346920859502435 5.747440867073021 10.741406572662033 1.865584483409245 -1.2143996430884696 1.163197666293358
Ni 1.6616548684892982 2.134324393475396 6.632459320279484 1.02021990504583 1.6116345672865082 1.2371125113049535
Ni 5.6245046910603405 2.7649229888813 12.485505706292166 0.44456970472826013 -0.32953597818916797 1.5491572746878932
Ni 1.2130994248500313 1.8140141356470696 11.353799921486047 -0.39746040994528326 -1.5811132587691994 -0.020510975469158223
Ni 6.500491307773167 7.008852281087215 5.427535770518772 -0.29410154864095794 1.4362778754876426 0.7068435673356601
Ni 8.478293052722684 4.326759159111041 5.942404472159212 1.1644899027422202 0.2876593925600401 2.3586557352823183
Ni 2.4756471532420976 9.102101704018182 0.4003300751612869 -0.9056219804925757 -0.7283163924974554 -0.37877826015474764
Ni 8.264265445434603 0.1929163763955636 7.974712051037526 -0.048020236633020526 0.9345774871846614 -1.1863669053209698
Ni 2.5117297917657075 8.920151692774322 2.8291424479304577 -3.3605117931089805 0.01696105333437079 -0.4731590863301786
Ni 1.23326434803114 0.7879557830158614 8.947522898202646 0.6378613837389917 0.7822918182726463 -1.175812269733575
Ni 3.7754045204833693 7.071712819909063 12.642138260634923 -0.5635613874738359 1.067320972298691 -0.5471682908277931
Ni 3.0502776085116126 0.5508963872556113 10.41654081186471 -0.8668417744005845 -0.775786927274593 0.6680101394082302
Ni 5.12831718407318 1.29417824992696 10.718695187588217 0.9116414472137784 -1.4280225774573858 0.3271435666975914
Ni 7.682863674159237 6.7795775702206225 7.734556664300185 -1.5222455378987136 0.9277833470809634 -0.875120469469609
P 2.7125593869763613 3.825020476966402 7.736383149951832 -0.017927016792065896 0.21465703206038514 0.3118845836559919
Ni 9.18199764445585 9.13719705300036 10.370560129985643 0.3944223944499078 -0.613062579527757 0.4846100084795976
P 5.76704694711747 3.2625728020760514 10.41753648405319 -0.4624476134499455 2.035526946171075 -0.8279962622882966
Ni 0.37205168104111874 7.749012073435095 8.628969270633883 0.0935408467726389 -0.45082185628555904 0.0667203841456851
P 6.102045465387648 5.3576850354625485 7.142461429604852 -0.17577243918004568 0.3929321830576265 0.46267387052813874
P 5.737418946822271 2.414463143830226 1.531888697941418 0.6878618840268348 -0.028658801387273225 -0.8255334025701008
P 4.7204641488872365 6.330202489980923 3.293450748186911 0.6397709420568788 0.10827841009312965 -0.6073645007017152
Ni 2.6958499771902598 6.570113848548589 1.8491616433220035 1.321781252398943 0.23786818006952581 1.6922990723171112
Ni 4.929713647356884 6.82652039369997 1.1241278718730232 0.7813405101029705 0.5015859742123039 -0.01263388671392663
Ni 1.317044248268587 5.8703863571379795 10.25127971949194 -2.682942035036773 0.49212097214466216 -0.37863247860550275
Ni 1.9014544584296325 9.182454033017454 6.802246110653963 -1.9324293089479365 -0.8011089509791494 -1.3529995869832763
Ni 5.363366607351914 8.64255567869129 13.11773332944143 0.7671703892501756 0.44335588692581707 -0.5575576044819172
Ni 9.451900251357541 0.5935510210663296 1.2845149206889 -0.37990491756002315 -0.4711258579502338 1.510982820500701
Ni -0.120783698531316 6.444038836918341 12.526987700921127 1.5452620533985453 0.089626085099265 -0.7922479010440937
Ni 7.440661058731269 4.304330921226464 11.798994855063537 0.4446437524993052 -0.41840487340743426 -0.5288880044613666
Ni 5.701150027253109 5.621868814265765 10.923189862370124 0.7624619280309126 -0.6727623093812348 1.1442244676249649
Ni 3.5469028759558223 3.979754827454974 4.673219550114093 -0.2343437118560351 -2.2473035713598715 -2.4244836895207214
Ni 8.649410821167638 9.080306821688485 3.790966439028864 1.061358584067669 -1.3384859667481335 -0.554313900733639
Ni 7.032957048381768 8.59926396370478 9.754540820609943 -1.6036651759277867 0.36448781167400446 -0.6984131771801197
Ni 1.8121233830347072 4.615066333313368 3.1136159582153042 -0.15630096071899535 -0.6907206936318685 -0.5870216753793052
Ni 2.1495249267925183 6.957364200096373 7.516565927767965 2.0350582340647727 -1.690879052041133 -1.1622689838315015
Ni 4.491990446516523 2.609741563883401 7.999781754148044 -0.669197474848112 -0.002560047417692365 0.46112375243219944
Ni 0.3360025731057086 6.747853908162953 6.167415209893096 -1.3847287997657571 0.9265420184746946 -0.8955666531391029
Ni 5.009330166226222 7.289167998435319 8.191803050119725 0.44274139327026973 -0.17996410866389007 0.39810087174275954
Ni 2.1819005725096243 2.959335202072654 9.808565118035986 -0.3494599708066046 1.3972153622685421 -3.8289081679431933
Ni 7.638379760481189 3.2135063746774 0.593228754857523 -1.8310563677253886 1.3788908529277415 1.467322403498273
Ni -0.16084064316179825 9.293822156101296 12.623761635491121 0.961685656255363 -0.9408995727479473 2.596455524007754
Ni 4.097316795303452 3.5535717373866182 2.183964566494351 -1.8749394422615837 1.3191065337802572 -1.2737993252030257
Ni 8.503916010538495 2.2730292599941357 12.464143927393378 -0.6373181096410121 -0.24482275701048806 -2.095034871728721
Ni 4.420253615874075 1.3495502907175796 5.959239621651061 -0.6088246301870096 0.010905334058594122 -0.1430556656733149
Ni 7.257770328207367 7.795479880248283 0.6592244036760282 1.1543255606147087 1.226015115840211 0.28053203748663946
Ni 6.684918856922883 7.776535097915547 2.8377579462872826 -0.39620056939625314 -0.7573261494662441 1.0271991645771406
P 5.65429103024426 0.26567961559900805 7.696631706236057 0.22243796155738466 0.0640081274208446 -0.13088817707284556
Ni 8.672239563300154 2.1712918669653827 9.764478914390192 0.41303075357971447 -0.08958623300026507 1.391330621352991
P 7.388996010747154 0.46334988427708335 11.583145419149949 -1.5903288638301964 0.39877450077101645 -0.008058608638418379
Ni 8.028461583921379 6.492751330330442 10.10199502099102 1.122354664135067 -0.8205058674485224 -0.2208917001161873
P 2.442358730401782 3.9161305363463583 0.45889683588313973 0.508090350989725 -0.04494031215611615 0.3815990174329944
P 5.4196700533702975 2.7213518523264613 4.68840518094757 0.5582204348768967 0.16975374378979152 0.28782034361793657
P -0.1551329919260553 4.146029288715552 10.496411604361228 0.5587256566480893 0.4296935589473761 -0.8843569004662123
Ni 3.4197660623659223 6.5685956580273315 5.016896902296584 -1.456985283238323 2.324613558095945 -2.9323758084567113
