# total energy = -381170.72071590385 ev
CRYSTAL
PRIMVEC
9.16858495206510 0.00000000000000 0.00000000000000
0.00000000000000 9.16858495206510 0.00000000000000
0.00000000000000 0.00000000000000 13.41915085211341
PRIMCOORD
 96 1
Ni 0.20323911054529764 0.17342562215674787 13.163797987685838 0.40241595417834564 -0.8193799813741952 0.5846138372687608
Ni 6.87894189923499 3.2577541758939463 4.422804459387302 0.2711225712472815 0.19198247328100485 0.24152634564740338
Ni 9.107311512639269 5.179031197704264 0.8475082553842074 -1.9845106030242083 -1.9355691401284987 0.4760117252876254
Ni 0.4249850102508154 2.469099985557234 0.7211651517786424 -0.697481923615102 1.5687225984143307 -1.0924033691886155
Ni 2.403672961803293 2.0579897952401125 6.42364004526994 0.8096892364489927 -0.940203318011871 -1.077484543095254
Ni 4.019333534231586 5.893969963295784 8.320141716241146 0.16186791328381153 -0.7860528279769753 -0.7741331937212538
Ni 0.884762967494548 4.063672812100708 12.1433252899788 0.20635442573196075 -0.49180112691139816 1.077490456632525
Ni 7.75302896616072 1.2785133586558803 1.8328680224759906 0.4887312297368228 0.06905751691929397 -0.7056022387293912
Ni 6.787723645405399 2.0688454000782106 6.570043096363068 -1.401182060225774 1.7114180525347493 0.6281230734053053
Ni 8.014764566931987 2.166353303332578 8.411714794316712 0.9064545036962002 1.2857230732238052 -0.09660817284405297
Ni 6.91807342072908 1.2270775958672575 12.79910559349527 0.25417488764934937 -1.2159991263651058 0.28236189160652664
Ni 7.228301668450262 8.351233305402019 0.5892374629476672 -0.41978401314314806 1.1443869613447581 2.008940711042114
Ni 3.0669284128066736 2.439100374889788 10.187256238034081 -0.5440431149352501 0.8171948007974184 1.8913721338963103
Ni 0.4540750972696643 5.869068085981364 3.4121815727255065 -0.37730424671238244 -3.2716608956128432 -1.2018984252976657
Ni 0.19829907685714973 7.2166759024581095 1.3472429067870875 2.1701558212332754 3.5906545795097906 -0.11626502784303203
Ni 1.4181509107540484 0.7958368599567849 1.9323040791910437 -0.08905632863872405 -1.6943832085396497 1.3429568580352935
Ni 5.757037143821973 2.674622990667709 0.6920053835125219 -0.6347140963592617 0.23947769064849078 1.1678297657487307
Ni 6.1799748090049285 8.292801912130736 3.534658283966016 1.186785223805311 -0.10597264477808846 0.39414625797038577
Ni 2.1016872721475237 6.198596205479739 5.222049282450777 1.8029058734331014 1.5200500729092918 -0.05309276605992146
Ni 3.741928821409381 1.7198432056844635 1.7002334357286157 0.1877563510147992 -0.7781176322902986 1.2184735560475273
Ni 4.6810211571713545 9.10355239272067 0.3666003767638867 0.02396165302192002 -0.10460224679312308 1.531819554740394
Ni 2.6661420493879455 8.40560301544418 12.385393358707665 0.27959538460498295 1.0663030725571376 1.071792377806483
Ni 3.632529263193009 6.128548214801473 13.016428567716076 1.8721230558587114 -0.8520802998206939 -1.0358601826862484
Ni 5.75589107067606 1.3642121242147494 2.9830505282620323 -0.12031040155699925 1.0438012919101958 -0.8434341941099216
P 5.318971313112954 5.99888608336534 3.4320819868311583 0.013956205069775964 -0.6735783775246271 -0.9447444004153343
Ni 7.142456205528716 5.876641337329564 4.5439260537400825 -0.157611966220935 -0.9909309262737257 0.27856874311268154
P 6.971865509905701 0.2884748625532176 7.760657229019923 0.43973268835093304 -0.8751996594469766 0.7308376162574123
Ni 0.7479795959589642 1.0786473705936368 4.312820862295773 0.8491150465447828 1.4023853365052557 -1.3029029274372015
P 5.140037204987683 2.4993654851945326 9.770913536161974 1.3669136259612071 -1.9009831746235133 -0.4923004351453199
P 3.2250406640169755 1.5487207321217447 4.274388903849949 -0.677709111863549 -1.0802572207443848 -0.47267777581838594
P 8.067979035243068 8.856440685291266 11.553473531824922 -0.5959287480609479 -0.6136459628350528 -0.8886902377342437
Ni 6.858587640163556 1.020839441113732 10.120308146000884 0.23461470612923468 -0.2846604578327162 0.2866756884905321
Ni 6.191857295381765 8.215373210392784 6.090885500651186 0.26837483329881523 -0.08460729172843494 0.09408283531903797
Ni 2.051929360444519 5.05005671015568 1.125561187177741 1.609104858886119 0.9089574726237121 -0.13996031457744282
Ni 7.557206324157261 6.979209546624719 10.063974525015881 -0.3727220266583387 0.10464081334054236 0.19918361901513437
Ni 5.218456113923707 1.2365029014192548 5.178396731610686 -0.8434995001302183 -2.1119190490785695 -0.5506559922660774
Ni 7.7121279077293385 6.6672392677217465 12.72139541619268 2.374853942308736 -0.9262039184089856 -0.5132852649271031
Ni 0.4071291906374745 3.088520430875694 9.92238864856966 1.0338004719437421 -0.5082921825878859 -1.3551498005570597
Ni 9.174636433522846 0.35936269563281026 9.286937848944671 0.22187848950948885 -0.3497489628019331 0.2682781598199509
Ni 5.894785967375675 2.951789320275564 11.817978045316716 -0.8682299129973627 0.9333009344650829 -0.5236961758477819
Ni 2.3137474784822927 8.854377753628622 5.136408278978462 1.0291102655569244 -0.10088803116632947 1.2672805502479012
Ni 3.657247768804083 7.831493718022579 6.88689656372615 -1.81016949697405 -0.324471419182067 -1.3618871192808932
Ni 5.9675020163376296 4.064534659106435 8.378462169631902 1.0753245593294578 -1.6503926618913123 -2.31986807299116
Ni 1.966670686973681 3.325537526035887 2.445036116927106 -1.0094055880391453 -1.121770766607139 1.279262919420758
Ni 1.9159684109984434 6.812222104972458 8.458211440275702 -1.2885474300464776 -0.0777928399097628 0.04772224577662749
Ni 8.809552540745631 1.9771137054792498 11.700466122944308 -0.24347087096828393 -0.29958982544903884 -0.09668196350478188
Ni 8.452903746322345 7.367810860356088 7.738489423802395 0.3499214838240554 2.194478200028724 0.12463448285364988
Ni 3.6031989592427767 3.4118505868009663 8.418115383622013 -0.14617749913174827 1.2287733953116389 -4.319945162995056
Ni 1.7340545126937976 7.687519425140271 3.3221928261668516 -0.7303100258887164 1.7795227186224705 -1.0257356926577366
Ni 0.7336426793328378 7.7827993621989835 10.700592485532669 -1.0605923953256056 -0.3555262316053425 0.3738098604058788
Ni 4.420303269353659 4.4682366326083685 1.8790162621986242 0.08447770812910613 0.7813559367219383 -1.9101666408949942
Ni 5.201677603067525 7.901037436516644 8.303569498551228 2.1884708174923793 1.3271432880418048 2.649368569956702
Ni 4.738013082571369 4.54506020772528 10.167516274168857 -2.239212309711305 0.4057373052420948 2.0047742383692504
Ni 2.9619664498112805 7.256164998773725 10.56331401039805 0.6824607676159214 -0.43492832498375417 -0.9502175077147634
Ni 6.254698778118525 5.349796096445457 11.62488947541015 -0.7519890535240469 1.4569184345561297 0.13525905244703157
Ni 2.48504415516319 -0.09949198508457398 8.644764642675009 -0.1702515093618165 0.7121814346088057 0.772911662609327
P 7.383718355621376 4.684954480208132 6.45877131305553 -1.389503595446581 -2.372382597950108 -0.38698162190114643
Ni 7.5375030346327065 6.620598674975628 2.2715536495423208 -1.7196856918601804 -0.9867315434803974 0.6258723296979157
P 2.171661914144452 1.1824082489321113 13.43257047757302 0.7348027715527473 -0.37140767872228936 -1.018618107776349
Ni 9.240741932579168 5.5455545583527455 6.1096325067427895 -0.5762492673541495 -1.2306649559073966 -0.3162492883825908
P 8.861263361089273 5.344927577721614 10.972142139867028 -0.6679867423694625 0.8105202169907202 -0.9213460760960519
P 1.0997717908191247 7.347053183537293 6.598505135297955 0.1807171847798307 2.922711288783754 0.27692015176566503
P 3.1086638124882797 4.747144993398011 6.501954432335055 0.9256146215644188 -0.699906988116827 0.7069862635611115
Ni 7.755752035955411 0.8621202295653532 4.948150636596553 -2.0814265369166667 -0.3736057148148727 -0.41751192927951963
Ni 9.049631943351706 5.281095887786786 8.565430708939287 -1.2424411226067185 -0.378227015636968 1.1493589606380528
Ni 1.8667881201609797 1.0286969186021189 11.120276219839745 -2.0167805188015073 -1.85519722663765 0.9802202247244409
Ni 2.7930352681035493 7.596071956681499 1.1361994965473734 -0.7468080235437397 0.03029967942480588 0.8138737068439854
Ni 3.0467666940237534 5.8715986154875415 3.1419732824011257 0.7471258118944745 -0.587887108703394 -0.5204604425193037
Ni 1.8093194283322651 4.938365005647481 9.940410419574528 1.1811794475827595 0.37689312731689284 0.7102726476218671
Ni 4.332587415057981 0.9704855713748521 7.505586272806775 0.8240974414545226 0.22257063048050701 0.21872914524722972
Ni 9.09850967087865 2.6101861741118375 6.043194188044895 -1.6354704933638415 0.022041810291387846 -1.4682932520519745
Ni 3.076747967520865 3.1260841243061726 0.13738391386404272 -0.057743891678687646 1.2675579722790042 -0.6375281687692891
Ni 5.880152905448645 8.122165373581884 12.142050856640543 -0.48697285228481935 -0.7480894613593244 -2.1043394369590986
Ni 1.363964572415232 6.449879619160271 12.847281007398397 -0.9889290653523485 0.3732768707205443 -1.5065733785790958
Ni 3.921541404837031 8.734360973788503 2.8317230300755405 -0.6794649182123911 1.1575049867839549 0.37732661530988565
Ni 1.2091530118651617 3.8497422143918074 7.215544499048463 1.563554681060146 0.9369156483995349 3.041968309375574
Ni 7.481693856719276 3.709646233035274 2.0112621009349048 0.8408993435032098 0.18547064030441607 0.6658653251510855
Ni 4.311059577085132 7.378602285098014 4.698662431891782 -1.258220239817846 2.270639932092967 -1.1641733999430661
Ni 7.313798725135451 3.753774633445548 10.301224502239325 1.467972378377446 0.3078602929879472 -0.6935175396507153
Ni 6.0982368722383375 5.174822817112467 0.596026800264062 0.8565877007727442 0.1377406812183047 -0.6910608505801067
Ni 8.816493159717286 7.390640637422696 4.803841690355639 -0.0890756119124337 3.568393968339377 0.3104139126477364
Ni 4.270204361579588 1.4529273542936643 12.249752392883929 -1.0129537104017199 0.2755160723292868 0.2469971389539875
Ni 0.16051166994858831 0.28024972479962157 6.547847785390038 0.5047211774071759 -0.6123526979449261 1.580703939145923
Ni 5.030967715837336 5.715824353494904 5.764397683994292 0.72783791019914 -1.5937777416107455 2.0276945946108498
Ni 1.750172885417933 4.042025782520684 4.813946388068534 0.3154841280817921 -1.419193152091214 -0.4452600459270654
Ni 4.590710593273328 0.3571457317393541 10.292086173403066 -1.009994627773396 -0.9658966090129172 -0.939359481954337
Ni 5.255139623178124 7.1660653123345455 1.522617770150406 -0.33812603385102413 -0.6122375125233004 -0.09396456457361882
Ni 6.619663479288563 6.12132336968963 7.713126366654058 -0.9938560703403206 0.5500558967882333 0.47959558598414176
P 4.925565660753912 6.732455414016839 10.227003888451414 2.2962170092311225 0.7994613880733973 0.5787728051069516
Ni 4.065479023378669 3.3292324658583143 3.6049739973311685 0.4644219635674969 -0.4588257004266421 1.7333503338314662
P 9.079686565530157 3.408577401896236 3.8517794740159843 -0.4564610568492074 -0.1860825628568021 -1.0292064248151565
Ni 4.725131220411295 3.3110236557160313 5.845999925700405 -0.539756057524122 0.6948964222761129 1.6102232887612784
P 1.433930045826993 1.8249335288721984 8.33951952099226 -0.6678890404493336 0.050974691275654155 0.5821309229459071
P 8.344971161732744 9.00091008177261 3.254949505691266 0.7055127643393784 -1.5042509010935061 -1.3695510635840542
P 2.9064506666232037 4.281124146513857 11.804787201836506 1.8578086961185682 1.1650118366839612 -1.16225047188874
Ni 7.848969041351477 3.993973227658799 12.825917287100042 -1.1507501845586248 -0.8925556342269209 -0.0957918475903447
