# total energy = -340898.2913699024 ev
CRYSTAL
PRIMVEC
9.02147107224606 0.00000000000000 0.00000000000000
0.00000000000000 9.02147107224606 0.00000000000000
0.00000000000000 0.00000000000000 13.20383481850702
PRIMCOORD
 96 1
Ni 6.3468215449643095 1.8906838602626779 11.353079525477282 0.3568706614483789 -0.24234189957016328 0.6232153516910427
Ni 4.674231752351793 0.35531966694805617 5.894891844466767 -0.5845135642454709 -0.44200862886930326 0.4105894911280735
Ni 2.7335779627938 1.7465929213378224 4.831863919634162 -0.09676526724720753 -0.8266351202747118 -0.25953358085810146
Ni 3.269696935213496 4.1303182287656135 4.636447124283988 -0.2179670702702246 0.3561134715673802 0.7839571217902112
Ni 5.077247937838273 4.511087466131089 2.724241642189409 -0.47648069450424396 0.3757939807154431 0.29143171511827876
Ni 7.303593679178906 6.090936534216463 2.6501022892481148 -0.6385216430308099 0.4415597142573427 -0.6418936448268364
Ni 5.028369606565117 4.574039292565953 11.35397806401453 0.027717263409610327 -0.24199711463623483 0.5782804388515653
Ni 5.713189489722252 7.889078142319664 12.359661006798811 -1.052885513599651 0.19941064742427592 0.22051863304748476
Ni 1.9119835539016448 6.455891132467533 0.39885638508964516 -0.4967630989023638 0.43550605186409513 0.19236093966634615
Ni 2.7243941050536606 1.514506551767272 0.42798400933874864 0.18071847033141136 -0.038735983117617154 -0.17968411552962604
Ni 0.5688398486706631 0.17962200347253524 4.67777538626174 -0.23190990560356187 -0.1824717055770922 0.252144744593198
Ni 8.582053435493584 2.376093142743943 1.2833972075339095 -0.2551976724869089 0.05185503699807844 0.560724432245673
Ni 6.806952664982048 0.7636296517684399 4.754634712787173 0.44012066781797105 -0.6701354132813491 0.13223157847461742
Ni 0.6724027301183071 7.4528809855480835 2.6378357947792868 0.6110897720721025 0.19461399736658097 -0.5161998674707368
Ni 7.533415659463822 3.874622668914175 3.728485660308118 0.12464579570755953 -0.25964799494877866 0.4057681584800302
Ni 7.611424321427461 3.761141581966031 12.516509208228904 0.07779335413039505 0.42867411654392623 -0.05865380508746673
Ni 8.109012590106357 8.851001536622295 6.925081613922059 -0.7486795295348396 0.22308305134055129 -0.7316050905510562
Ni 6.937736933802085 0.6525031688185045 0.3981454931545539 -0.62912426097631 0.3239404863792614 -0.5367231842350693
Ni 2.0457900155929454 6.4707314526861275 9.159064932829294 -0.4001919499438334 0.20683213669932765 -0.15483568902737851
Ni 0.1514127649974457 4.787911311667602 1.3780577011446484 -0.45420208561170167 0.3315954318213579 -0.16220549912888838
Ni 6.369266965452979 2.062651145373221 6.870153484023619 0.5949658699270463 -0.4641203731666781 1.0486673617532456
Ni 3.3945540974173527 4.469092517427407 0.5699188166330605 0.3456364832954563 -0.628792331558188 -0.3352397134421646
Ni 6.012251261908513 5.718376835695317 4.809021554410162 -0.009138986186790711 -0.5471178972058319 0.23287458350967638
Ni 5.334991371665165 2.7224003599057527 9.329499469973186 -0.744481432293092 0.6013666312470676 -0.2874562754102985
P 0.17701209183773928 5.66580872267784 12.407274527801667 -0.05841186427998973 -0.716017006304812 0.34634585065765516
P 4.080231020343951 6.212203150859834 12.590331907529059 -0.7864626618208842 -0.1403341529770938 -0.2786708159081846
P 2.2567029921221335 8.432468420572908 1.4637643845323145 0.7004384351402646 -0.057123741596185496 -0.7836565598306569
P 6.50759318424429 7.737012222803175 5.7258691675746745 -0.532035806061729 0.3083732280686238 0.26024037711713893
P 4.7259789114848365 0.9220665342869783 12.671958179466955 0.16245026814984279 0.5281030466662259 -0.680206424364106
P 4.069739049271473 6.040217822806775 8.134038151374673 0.26101376494805373 0.5654539765108585 -0.07552692669372153
P 4.590620756737245 0.9684729824355794 3.763924705848971 0.785208477698809 1.1187039547563573 0.46878461141156685
P 0.18080020761876525 5.578832718284244 3.534151441508845 0.8000262594379318 -1.5375268895378165 0.2170165334314972
Ni 1.545540412893086 1.1542070326850735 2.602303828084481 -1.0112691236104456 0.8972859498230547 -0.21709495207791646
Ni 1.838341284026639 6.3862273314170865 4.793573187028812 0.5161818697486078 0.47653545900157934 0.6586497812392528
Ni 5.999458815665371 5.57638789957346 9.222891841976136 0.18883415746001025 0.47200877477581943 -0.08317493015728257
Ni 8.608549496576872 2.4628977391836475 10.067527990607081 0.25550774752815997 -0.39560613034536385 1.2470277135361363
Ni 2.3842305098182117 5.1338937558641415 7.129014678139315 -0.6693023758570925 -0.030466286909657202 -1.0913582157535526
Ni 0.5347242529632856 9.029951440486146 9.202888533756871 0.565986966196193 0.45886966629070003 -0.18196854068842855
Ni 1.4493895722306076 0.9123864956276765 11.431827948084036 -0.16879446520031574 1.0160896849275405 -0.5459660429895759
Ni 4.08937879219906 6.836931013970735 1.6402595460669989 -0.08553391730776236 0.5253128855155985 0.2531495317086285
Ni 5.6516450128035585 7.743408445924745 7.793787950015151 -0.4428781759584502 0.4767095226855983 0.5028648409247275
Ni 5.233445691190699 2.9021531747115215 4.951134084688247 0.022795914848593 -0.24818370306292095 -0.800568505094647
Ni 0.848093176416822 7.337198659613109 6.964164431703818 0.19810401279771042 -0.4173576630898425 0.008742522079320428
Ni 5.182835237436102 4.321086259976796 7.169867508581796 -0.47063580568769264 0.5620590918966966 0.14936669549300727
Ni 8.095832220599142 7.289240518408217 8.921250831157353 -0.5745076020726945 -0.3149609085884705 1.1479983328451002
Ni 4.5559422212233995 0.30837734340675943 10.488215433992762 -0.1634036332020476 -0.376689495946519 -0.5684439123771178
Ni 8.370030817999723 7.082179710105983 4.780593996330641 -0.4631441252963378 0.8655798769690255 0.693617041343057
Ni 7.291026769717202 6.096971898487734 7.050386241100287 0.24268694161440782 -0.7694339884733716 -1.092244217902932
Ni 2.3361550894869723 5.2858514177255405 2.677737762151227 -0.8708223563148874 -0.6625917966061363 -0.9788320861276626
Ni 2.282260820194643 5.2660041809590314 11.387660629101548 0.5757977816390277 -0.790323173217555 0.46542212269723715
Ni 0.917104725095351 3.3261352594004414 3.8312645759034845 0.49732102828836283 0.22314398648547373 -0.701013076696812
Ni 3.712380529819222 2.588043588467744 2.547402762599814 -0.6304985156160173 0.1749298886740923 0.18684540916475564
Ni 1.1177422458622421 3.2048145139295263 8.180580823739263 -0.33256859436790465 0.5542439667276519 0.45176056604974457
Ni 3.5043634455636923 2.629145411516933 7.028533531273235 0.6076558066898889 0.4450816113676722 -0.2094911715887295
Ni 4.093041509529606 6.867207071510918 6.0097252499564116 -0.12468384803434655 0.07248659720550096 -0.11637738505118023
Ni 0.8767760421329305 7.41352932792285 11.293689375894882 -0.10041469107433675 -0.02074571718778363 -0.04693754509180304
P 0.2513860030317288 5.5690083360848215 8.151242097062733 0.20188584843764587 -0.025179327479105028 -1.4309916873880386
P 8.484964361820325 1.5867234291835925 8.078225015145872 0.1919451922851662 0.8173074151158828 -1.205730654559562
P 1.8234468349804998 3.04648769336033 10.439691646540023 0.06908708460564876 0.8724076985241361 0.08367655238404945
P 3.9329103947089092 6.060642433733765 3.8846608599823997 0.5222309041561651 0.8232530911763563 0.054499416599460976
P 6.850129426420463 3.856011373709944 10.332000539844946 0.6601909004741275 0.9588957522150519 0.5642437582528411
P 6.1594455869459495 7.768803887514619 10.098227155149242 0.756917858284232 -0.7860109189954464 0.17579403644660047
P 2.376435958651728 8.424096495245944 5.773654096531422 -0.09609318088084741 0.1176811914642683 0.3079862770428502
P 6.80488674806408 3.9875173602305813 1.64175169741299 1.1926733071549718 -0.3900731163422766 -1.2748213387096368
Ni 5.233129939696687 2.808988441035277 0.550420710804217 0.15462948655384337 0.17637407731978658 -0.6203462576733639
Ni 1.5316653900990447 1.0396974980135743 7.014207434916318 -1.2121324443208479 0.4255535686370736 -0.5638498652485322
Ni 6.765652369565195 0.6338305276097226 9.061210838393398 -0.25689537190430595 0.14310400241274707 0.05771252422011996
Ni 2.842422013515587 1.5831238621518482 9.097323787837187 -0.1292357290710871 0.0013056061853009772 1.0777069435187052
Ni 6.322373357856474 1.9469146906107007 2.6726676953045096 0.2740078632148765 0.6001425290319793 -0.4605519390891294
Ni 4.108017151817063 6.748845368612463 10.353061164495589 0.3844866233934346 0.8220629275229971 0.34504101580330254
Ni 7.906922612467008 7.231918090038035 0.303622125906929 0.895060917147278 0.22094337928972915 0.3966497411185298
Ni 7.692779949227632 3.939893013462217 8.185427158098793 0.09034213732968312 -0.5722319186646403 0.02243133242032266
Ni 3.01550796106206 8.36544791060091 12.453645792212363 0.8817942819453588 -0.682453825637386 -0.09926437951997742
Ni 0.2157520937117134 4.96918875511589 10.17066325431712 -0.7916719739359657 -0.8498277563410912 0.8854141380861333
Ni 8.470142084544245 2.329831038135462 5.787425372406002 1.2019269645427557 0.11889578059765976 -0.01932775379433446
Ni 3.7279155033246436 2.4958802381010825 11.423706819658031 -0.31371880865125323 0.3952927128700031 0.27886184887306814
Ni 1.1049227352053288 3.2276839435672993 12.675390849280436 -0.06046051927890233 0.40955822165008177 -1.1440334346600813
Ni 3.1566849647707422 8.580429570667233 7.8993923904083685 0.836106807210573 -1.3435358704672153 -0.027516203142397774
Ni 5.449681335761815 7.859000557147145 3.7437626197355756 -0.4627124370755579 0.1249756682431525 -0.44794016386238983
Ni 2.9061587079498534 8.532967610381503 3.628519639450841 0.6556868419561869 -1.0625973415707763 0.040368119404401444
Ni 3.4490618267551922 4.232459326343076 9.262873198295141 -0.1720278845359489 -0.21749732972265767 0.3263514098135993
Ni 7.209445605135594 6.2245715879538706 11.45849902570972 0.395358533110932 -1.0159814414844504 -1.1211423889945207
Ni 0.4240623757831117 9.193961787947572 0.4352724559676862 0.311264947794122 -0.7468617595998105 0.1091232745919282
Ni 4.7393036245321705 0.4377317090324818 1.6156868626558092 -0.8115417162766991 -1.1274066247366779 0.07676516997619683
Ni 6.009788400255214 5.618067096783128 0.4051885557652873 -0.4702300856088418 0.008705755304114039 0.12843225933318528
Ni 7.930883640126938 8.77413860150836 11.075561928801068 -0.190927035433297 -0.04320121797782238 0.6070402845930771
Ni 0.058397787744075495 4.770292378301696 5.7115962978981765 -0.1625384569882749 0.4617796408486434 0.7754737669095483
Ni 7.807136118887755 8.81978724607133 2.482136026640275 0.03972148695933804 0.08117846855254406 0.607921658756766
P 8.424764084119 1.6748090745418625 3.4576484630980846 0.08693414008939868 0.0320508577879577 0.798005115242845
P 1.7809737483001706 3.2216936866523165 1.5667273381413345 0.3009885055687784 -0.0761704738149914 0.5256887807977785
P 4.827840343453316 1.1348469553664697 8.035352277288835 -0.6266963682611079 -1.4790970275356976 0.039292884062351686
P 8.454011693935827 1.5403530669200214 12.22010967221073 -0.21164858425136454 0.6813474799470847 0.6661298916663818
P 6.147988318448919 7.733493849012748 1.5593071780320373 0.5877536684493232 -0.5541575776614327 -0.5215004537480439
P 1.7020990250958123 3.315029828282454 6.04577234266002 -0.29310216084216617 -0.7389203932655467 -1.0300083518911616
P 6.924484392524811 4.0286733121073155 5.967381170315065 0.3868180997400887 0.1873362327582451 -0.37049802242382646
P 2.4519186086632647 8.442410081898677 10.040499662719599 0.5664438512279536 0.3411013144292641 0.9118787600355651
