# total energy = -340870.51879315014 ev
CRYSTAL
PRIMVEC
9.26526951969107 0.00000000000000 0.00000000000000

0.00000000000000 9.26526951969107 0.00000000000000

0.00000000000000 0.00000000000000 13.56065848986484

PRIMCOORD
 96 1
Ni 7.475228736207931 8.197308253124282 1.2122020841836072 -0.08421339872412593 -0.34627823064451335 1.9055067735254794
Ni 2.946494695154276 2.567545170660746 9.69755274310898 0.08226964473419379 -1.6095164925022412 -0.7060555242167259
Ni 2.8321983300160807 4.901420243333061 9.307750808394442 1.6694923588352408 2.69016323537556 -0.08310216793781817
Ni 1.6756147323992758 5.179637757305964 12.69391589854887 -0.18030272295023142 -1.2795035746766545 1.2821127301647275
Ni 2.493033872959598 4.0045792122114054 2.2369659123669945 0.6865184826250629 1.175196747636763 -0.7823800071110784
Ni 4.000270861871809 4.759856189916518 0.16384795320528195 -0.6147556509594638 0.7588870661954608 1.5351295929502338
Ni 0.1354943753359641 8.263703174701803 9.81801143902323 -0.5661219491121605 1.3008295898479405 -0.19750803108492435
Ni 6.023601895119929 1.639563568589879 1.1270774202157758 0.395970455663318 -1.6165091217699903 -1.7391368586062566
Ni 8.175831358313133 4.998520268191061 3.9154500987451364 -0.745195170530665 1.7980997102937095 0.014997501850096752
Ni 8.428022730127054 0.014822578222121002 7.828907238010602 -0.6982979917584942 1.5929444470761727 -0.26912970918696877
Ni 9.276387870976091 6.6491373033511305 0.17009645098812878 -0.08805436973677094 0.6801056371201836 -0.46447210007914197
Ni 7.657170834312562 0.6209046265113521 4.896821890056628 -0.03114660080613345 -0.005042447519913896 0.3855893695393101
Ni 7.848229957651953 3.116262229073468 5.246482970983495 -1.7388596936854699 -0.5517991047315851 -0.4117056070103878
Ni 1.6641721245080896 1.5426303185837345 7.6337417472077504 0.23755219149100382 0.5871923966292145 1.8978407723397897
Ni 3.4208487001786096 1.7862420507966532 5.882952323807724 -1.0935994463792458 -0.47367947761002294 0.4729073753306888
Ni 9.083429367379457 6.348488571803684 8.522629470949816 -0.6552829216495489 -0.45963636925339546 0.33643373375026575
Ni 0.3073419622685739 4.196713106818309 0.8669948183282323 -0.6214942552348781 -0.046144359766546336 -0.25751680753838874
Ni 0.8039353937878176 7.015652836111889 4.872684009831431 1.2493707598470158 -0.2903158563462806 0.10409856768382716
Ni 2.184092725167122 9.156782506387167 11.405367993293703 0.6150562129190181 -0.857891250075516 0.09745586555632894
Ni 4.584140352947818 0.10293251203816306 10.373672816961818 -0.9055173365939114 0.08141912380844044 1.6015021068381965
Ni 3.964655165731146 2.320570145602078 0.8278657319751499 -1.422890141326827 0.5034885905516555 2.4253943742604487
Ni 8.042541190602522 0.634054823580146 13.161147690872024 -0.5688146654529752 -0.7430763244154492 -0.1636093214549505
Ni 6.518302432070614 7.826104493972477 12.843422141021545 -0.6557115245465353 0.5903049741162673 -2.7373154675813307
Ni 6.867927378446246 4.124286494765352 10.64636452417658 -0.20044808754985477 0.16712119126295089 -0.35356216590043626
P 3.759586954835907 8.402098505933095 6.5975992414930555 0.3301196186067798 0.9073772726207857 -0.9275136383593446
P 4.796667105828812 3.9641085148278425 2.716661345285473 0.0530606272704054 -0.11987151424736774 -0.2929648639333535
P 0.8459450524432238 8.121258920678244 7.381933957553097 0.37609479978531357 -0.27370241615931573 -0.21613464504717617
P 6.472670979549082 6.507369414004541 4.868276521107677 0.6888206483956781 0.8406404334148684 1.6496938360520752
P 6.544069146682264 1.1301590488672808 7.039080070162791 -0.34141756011810237 -0.3399219494091823 -0.1389375297398833
P 3.5022070320753746 7.334016763034192 10.34367743332868 -0.6572076494760876 -0.004825446413101367 -0.6138269684976074
P 8.098892559990533 2.746133241189176 13.38709611321955 -0.3916389181674997 0.35629936232594117 0.3049130374341652
P 2.4022805577416486 6.291581286242822 0.96946221383511 0.42078597204510115 -0.5493159332984152 -0.7257396329092146
Ni 4.2860858968736775 5.005107874839347 6.778810309830388 -0.03578281402656418 -0.6829479916649851 1.2212464908069742
Ni 4.2125937788227565 1.4325125900114704 3.412824050223503 2.2081179022993456 -0.35833130515430545 -1.0111230849508843
Ni 6.859153168184744 4.78969035785953 6.690028643972151 0.32828565072183463 0.41820252758864107 0.925959149388031
Ni 0.5139222651539685 1.7360520856577426 11.980150107997506 0.47378746394279686 0.4197606161043803 0.14824518029405437
Ni 8.237250830143637 7.323713783297351 6.415249471528333 -0.5097821368698511 -0.6704128353124519 -1.1271394871182203
Ni 5.119200404047497 4.380156178589639 8.886462708176568 0.014530332405691106 0.7086842200888246 0.19646724852523584
Ni 0.15174287854144825 3.258104240576437 3.0204065299156997 -1.139212359122354 -1.256868610885958 -0.14300090117597955
Ni 0.73937406905375 2.80012196684257 5.669304473311483 1.420640940281334 0.2774544270025802 0.17136633969255002
Ni 8.132599610604407 7.786263834918145 3.5404577708753524 -0.5930452558655658 -0.5099438592586959 0.47766160218622256
Ni 4.3516469441919226 6.9365552299847195 8.129832074590563 -0.9165409413979247 -0.4942318478400779 0.7971437956838142
Ni 5.588653081481193 6.495417216288241 2.9619732544603616 -0.3247457558893762 -0.10172749634848932 -0.42507431500780984
Ni 1.045289179812006 6.665295933442004 11.023716716200118 0.29846625336755694 -1.367509350563677 -0.18902647597647448
Ni 3.83295862438271 1.9502002607095508 12.184671667989441 -0.28830551078447125 -1.43266187600161 -1.3971798810449163
Ni 2.9294651297259358 4.052202697685654 5.133387384778659 0.03769622899919314 1.0214105829198215 -0.07944348813930834
Ni 2.7098133845629016 7.224612460217087 2.819884786787428 1.7940126847085296 1.2436233158402776 0.9210336870619558
Ni 3.0250271198390473 0.06978601023191361 0.21018634579328904 -1.8318894051496453 0.8131085465431868 -0.021473853603059794
Ni 6.458698953071424 2.4953965166942154 3.174509272610901 -0.3990691491932998 1.1831769376287622 1.9684946872119258
Ni 0.7765935833530888 6.2016247842059595 2.50260582292914 -1.8277409301989105 -0.5788177994122742 -0.9237194614242351
Ni 7.075348967806556 1.745502660596212 10.875906018054637 -0.051789216757149516 -1.1157515569962526 0.6265441589539597
Ni 1.6411571949520523 3.8261949776130213 10.915367727584474 -3.2895403469964246 0.10746208483942138 0.7685698407008634
Ni 2.8632184524611746 7.060746902999665 12.47218502689937 1.5109936191339783 0.9345864860457259 0.621820014005413
Ni 6.067315436845123 6.0516015396925305 0.5874709013491296 -0.15593406429787984 -0.453171073244026 0.6493141056606236
Ni 2.81983846043969 8.658894716712133 8.545344205772514 -1.2984441203348993 0.7383681203065025 0.7721225910491283
Ni 7.842680061192989 4.835238422955133 12.74749324623435 0.5012015942896917 -0.5695281465802321 0.6109229074769349
P 5.019394920481622 0.0682025756662426 12.869987521868191 -0.9742730060020705 0.7854720157728408 0.14837065012832512
P 7.851889739123223 6.1151242277103215 1.9346309017618997 0.15850311057663669 -0.20079467225599612 -0.21579937319494447
P 2.6453271085121686 0.27459108747200356 2.3875302486219985 -0.060564648956934405 -0.3422860787659847 -0.37079112818421306
P 0.7747673987252729 8.864500313241129 13.089845882542136 0.0831096241369859 0.0835233146356368 -0.09703960395451675
P 2.0868166601877194 3.1081365876802938 0.06443161096040234 1.542713833055395 1.8785688114840549 -2.57404887417778
P 5.029179045123802 2.6660071901422313 10.391844790125367 0.845963902510311 -0.7845204504928489 -0.11005915614263626
P 8.446025148857883 3.2162344874911986 7.358772636738208 0.574406814828772 0.5797346547995886 0.15373499976403202
P 3.0255089138555187 3.399853599383931 7.470200474424492 -0.07065828574751055 -0.37580735045188185 0.029194619286085206
Ni 7.0671677347960955 4.026917777090474 1.5099924800756437 0.40374752850557566 0.03852078178301753 0.16323059795929307
Ni 0.7070679271954605 8.525669405888356 1.6802195713643926 0.3824251128787156 1.0080156496701542 0.4638306098404012
Ni 6.691461054644197 2.67366956805803 8.672611021750281 0.7377901363158456 -1.1316687424471412 -1.0018532296131843
Ni 5.668806928336781 6.974978302798281 10.149176262352384 -0.02981605492016801 -0.2023545605439483 0.5171424338896642
Ni 1.0268234976038007 4.236692744915853 8.267892929591191 -0.29838912027271836 -1.1651501620340385 0.03934919122158385
Ni 7.987588876916187 1.1657747450079439 2.134921939678438 2.0287621166434158 -1.092140602445532 0.6051268696204483
Ni 2.8215340047668866 8.95024111763387 4.508051179842727 -0.17723025467249476 0.015458500646915311 0.9747581731686049
Ni 1.018373571776463 1.8066719701489329 1.1087414517812357 -1.0911335013372563 -2.2234236794184805 1.1197179978431684
Ni 5.570131807655703 1.969611000411603 5.275042237836768 1.1578631414543221 0.33455400022904963 0.9933235948756183
Ni 5.461598440176065 4.550303588560279 4.850240747406476 0.06277091257963383 -0.5504217647680842 -2.166795132291159
Ni 5.363812785371548 8.799448855747999 4.619452148247323 0.23708862159102392 -0.7319120802685136 -0.19092472144045183
Ni 6.1156060217267925 8.137028409448122 6.8871741228773065 -0.835513139490632 0.5258962688228943 -0.5062062465931346
Ni 9.203924197844943 2.634690579071617 9.697890925447465 -0.778156455948034 -0.26171001968412994 -0.5193186156053766
Ni 7.721397682815965 6.525334771657181 11.177454407275148 0.8667160474559976 0.8708380400441712 -0.5511262470342767
Ni 5.760950033986857 3.247819791378691 13.040349886092335 1.0642276780853477 0.10113434284918067 -1.1398165683652561
Ni 2.281822788354353 2.293534089062417 3.7487086018601645 -2.393211618880317 -1.2257402649122697 0.1285135061930819
Ni 0.11136483385336017 5.117273227981613 6.4471711047004 -0.8587697960257274 -0.08509554421876313 -2.2859493087565275
Ni 4.348700588475812 1.3645240420717755 8.295000328706367 1.1208816791339664 0.04794284642786582 -1.3856099168191298
Ni 1.9866590963790383 6.36127464377926 7.204574461766668 1.033639777996162 -0.3164007263587906 -0.09658477580528527
Ni 3.759290466210386 4.162366752605656 11.517582452364572 1.552451886278765 1.4099400089240621 -0.8252282126248562
Ni 0.752019308932204 0.4733190744158758 5.8770401553094525 -0.3376472944423927 -1.5447061808950753 -1.8034740872317454
Ni 4.547681517278331 7.938306908192933 1.1454374783511396 1.0221580026088075 -0.45867914754644873 0.27500827945493284
Ni 6.36127464377926 0.05664878454048632 9.048336232441274 1.2739062830945351 -0.29450778294044117 0.1651535260136188
Ni 3.883509935033974 6.6987806175867375 5.27951736302822 0.07332014885038984 0.40556169889617893 -1.1849723389662883
P 1.2528682787546233 4.784928009312105 3.93608941318919 0.29079716685807333 0.20932713520703947 2.7530004824167555
P 5.9332191906838805 9.253539716271908 2.5667752267613473 0.4112312384771305 -0.33082178688012703 0.09310992988280738
P 6.394620348880782 6.338528407040101 8.147094198284547 1.0884302434734803 -0.5386864786090271 0.5086117707108337
P 1.2993891971527165 0.8026243581468437 9.766291777882024 -0.5896249173301071 2.0305534042158833 -0.7604297280922323
P 0.24009741547354485 1.2218666868486243 3.7358122731769727 -0.3013127216774166 -0.5826955372001255 0.8290200755671207
P 7.716246192947544 8.794093529949532 11.133693612675259 -0.8546696578144247 0.33711173365389685 -0.5063833956009473
P 5.714086300615506 5.2628584083817795 12.132233021931347 -0.02947769774414278 1.377274657480557 -0.013816851278434268
P 8.93146041626105 4.932727589134128 10.31023629595082 1.197490783148273 -0.33687879170748436 -0.14666652295302482
