# total energy = -340864.93537786783 ev
CRYSTAL
PRIMVEC
9.25634794285054 0.00000000000000 0.00000000000000

0.00000000000000 9.25634794285054 0.00000000000000

0.00000000000000 0.00000000000000 13.54760086035286

PRIMCOORD
 96 1
Ni 7.596666413157993 0.3621777621985668 12.611610515600443 0.17739171995102354 -0.13094756955587125 -0.3908192504796818
Ni 4.9230072757225 3.8700421356890162 5.667828585876992 -0.1903927601963818 0.58305652008397 -1.8654109339458582
Ni 2.476461896469975 2.115279191697422 7.749051821464748 0.6527683827578112 -0.47781149750052543 1.7064010589361323
Ni 4.962670727540809 7.48559949171858 0.5302341679215171 -0.13318340086492547 -1.2334497177413855 1.2618660641005495
Ni 1.6581081566201181 3.9010694146843417 12.819837621020264 1.0537188081342241 -0.08908255389096917 -2.361323511922469
Ni 6.8266585796901715 4.745683414232809 1.4978224551682224 -1.020351802638004 0.688654298021143 -1.498818160113709
Ni 8.143429641969114 1.678379559066348 10.611633024620582 -0.4139332107893258 0.8990579541218129 0.26535352997398814
Ni 5.971122089325928 6.594592675247509 4.888421856498714 -0.47902582952360084 1.3936032194372514 0.21663498172236237
Ni 2.6011819314291085 0.1572746113990377 4.229194923312502 0.22309462130477709 0.6350316275996806 0.476334912954999
Ni 4.693709019376378 8.977185945138846 6.510814393786056 -0.7730008798890236 -0.37781795312400734 -1.1484310495071448
Ni 2.318576366093106 6.011859277529516 1.5766837644929461 0.4962226530178615 -0.2056833678068651 1.4810181558178106
Ni 8.128693535715964 8.273453564417602 2.5764961765506382 1.7004852076723294 1.758013383795785 0.8771714384613668
Ni 2.4125653251976806 6.581032125209278 10.749195317001588 -0.42942230756386046 0.7020739138611587 -1.7926260887736483
Ni 0.3463197865497626 8.06122401405817 13.146686679238682 -0.4599461871843304 -0.18893365915235202 0.8465814814896518
Ni 1.664680163805882 6.154110835882786 4.799562765538294 0.6715497771303726 0.5982594530766535 -2.740079146369397
Ni 7.1891464295517284 4.950961447132371 3.8158304814849817 1.2592455957585666 1.7062539918353066 1.0800744153096171
Ni 8.873376000648221 6.361323445545482 2.1015307377917667 1.1914546042565222 -2.8049005137201566 -0.506384938262844
Ni 8.001724208156633 3.929902939168363 12.738972312321291 -0.24699225385798107 0.4761017138982704 -1.6675424341977216
Ni 5.763807659833594 8.279923751773728 12.160109919399195 -1.7442788078185123 0.3937001715719026 -0.732868530644512
Ni 7.144540087821874 2.235343283537627 0.3776451199554847 -0.8022590054231925 0.12528162951934552 0.49634658019023553
Ni 9.067315007065302 1.8506957362074512 8.025910120235059 -1.5820349992525204 0.5275134927113432 0.5408107240408816
Ni 0.13005631966701073 1.9863012365897654 12.832030082802078 -0.16833320929318105 -0.6144211504381806 -0.6539886283181576
Ni 4.480683423076134 3.3837043475943283 13.003624264787565 1.598861583891556 0.7545385594187779 -0.02843305852971232
Ni 7.282598520463663 9.05421727443452 4.592447347531163 -1.6934275294945997 -0.8512122953934437 -1.2591388949773734
P -0.12028069038689045 4.345910994027226 6.980916547227462 2.0928424920630926 -1.1225845207576859 -1.96331622833478
P 5.935281509293142 3.3689219596004336 3.5547005694893894 0.043240041635557794 -0.5995074665511416 0.5833293141293825
P 1.9269032505178671 7.887611948176212 2.8464594215847865 -1.7428109650237338 -1.122210425247719 -0.0802857815349456
P 3.8543156001839276 6.9905977617564625 12.190646611942624 1.265582850830504 -0.9847201694773233 -0.9811095693079296
P 1.8082831489889006 9.07251707472502 6.3497196875059405 1.5437831548601735 -0.5063453432741603 0.1466115013453733
P 5.052725738682073 9.17352234572651 8.679568434374854 -1.390071295024593 0.9151234922251078 -0.12393205746998656
P 6.918861063601996 0.8843487252475218 6.224052728131169 -0.59729271828801 1.347096848345596 3.187521801770078
P 1.4764060424559657 0.4521596481894552 12.605758652300668 1.5191463301480999 0.45955486528318273 -1.8678483397427574
Ni 1.6455010104412298 9.397600021716617 1.4107933442368534 -2.5879359165725173 1.6272725309340816 1.0857195294105364
Ni 0.8065380114377054 8.2721484193286 10.835913414635153 -0.760141250317536 0.816452523314755 0.220411160935343
Ni 6.908197750534391 3.419452364145625 6.768910074858419 0.5450173059230613 0.07615453297539143 0.5885692223720831
Ni 0.17121282044174685 4.192894302776712 4.719712878231261 -1.2044980677040416 -0.5498957170612853 0.8864672619409959
Ni 1.0349152611430057 1.8855181179438516 6.202403055445558 -1.1387055946892646 0.05902121572921448 -3.7221888748070673
Ni 6.595971871121705 8.095629860127866 7.485876256528234 0.8746530429148872 0.4339507915618333 -0.706767719792402
Ni 3.9901062275292207 4.162848196685176 7.877266127850116 -0.38549166761918124 0.6957541422907179 0.3307953045175658
Ni 2.796740798772259 1.9857551120489767 0.12622604280296967 -0.1669371002766028 -1.0333196756525818 1.4533173474684327
Ni 6.655721598423264 8.662127623192578 9.913971882650246 -0.4382777010719613 1.0571933969463858 0.014365010472420423
Ni 4.875725849377595 1.9992601239983143 7.273029307747265 0.4631441252963378 -0.9447521137248182 -0.19573628389648226
Ni 5.463328086221943 1.2764226406976107 11.23166580283964 0.1433505712059144 -0.5294922137042687 0.3179529013372589
Ni 4.956607819503238 3.336663586301296 9.934509867923166 0.4228441401257104 0.2567413628249449 -0.49356053280466616
Ni 6.179954559914693 5.734344703675444 12.82894123942477 -0.6922001063908724 -0.568584294609724 0.09216093570597676
Ni 2.0711078983305686 4.35436203988723 6.188042756927256 -0.10543708398959259 0.19356498727677632 3.3855615369887566
Ni 3.6347550220905145 7.0495236740727645 3.6722802574864124 1.2697598650263293 2.106561641421398 0.4629299524030028
Ni 3.5003528469675658 9.08377279407416 10.849583189581542 0.5543326697867162 -1.412177382895013 0.6711761958410376
Ni 0.45032966816040515 1.6726035978213947 3.718586064736417 0.7434802447220873 -0.18271210372267244 -0.9341571118177912
Ni 0.16187501642907254 5.7674454046561365 10.931599987990248 -0.5843965790516322 -0.757781748946424 -0.034348652683198914
Ni 7.737483237548173 5.77937683742015 7.437267469858767 -3.198428678490569 0.4059797602702041 -0.5738740822537536
Ni 7.730161466162343 7.4506197520636475 11.407147651047689 1.5203475495450525 -1.3753746122443669 0.5991603676243681
Ni 5.040673973392124 2.4487576464601273 1.8889013131922978 0.20424200737464823 0.47413841952431246 -3.0205417640706815
Ni 4.157868281381035 7.204956272190158 9.054986476965698 1.7374286176658984 -0.8058696055925861 0.021058106221879862
Ni 2.6244338779793046 3.4454071643553186 4.297528987887409 0.02229789216625192 -0.7977477478164003 -3.5045979569293384
Ni 8.228699121117364 3.9147502972485095 8.772383688534141 -0.48988668349750475 -0.5835455439052466 3.0585568098618747
P 8.777600566350896 1.2615291765259284 1.667181229075732 -0.7094743200902878 -0.14287877377581845 0.22511910793397358
P 6.4243684327880715 3.148093261810613 11.409058161305634 0.34356391703714373 0.999527409693485 1.1734656238782692
P 5.005083314759359 0.9465263926685539 13.438935508076275 0.49122931356832816 0.3565539015389085 0.4493123616195681
P 4.499992165314872 5.287253831732361 1.0851929673837304 0.6650425721394739 -0.18724213038254203 -1.1873958608061164
P 1.2491349263544667 6.660840358949641 8.555662032418015 -0.048199699633678275 -0.17952033625825212 0.3688849123004357
P 1.1716778050439405 4.489180750676883 2.947565586781099 -0.06435162680319238 0.5196464312584406 -2.166175753539605
P 0.21581083145826757 3.5241046363178055 10.8869195954752 0.3147511065705096 -0.24372746706378023 -0.15247413077373742
P 8.205595276137553 6.882085592406165 4.782655120009397 -1.286826847810945 -0.34805563425991026 -1.2142165805433862
Ni 6.643891985488889 0.1915758607346515 1.5051655161547952 -1.9289254095597357 0.6540241095417832 -0.6086873332781969
Ni 2.9071320067967967 8.36492479682566 13.461492302880485 0.04160661979719286 -0.35662512109647615 -0.5781518836935011
Ni 0.242105339645028 8.625167025033766 4.87349229256925 1.6543303063828219 -0.18843306536684967 -1.6212306956153757
Ni 7.945482636803531 3.138040867720839 2.6257417999727535 1.014875610014781 -1.4563887873049048 0.5637027981477066
Ni 3.6006824045541803 4.77013868604237 11.213051286712075 0.03745583085361291 -0.3090463428762484 0.4916782281802887
Ni 2.847891378643431 6.895572091659204 6.82448241224035 -1.3583850196649057 1.9733185909631308 2.383987786289204
Ni 2.9576068732530945 1.9583100397873001 11.495383789777682 0.16260967654584255 1.0598886843903619 -1.6503342978495512
Ni 7.879420080064379 2.39774591181119 4.97507238279079 -0.5715413203555189 -0.7074642316387945 -0.5877179301153813
Ni 6.083133158276535 6.98686745345243 2.5314501582837075 -0.017530552684595614 0.08005541069169438 -0.1490105977051692
Ni 5.307876975408251 6.140485491407512 7.044765911124197 -0.7389713011081401 0.08049429800132588 0.8475531013743016
Ni 1.306209569040975 4.503454039522584 8.835867426678991 0.11681987190523753 -0.09176781403261615 0.15511439661006188
Ni 4.3735967313407755 5.077542008069445 3.1986153356424705 1.258230267120175 -2.4830796447870593 0.260666408910964
Ni 6.540239398916796 1.9701674217661223 8.70617580712905 1.2502469918043824 -1.0814209020351826 1.298225319455874
Ni 0.23022574243064833 6.61806677415328 6.424733132905141 1.4506464855044887 0.6587917061337558 1.113860767731443
Ni 5.851159817315362 5.730577369978816 10.451798107323544 0.2711194859234879 0.13305767392033857 -0.685686987862703
Ni 1.6480927879229397 6.1563323594385375 12.980783300095181 -0.21526921172308733 0.21310511419223296 -0.5889556591772244
Ni 8.349605540639125 7.341172691550304 8.918602517704057 1.166481222140636 -1.6322463299995889 0.9194979671437197
Ni 3.9718064272387203 9.215555422670953 2.0089191232917574 1.0362407059541185 -0.14881699363712436 0.1879101029838441
Ni 0.36134376523034517 3.492651565307628 0.962295507375128 -0.37858825563112863 0.9154142839926493 2.677186106389602
Ni 4.517070127649709 1.754337151976742 3.9228570069573716 -0.7771053889757004 -1.0931852416599626 2.2566101934727785
Ni 7.463384256161068 7.554550029080209 0.29756197267509776 -0.3919266246112476 -0.7571849959026895 0.8297394702316484
Ni 9.126435302692732 8.949435413388255 7.1816913667525535 -1.1726840085172385 -0.13110080730428392 0.3005524464726243
Ni 2.3060432706994094 8.432838623194604 9.06609502037927 -0.9833418010725582 1.2200696968900537 -2.343298793210274
Ni 1.2883910988542204 1.4480538480756906 9.760816346177497 0.09837040695079834 0.14909647255075612 1.3970495261146392
P 8.78168261588459 0.03032379653600421 9.342046197030982 0.27123647111732646 1.7122127805219027 0.1321629300202111
P 8.630665295834252 5.833239527298969 13.186191847503645 0.5511951525989991 1.623324859140243 0.5750051105344034
P 5.130673446444495 8.773851745350566 3.824745270387249 0.5733513769810642 -0.45127694154510667 0.2243331216975685
P 2.844901578191316 3.1469917563808862 9.530548024545363 0.5577162415469685 -0.1096511220709402 1.9274673369569713
P 2.8786131981498406 1.8544167881633344 2.2086516780152756 -0.3793770700810111 1.0655343127119132 2.376658342507326
P 6.159692413816612 4.70047540987327 8.431579759846345 -1.4678571929558204 -0.24298621802238152 1.2079634005448228
P 3.7942511570453035 5.775887194167991 5.482145316373971 0.9810838582763167 -1.4459076852679227 -1.756355279367072
P 3.3640716331703766 2.3042567955066593 5.858078011921897 -0.18904164548512606 -0.9409286262136698 -0.560142591600274
