# total energy = -381158.3363106076 ev
CRYSTAL
PRIMVEC
9.39753504359798 0.00000000000000 0.00000000000000
0.00000000000000 9.39753504359798 0.00000000000000
0.00000000000000 0.00000000000000 13.75424245371460
PRIMCOORD
 96 1
Ni 0.6425714742354621 7.379639699235971 6.247699121189668 -0.5040688885351577 1.5074688938101717 -0.5696191636321416
Ni 0.21483140328142022 5.749881633643199 10.673512277695252 -0.8952056702552582 -1.023226810192954 0.8057832165263672
Ni 3.4419222805832974 2.1123966550193436 4.845055976543325 -1.3421559594005532 1.601146780381307 0.45106611108588124
Ni 3.6205882111525947 1.5493339632462526 11.29697762404094 -0.30161405496791927 -0.06338797733834245 0.7675678817989103
Ni 3.4242831078671934 5.715082562482978 1.5213293097065668 0.2071093016201143 0.2532667740127832 -1.1362967281374559
Ni 8.303473749864276 3.057807445421849 6.7540617870796416 -0.8044426433380726 0.7135400055192291 -1.5862456948997585
Ni 5.386272219295036 2.9682301442338344 6.2864724097934905 -0.5833277714674857 0.16073842766505864 -0.3180097227171233
Ni 4.829966355003501 5.965649031385206 12.775696631707358 -1.4104082068097323 0.8593063852554877 -0.8981210441298403
Ni 6.758002173398162 1.345078545566699 7.135797166443691 -1.1136087996216368 -1.3564237821734768 0.03813743030166981
Ni 3.197840110655023 9.230098868311805 4.804205832760887 -0.3810277183105567 -1.9674042823612246 -1.4867206055192266
Ni 1.778267307165811 4.696521361626474 2.865242560964903 0.7754190024122128 2.2834183148045577 0.4390243494299987
Ni 1.5593987229579986 8.301246534129744 12.002859350099056 0.554253994029981 1.4372358685255375 -0.13072619757368453
Ni 8.210485143563877 2.230269933324135 8.76765558105194 0.6501764536609189 0.2592643863571148 1.8342697324563635
Ni 2.9162523795600084 7.954223768606261 0.164720928761398 0.6090169487034738 -0.4574074799228767 -0.6418782182078687
Ni 8.872137372345305 8.277076074765962 10.740687735558469 -0.5939513126196029 0.7827237636037423 1.9656045101483244
Ni 2.1856880284945146 1.7588144102439487 8.311152475504302 -0.48951773019386013 -1.8372627536464163 -1.334263958246986
Ni 2.2568367640478573 5.262563071913687 9.396403281677712 -0.4004719430780974 -2.0293532132601957 0.6328816711362133
Ni 5.413045795783146 0.9471869244692843 4.870569343622147 0.6781819377349094 -1.4775808480014874 0.010457190777581992
Ni 0.4390716183493953 5.153354320643657 5.789587157693711 -2.5734788606069228 -0.3801707696269001 -2.3674550787415036
Ni 1.3130423496214678 2.6557527164324615 3.190296709515323 0.41916900526696843 -2.5288249693429736 0.538546353486737
Ni 1.5527076782196576 4.677247017864764 0.2531263573667288 2.0017506210515785 1.0738302341721184 -0.11225487824237441
Ni 4.734534389669437 8.278654860603098 8.344533458671522 2.0798900456674825 2.179190420631718 -1.220980381629781
Ni 2.457013651648141 6.055912352609596 12.276706331824728 0.5493429298816087 0.9055538462588016 -0.439920635992023
Ni 4.835097408974195 6.568820401449365 4.588139593413993 -0.6971458804319219 -0.373690304108879 -1.0306827522503668
P 7.853867495065891 4.959548961600389 9.88895627026011 -0.7563889823639554 -0.0693807045866676 -1.0275251804579917
Ni 1.6670004957866569 4.002005953842268 11.801800033986229 -0.48701758947982576 -1.2299424759190754 -1.909498668293692
P 4.949474804353898 8.409684687550694 3.4404036389685277 1.032606708745957 0.9600339795845529 0.24582188769896374
Ni 6.510301952593116 7.34864662964742 9.694512818607667 1.499310269258779 -0.20456519504202186 2.753679510761651
P 3.0803709263442602 6.933416556945736 8.494069850792174 0.4015577199431084 -0.03605843628545403 -1.182116357574732
P 2.745283029946752 3.0766025149115714 9.649549373867403 0.5039053663740999 1.7228779735452326 2.4213479721052167
P 7.480080550589045 3.8815013658089152 2.590941678311053 -0.25623099884742967 -0.3509427259997182 -0.3967294453165297
Ni 6.414512880938747 4.931440935178509 0.04822720855715213 1.6063486362972206 1.2526604863418813 -0.49616840274115837
Ni 3.493270410429218 3.3120577479440634 13.076501381602139 0.27175480551464165 0.5415902825193835 0.6572873536740873
Ni 3.076546129703102 7.754855068994035 2.5975847956221956 -0.05084330790411244 0.07928202286077958 0.3419343518535208
Ni 5.730485121929806 6.399035141213961 7.990389241318385 -0.10428625821460104 -3.104312933051067 -2.5867706926198224
Ni 0.7513714327440904 8.727161603836333 0.6642938757982084 -0.4435250655138297 0.34006258875210466 -1.927288131066629
Ni 6.273361909070935 7.779034925892564 13.502002959779956 -0.3304492340320567 0.8016846209769614 0.5791402157486993
Ni 7.26818493716192 2.3989838745986245 4.808482650823274 -0.08880076098449223 -0.01568887149016653 -1.250512586760943
Ni 8.99144847346606 0.470188735396579 7.222393569610635 1.684424297554725 0.09290398451958838 0.9738593155034194
Ni 4.221212849300895 6.5380716677641795 10.356779646161408 0.3404438833509234 0.3384872738451848 0.6062846373739752
Ni 7.204939528329006 0.14103162317655238 9.463674594395325 -0.2744099837493016 1.4683040506852518 0.20276516571880565
Ni 3.815756212733868 4.096733104070466 7.9936624026700205 0.9934354378631342 -0.37878725901581217 -0.38277735401181173
Ni 7.560279112101689 5.381582849457351 6.6037002914083915 -0.4254306699059641 -0.16817662911065875 0.4133773382858558
Ni 3.789433717913512 1.1415561355972441 0.3135139758837311 0.3883931575366924 0.33666590436572985 -1.719809104811922
Ni 7.022852895112578 7.053526448519805 4.989612615002673 0.12349985502857443 1.1061996516417594 1.5670575520070817
Ni 3.506812257996563 1.1221220337448716 2.624364010631151 -0.20072113870558334 0.053991109504474756 0.4453235521751492
Ni 5.2849667947454355 4.651554157872315 2.41675743206158 1.1132724993281409 0.09450243935495982 -0.9669409911170316
Ni 6.189799030119631 2.3181274856538407 10.396556591475981 0.37482621748553513 1.542670124301653 0.2124466546726277
Ni 6.318047186782749 3.8799413750412683 8.644141902393283 0.587143288558834 0.5911179569358659 -0.5208779896726965
Ni 8.19985653176744 6.311844813851142 3.321401716740879 1.978781413849915 -1.0597488163783877 -0.5424703711314915
Ni 0.14044051824110063 5.696982910564376 7.931245856401602 -0.10552912948276665 -0.6378706397103724 1.853595686478485
Ni 5.6371206142396115 2.2069828422263695 2.8815820546257926 0.3115413413839602 0.34591287688529454 0.6943390071107461
Ni 8.506140984171948 2.413211742202344 0.1482216770098455 -0.7145008267706018 -2.87297715478342 -0.354695251063615
Ni 6.887190083535765 0.8371718647181456 11.836722212851607 0.9600926007366304 -1.3332221472460328 1.8029565241653789
Ni 3.6632248262900293 7.4398309092768065 6.385296885170449 0.10634262652299752 1.2999464159120386 0.20848638447329898
Ni 1.639963788325692 1.1985897739638054 1.140121132041704 1.33525588984661 2.4301046352519244 0.22086393220204545
P 8.508396392510715 9.267933343194615 13.028719616191893 -0.19514827260349618 -0.3932872524042001 0.15106233802787533
Ni 6.284140881423291 6.906868521291504 2.16182298900994 -1.8311021333616593 0.07040246098296261 0.2342670929818288
P 3.3978008549561753 3.3123960591948785 1.5795235436141184 0.3303255639699989 -0.08201664818312326 0.18877990718330714
Ni 6.673414963159668 4.798071122079443 4.374894493997505 -0.3692952603649769 -0.6973101739239281 0.687370546212713
P 1.9094005069956013 3.798079449878784 5.354499154322662 1.1901428274236343 -1.274165707403509 -1.380961105193209
P 1.734474795254759 0.771068665569319 6.08960815319077 0.4966682251957123 -0.20073450844202204 0.46789089595270383
P 7.132963809718115 8.512559500402688 7.629973109276527 -1.5112160195574296 -0.23935427769674908 -1.6960644528968145
Ni 1.3666834779451342 1.6943473218942025 12.633793857059956 -0.021398777390750245 -0.23687650558021786 -0.261524128925569
Ni 0.10370179590954105 3.901677872906132 1.5864833578461623 -2.6491253435976443 -1.2662924753030191 1.6310649080969781
Ni 5.796474610908219 3.0311090492116994 0.7933154495708284 -0.5319990392865225 -1.6829142886681014 -1.3032695667480005
Ni 0.8837761190248603 3.5633384294869015 7.483696721958868 2.0209063680444226 -0.24285509176115597 0.3849309100197048
Ni 7.89927638295306 9.270658628270624 5.287295503855211 -0.911934810084481 0.15741270572593538 0.46042029860727157
Ni 3.854511646021675 4.394249656558021 4.0737862037304655 -0.9729455454398986 -0.1531055937101492 1.6779710857302135
Ni 8.845523553947858 2.5881186588736966 11.16955832994232 -0.449078134121575 0.3090131756454678 0.13653740493882294
Ni 1.463506278421437 7.364415692949296 9.837116649347035 -0.315863622908398 1.0738346050474925 -0.3836785256698425
Ni 7.321638114790689 6.636407471334405 11.994386532773088 0.6523431222949345 -1.4011234390736966 -1.5047756632487246
Ni 0.9264052161344988 6.812460887244631 1.6625986905121641 1.1264766567232405 -1.3745793700365811 1.2613641847634665
Ni 8.789767980306598 7.661424778560628 8.545208415613285 0.21311539860487813 0.7644586467459673 -0.21581428559327992
Ni 8.843559469186182 4.391392805995583 13.053297928563602 -0.5719388129042537 0.8918701781241221 -2.049494721205077
Ni 2.4722376579348158 5.615261948423065 6.556798135250264 0.3885217126947567 -1.3717041053713148 1.677216724062692
Ni 4.655134618610107 1.109792468159614 9.298652004768616 0.6469666884743697 1.0590199086321632 -2.0326565666018155
Ni 3.9456771305815708 0.6098614750490245 6.758696651215806 0.6963089863529234 1.0214005556174925 1.7098270538985456
Ni 8.319355583583091 5.915372220500201 1.0874037813834572 -1.0456512006347412 -0.8400997304200499 -0.9462258700568672
Ni 6.403386199800832 0.7452733724481501 0.664853968869002 1.4765848026368054 0.47779015734428676 -0.3500466965480101
Ni 1.3603965272008223 9.19625834569556 3.1883298054932236 -0.6698268809019948 0.18557862663719008 0.19465230680368412
Ni 9.06309527836088 1.0136462901849412 2.0739748342149795 -1.5895315647398818 0.6340037005557985 0.8166389282939484
Ni 0.1388457565948977 6.6398093789120445 12.909291045886826 0.3376454946701798 0.8186230486035126 0.7026310719162093
Ni 4.343455981262047 4.013160827584418 10.719533884847786 0.0912350814575977 0.3018125441319705 0.28945659366977894
Ni 4.794189940229815 8.757994915334223 1.2857631857640852 0.39342274954079987 -0.7549910735751643 1.025488609643937
Ni 2.2118601627589523 6.552722424431418 4.469715619573153 -0.17537237552814958 0.33997002903829837 -0.7788614524348586
Ni 8.053593300998422 8.22578433012851 1.45031589865355 -0.0819845093936072 0.4976223615788656 -0.38682144217419834
Ni 1.9657669203952777 8.870314250604801 7.827937817197871 -0.8796664369690785 -1.1215452808598942 -0.4984258313167674
P 4.07180144439235 8.544341962909808 11.923125966556283 -0.5655318809366454 -0.3419032415052692 0.4768118525914176
Ni 0.1620896190328369 1.6349267097024462 5.006365600192337 0.02094369213120264 0.4385795485830962 -0.09248618025587943
P 9.066685136633417 8.111078021032736 3.974563272880325 0.4067012118172609 0.0814792876224145 -0.07847675335066485
Ni 3.2941836368593376 8.82714197598691 9.792016000599498 -1.8630529752366431 1.1186185941314024 3.3961254285475317
P 5.276358652919143 5.084799304679896 6.216312294895308 -0.032220550596602573 0.393878863241612 0.3990084711586934
P 6.90003651353199 3.1021450143481033 12.427727534435068 0.10149738261555423 -0.23142833798145301 0.3776138075330013
P 0.8048593812514155 0.4194646018577173 9.579760461591643 -0.5426650036408008 -0.5750853289530353 0.23794839848815794
Ni 7.007403347992027 0.2685665069525354 3.089917881891565 -0.6219436840674708 -0.6132703246631889 0.22795452050023968
