# total energy = -381165.47858756676 ev
CRYSTAL
PRIMVEC
9.26639955313607 0.00000000000000 0.00000000000000
0.00000000000000 9.26639955313607 0.00000000000000
0.00000000000000 0.00000000000000 13.56231240803287
PRIMCOORD
 96 1
Ni 0.23664067316718426 4.855380127425226 13.573704379670017 1.2887009249052064 0.40710564634453117 -0.2559810876201527
Ni 3.4874742567276344 6.198303785499861 13.838033980707623 -2.044870077948872 -0.34679527949024797 -0.5541305810782392
Ni 3.8698244263301547 6.143771025378907 2.7323989265179445 0.0815052557643435 -0.6195818687035135 -0.28669420043329336
Ni 8.438242698967661 1.988485900954253 5.24118295742215 0.027720091623087743 -0.6875163277619579 -0.32196202249665196
Ni 3.9597918975305535 8.0138138099583 12.240488201544867 -0.5182827181416945 1.0410926347297813 0.4472781047983588
Ni 2.6893314823014345 5.0663575076179015 7.353214054228339 0.32402044768757743 -1.160106428962544 0.21373966245243833
Ni 3.9925208200024676 9.039548618595337 8.741357741086366 -1.5696795630109612 -1.9671836817099866 -2.634479311549695
Ni 5.0419776109521015 7.486981941833109 10.070627359732246 -0.37926188465938554 -3.1831316431221826 -0.10366919345589244
Ni 0.7280832355697021 2.8306811378468963 9.439220468485724 0.1322716876839335 0.06653809293154993 -0.9051990340225442
Ni -0.44336292278253736 5.856457047416235 3.8980387590432013 1.6305121209173015 0.5674198419879776 0.8017794946836128
Ni 1.1910103072805949 1.36853598585277 11.281591931353447 -0.2815967313057279 -0.1381245469202847 -0.6912727094805966
Ni 6.226325377106619 2.416815944086115 1.5555967893466884 -0.659537840271161 0.5754499113813057 0.36649172947791075
Ni 5.110187576500165 4.523522567831046 0.9553982044402459 0.3209950305976923 0.20619887399070294 -0.22501369270436086
Ni 3.2340289683558026 2.9497821685749552 9.292489814843025 -1.3306258472737664 0.529574746115746 -1.1981307307251172
Ni 4.098889818036186 8.429078230019552 3.320461308207664 -0.4190813306491686 -0.2904688369843772 -0.3030039933369104
Ni 1.3213792796071389 7.781755371265172 8.460577501298934 -0.06318614574018151 1.0715175268785417 -0.3958377867401957
Ni 6.445234795135069 7.620279096351364 2.7291844125866 0.12264856277187265 -0.766365633960693 0.5231534159704345
Ni 3.593426266791015 5.471660548387729 5.051012350309439 -0.20448034863769943 -1.3231454797363214 0.07085034715365862
Ni 2.558239730826304 8.115299415539388 1.5298019135015395 -0.4269324512624712 -1.156507655867692 -0.02778282654022312
Ni 2.597140075259229 4.067337728280562 -0.07182849449066779 -0.12140851971718447 0.19243087367233308 0.8586587243691598
Ni 2.059401655109846 7.620362493945432 4.08175439237507 -0.10778295851394985 -0.19564141018983078 -0.504777227456092
Ni 4.589786589517528 3.5576764981339815 7.352061314150335 -2.0801255587170564 0.9974733553779338 -0.3366944436108202
Ni 4.027242018332665 0.42946795697091944 1.1139147914045828 0.14665109633405712 0.47065534607171844 -0.20873063927362115
Ni 4.8767762435032695 7.479244498383491 5.225002897533076 0.6206720164438989 -0.7343625986915353 -0.36858255056866845
P 2.0615514597569256 5.666662656116763 11.954201867269097 -0.733708252936988 0.891695857329787 0.7426047840956694
Ni 5.986603626158599 0.11679925713179014 10.64527570173614 0.8034270575893646 2.0014323184802114 0.5940307597072866
P 4.234346043600862 5.725782283911443 8.679622208757761 0.38416754949111903 -0.16728779874780222 0.79064096156829
Ni 1.6857804336864153 1.484115784831303 1.336970923138068 1.351369250468705 0.3239044909350035 -2.5868123444910354
P 6.8463957553995325 6.100598870849845 0.774527355706021 0.02660886083677998 -1.2152792174799456 0.729613256932008
P 7.138917449791768 6.514010011042925 5.072426999186164 -0.7491672678045356 0.85347255218253 0.33338491962161293
P 5.575221827421168 0.5807011540533412 6.93446454137499 3.1576085591504137 -0.5284905119126317 1.4007115483472588
Ni 6.708011347643146 8.31954012341126 8.625128367514039 0.7162499482512246 1.5713680064569777 -0.8193974648756921
Ni 1.5709141474571284 5.441285291348393 9.395738816218678 -0.9441149943614514 -0.6449923383568182 0.7446020170313563
Ni 5.749448667827997 0.5205900215291895 3.0175464203147224 -0.7936769201811363 1.6007523731563658 0.3059491920081634
Ni 8.397674402653381 4.369515010785971 5.628170033254835 -2.0928172952521114 1.4389217408683928 0.04082757553932323
Ni 1.4145899905768384 6.262334604945197 5.9134389168829795 -0.9628938176308515 -1.413942702325552 -1.2092816051356141
Ni 3.6932717196887697 4.921746079504458 10.830211719861198 1.4183685993073896 1.17292697776598 -1.105609583466244
Ni 8.639601556644525 0.16654777527305933 9.888132111193567 -1.4608421950905681 0.5779225412915143 -0.959982043300695
Ni 3.7054663012213402 0.6062513969558916 10.748254124251037 -2.7329430495452485 -1.9798587060744934 1.5540850510068136
Ni 3.3315485550190016 7.376637658482161 6.9467925590580695 0.822928360847086 0.07456559122171674 0.6213716136140847
Ni 7.934567562795276 0.8691048605784975 2.938966427264305 0.5508084586835417 -0.4139560936074613 0.07305995321046772
Ni 6.4060101267252145 1.9763839834150914 11.836982842247165 1.0108770303783494 -0.9670127248952315 0.9390504353543505
Ni 6.571424621358886 2.9593543590940627 7.041850990056337 2.425842774651777 -1.105199235401703 0.7859535833949496
Ni 5.223339578851392 7.513835967122918 0.43675227349276863 0.6704125782021357 0.46518069611039237 2.7227216289275558
Ni 2.166827022668423 2.3327326364671612 7.077669330068492 -0.8904511862894083 0.42208335070028596 1.0598442043056715
Ni 8.674860206136493 6.990516064347911 1.9007173463174398 -0.2709775610289849 -0.24361331008341916 -1.5545879587851614
Ni 6.864919287681911 4.995515884657035 2.9271128492274787 -1.4288152485620103 0.37694712048327983 -0.3938698643805475
Ni 1.125524663138745 3.6009135174584292 5.205296972694806 2.520642947752814 0.11253744247979973 -0.2660484991584838
Ni 7.866672654824803 0.8272911601928057 7.31366691512142 -0.48791104782837263 -0.3846403753624795 0.41517736760907203
Ni 2.85078922441656 7.3096137920497295 10.387876440765561 -1.628385304382286 -0.6460002107960423 -0.538614230610195
Ni 5.5756666145895295 3.946772606456647 11.953252061336658 -1.2251203719400836 0.05796397810929372 -0.17978875942829037
Ni 5.9926082529314755 4.603269200558477 5.356448625463028 -0.28556368637327595 0.8434835592906184 0.29840120445757645
Ni 7.6371068775543645 7.810268082036995 13.028648283961159 -1.0049946034556434 -3.3137429123845576 -0.34053181507903935
Ni 0.8820166614200502 8.435462779165404 11.180322232877002 0.8477083960052433 -0.9031827749234639 -0.8837004978291362
Ni 1.0309981234626433 7.451769624337845 13.290034876568107 -0.4863447317825172 -1.999000054889635 1.7998269773974616
Ni 6.232904520638629 0.1472495720057866 0.663221220103492 2.20053597618703 1.9057183753156532 -0.3481039709993424
P 7.415111748545407 2.849399264515431 3.555536886526177 -0.8884858350329214 0.9353909842248922 -0.6571899088642745
Ni 7.527262979767823 4.051297591021536 13.090004820556723 -1.845795987928408 -0.3586035849790856 0.9183957352184764
P 8.582733663889675 8.98358883297589 0.9706590375147064 0.08584939166565214 1.288092601897246 0.4898889974903498
Ni 7.567655214494627 2.4330692085299814 9.636931144742093 0.18096915288963672 -0.07458487449542639 -0.44883850730694314
P 3.577274932739898 2.9496524389841836 5.500113954203771 -0.15101117307496573 0.8177707279055465 -1.0511207083897447
P 1.8165941931813203 5.276222919889674 3.6734610845379474 0.21757600547939304 -0.43552482091717254 1.1864167847222988
P 1.331229462106472 0.7192940557948974 9.077024717449573 0.7298870794186849 -0.14893269327938224 0.00313880273929782
Ni 9.29160394706604 6.414785406901006 11.56790606482724 -0.842875236282658 -0.8572183923782075 -0.3544350554236928
Ni 8.49486966533965 6.869163298580023 9.369876295658342 0.6248690852443819 -0.01274675814270708 -0.42291047458727166
Ni 2.040220208474268 3.4572935940744567 11.339815498331866 -0.6781436282978064 0.12531248275728096 0.4107116185282346
Ni 4.0511215294340595 2.2826570144291596 13.240478172893193 0.436103576238778 -0.29320577629956596 -0.5201884198048397
Ni 3.7541890289555764 0.8681207689684982 6.226701592919858 -2.0226158945363615 -1.455489672529403 -0.9548303238964265
Ni 5.733890383334694 4.009367134004148 9.502691597410871 -1.7410644146462724 -0.8413773115808929 -0.5608121068634728
Ni 1.537101056262334 5.80438914951995 1.7022597982741985 0.40476491402649645 0.1003226455811627 -0.12864797488841714
Ni 8.892574258649974 3.0240245600939173 7.379512095557696 0.396790123351136 -2.3491922758765735 0.6642313890920883
Ni 0.9996684272911994 2.348439183349917 3.177121230083786 -0.9776442364671486 0.44888170184005277 1.0114778971871419
Ni 6.726748007110364 8.890192794019372 5.347551955455869 0.6926029982562458 -0.040692078402723465 -0.15971692837907978
Ni 8.682681047180179 6.976116079772217 6.868361755037039 -1.3801782042805972 0.09124510875992672 -0.09016910208692858
Ni 1.9650141114238573 0.06018619035881267 12.972636606505404 2.1917662004141993 2.063109997995666 0.6804349954351442
Ni 8.28858108321345 0.5428043606690306 12.544108262427645 1.2276755342617698 2.1434927101197925 -1.3905631470593471
Ni 5.796290316496039 6.69456580219956 7.431116673486939 -0.08491608121810537 -1.193353363941132 -0.7629458096458667
Ni 5.149189851325839 1.5829697329995858 8.889797118767518 2.1779737746157974 1.7352022994385405 -0.5434571605247931
Ni 5.318663028870807 6.037170367361666 12.345446853598906 0.7646545648068572 0.9412165897677339 -0.5198292366932079
Ni 4.821696765821203 3.618195352229131 3.4957945566957918 0.6353028789831963 0.321412320640769 0.7001311883124911
Ni 8.468154636039955 2.1254340168128065 0.940930575149363 1.0014688496905721 0.17313525866751472 -0.6696651585131499
Ni 7.569703088748957 4.813338473615749 8.285297997926984 0.4060913461474039 0.5413923075759643 -0.17354534962173984
Ni 6.910584103633663 5.558356980620805 10.546203066543411 0.4719416689833098 0.12645636655373707 0.7921075188114874
Ni 0.7472544891660051 9.12922883141617 2.562314166616479 1.4804003197281534 0.29315821089108224 -0.5977447182237641
Ni 1.6255951699675366 0.8678325839489975 4.8824185540619185 -0.45034465953882435 -0.43665842030098345 0.5860068609615456
Ni 3.121395884367663 3.329565545560058 2.2096804130601595 -1.5587459468175928 1.6348228324775134 -1.8492091273750153
Ni 5.616216378105127 2.0145708150987707 5.092539718955497 0.603394974531006 -0.3874130530116102 -0.594435451344873
Ni 3.3628133863950596 1.3821112608871282 3.1848243878558415 0.16470435429134214 -0.6084520773389391 1.2919286878138845
P 7.0710132754219535 7.662172487771388 10.845482745974932 1.5325237798962703 -0.5155434648336605 0.5154768732617833
Ni 8.86814802998747 4.2409622527302355 11.06934227453127 -0.1465752487907992 -0.8071135053020163 -1.1689019157669869
P 4.388103407863734 2.414536409848264 10.898456897726755 1.9935678281304696 2.864597929580789 1.9521545552910058
Ni 8.828839963983546 8.20346920526766 4.0606242219581095 -1.2039398812077267 -0.6318686564906665 2.467023105544829
P 1.6108708614149116 8.341566354644481 6.16991617111914 -0.5914172333438396 1.4494882035303296 0.07181656772166986
P 0.45098082968065745 4.884587818147613 7.444908782265873 0.579605328310576 1.7995462129322493 0.5588979205598955
P 0.14928910650070965 2.7771954808514585 12.524551526618763 -0.4080214732905812 -0.11178153815038168 1.339856364733099
Ni 8.961108548174966 4.154219488500455 2.3809457122376503 0.7536183615973537 -0.6554988943150969 -0.7464760941256177
