# total energy = -340868.31774308626 ev
CRYSTAL
PRIMVEC
9.25854641479004 0.00000000000000 0.00000000000000
0.00000000000000 9.25854641479004 0.00000000000000
0.00000000000000 0.00000000000000 13.55081854625708
PRIMCOORD
 96 1
Ni 5.514093933224144 4.178752310099578 2.206872663372893 0.012105525014282376 0.6687303054037064 -0.561826149950284
Ni 0.2740233446438498 2.45404252018005 6.745854643191292 0.9573690311578802 -1.7577562734796566 0.4470973562461203
Ni 5.2124782687447855 5.89701815175875 4.097265991954392 0.5733441778922126 0.05640177582849641 -0.6382755884582749
Ni 7.798427298788771 8.014503253530437 11.757788168698358 1.028369016515526 0.9618088120967888 -0.34202202647132063
Ni 7.545965256887332 4.75058790838176 3.6293288749694717 -0.11682887076630201 -0.18209812428775735 0.3227276970180829
Ni 1.644651139621679 6.4266440372263265 2.0939804301501845 0.07670423483127435 0.43079476243135484 1.0118273101067605
Ni 1.5032268441088261 8.244207788500905 11.650763076298334 -0.5274774972670851 1.2026625571571996 0.06279071007397573
Ni 5.133975054233919 1.9315827495882143 1.3574806591592858 -0.15907723791255182 -1.7712054570060272 0.8902197870048928
Ni 1.9333326148485697 6.126111622670044 11.768180886977452 0.2614264270054401 -2.4292929379839068 -0.11648614271490261
Ni 6.94482635940396 4.877263339557332 0.3653737180714842 1.4321152594695208 -0.09851284606593357 -0.5575979708015494
Ni 3.9715645598549543 0.6984767728362549 3.296480430229356 -0.3524401364808511 0.15029820616834116 -2.2640103425915914
Ni 6.08586472168187 4.364339871707116 9.816957983014676 0.08280623396395416 -0.7878027207885464 -1.053027181383838
Ni 6.331503214922557 6.5333395253762525 10.543377048738511 -0.4563857235265817 0.2538177614202467 1.1964780256130427
Ni 4.086889013204093 7.51544908811415 11.672363264935418 -0.9941746300220039 -0.31426851050713617 -0.20926671428274926
Ni 7.954443063350936 7.720349977410055 9.069522017073876 -1.9274467681316805 0.36057947775853383 0.13774273810083376
Ni 4.470183573592741 5.997232657462914 13.620334567419693 -1.8317266543195354 -1.3285360546242735 -1.8762226798493815
Ni 5.586893883182742 2.588226632446353 4.086764022828353 -0.7591986838986086 -0.028524846912570227 1.075779130368373
Ni 7.873949261374587 2.5326753543398315 4.4733416637530965 1.6724329295208034 -0.39683588898740685 -0.9943090987173393
Ni 6.681605886642559 1.106294444945027 5.734055699869362 -2.0820775402371043 -1.122548525313428 2.232008592874014
Ni 4.472109351233767 6.153507661322911 6.547348631860081 -1.540973196215204 0.09639888504672431 -1.7826093279675943
Ni 2.0663223746355825 0.657557701382991 4.8054049837626405 -0.05590143915331018 1.547160813083155 -0.11625114388596107
Ni 6.383749191981741 2.0903760780557064 10.403031373875562 -0.2568102683896674 -0.6310117078070101 0.15819483530759854
Ni 0.951565618325662 4.7271452690208084 7.950333194625689 0.8585052295104313 -1.3261251311899356 -0.3034264255863097
Ni 1.4605542039766664 4.848682206971526 0.3080781298324178 0.054537726036564135 1.856746573402641 -1.1696225959830953
P 8.281890072149828 8.71614367165486 1.2779840026249478 -0.13330090027939623 -2.4750688586674405 -1.7964022679866287
P 3.0196471167679513 0.05339496266135347 10.465270100011473 1.3813902223108274 -0.5575468058486398 -1.4761685410349932
P 0.6841001020622871 2.8951104097994804 4.375301990586802 1.0147305997964848 -1.3192494871160247 1.6450997889234895
P 4.121941869689309 6.801846628104124 9.636149683033572 0.6573351761928872 -0.36867048229678445 -0.6361220324503818
P 5.2164687022221035 8.625409917414208 2.0287336023048046 -1.3549837072928408 -0.4540259650451535 -1.2313329285086987
P 8.094339698715862 5.85716010971732 12.145950872758407 0.012475506759191419 0.47969380212490287 -0.39586169799959564
P 4.842701186028724 4.230202052172568 5.514804063729273 -0.7220997221637822 -0.49645739473648687 0.628234402172189
P 9.209281625952803 9.08200438926441 10.352526929385016 -0.7238233897231082 0.3105105861266007 1.6030118586145037
Ni 2.9993246075273152 5.425535937375998 4.622279269629857 -1.376686646187571 -0.34119156015022534 0.34782089254128484
Ni 1.8597271713574284 1.8345346667361209 2.675880068315998 0.9819343792020703 -0.04764305579925988 0.7060732648285389
Ni 0.322994573858654 0.4974079958750648 13.350754399169729 0.4517412827760349 -0.45139932605558386 1.5689704527590784
Ni 4.666723995533615 3.7515166887286715 7.789065056718552 -0.3439105017432852 0.26317966225112094 -0.8015689213347035
Ni 3.2636653643971982 3.4169591163321447 1.0337416981740044 0.29147465254107224 -0.11224433671941314 -1.348533837902439
Ni 6.865258412062718 3.327206768004708 6.463848579883535 -2.716499045056612 -0.709092768381153 0.9413173770116563
Ni 8.024595069053124 9.198495419453787 4.4033248328276375 2.328842251465312 -0.9630730235211928 0.3131202558353059
Ni 3.281136241361699 8.34834791785793 8.369987918244327 0.6744990895666836 -0.5928848190283016 0.8328183662672882
Ni 1.9326752580576427 6.441031818255915 9.193553207411576 0.28101231955716766 -0.4714834983999686 0.529544664208759
Ni 5.60340187132673 8.833940156879738 10.219959359311614 1.0621114030732934 -0.7080887525966708 -0.5663770025457601
Ni 8.95431051799022 6.462085752658287 7.196947686799678 -0.9156024887440555 1.0912353170224434 0.1337798967983438
Ni 3.0619771906851203 3.480139436631962 12.098590630608692 1.7129082639270305 0.8412808952123446 -0.03980170537797016
Ni 2.382585059442361 0.697242608607655 7.17567339899415 -0.9078670677730106 2.148305301017087 -0.5019009343495615
Ni 7.833470896727635 2.4301184364088417 0.22685197683969702 -0.07532895175030252 -0.05474701383389281 0.762388651590816
Ni 3.845509451284906 8.919452090978377 13.766682557882053 0.669523233618647 -0.9930618565737993 0.17490237787026652
Ni 2.811144652941473 3.252795830981022 5.845036969125206 -0.3295699167508969 -0.8573137803054912 -0.006503348336156542
Ni 5.535407106924347 3.0300166886811684 12.988174910387004 -0.07296636505539691 0.8433022965177477 -1.65221120315729
Ni 3.8979591163638134 2.166601690164205 9.55270333062586 0.023478542737914405 -1.0559268715291361 0.11788636549653891
Ni 6.924179801041036 0.4534502695093743 2.556091143916366 -1.6584404718964534 0.7924168225217901 -0.3953387356165901
Ni 5.707310537024978 8.745252541382676 7.96579404117737 -0.1367970863581128 0.7492695977103547 -0.8942343074809245
Ni 0.6193671235393926 8.221950243072891 5.784193505924404 0.6504201942406089 0.2677030040427712 2.2829660577584874
Ni 5.955559940336672 6.613148194922621 1.501796398697583 0.243281123554981 0.8720333459038531 1.8241562981714454
Ni 1.4497772560240012 3.7512296737917876 10.045573712934258 0.14878125530318248 0.9631933511491411 0.7777533069723443
Ni 8.664582827025656 5.679109004839567 9.810738091576019 0.12695721744955552 -0.7390144956412498 0.8240799579530259
P 8.869233735570083 5.4635700457862635 2.052312342297118 0.4060766908593846 -0.060181554585902804 -0.8730003378028126
P 1.0988783493178063 8.318239125124196 3.7479530742381377 0.09994083676171174 0.6362135637229236 -2.3068765458274982
P 2.3624940138605024 7.090426259321153 13.77345796210178 0.3368602797647231 0.5763078885062268 -1.5859194219085913
P 7.020200185248159 6.3787588354985045 5.078630241711027 1.203764789082443 0.26547385760193637 -0.11726261586961095
P 0.9589631968601805 3.441142439401184 12.104878109435715 -2.018548666445523 0.11766267952150704 0.8868927795141888
P 2.6083269365745627 1.3162782761876786 0.23278670505074373 -0.9664666225837744 1.7410975818770529 0.9265391902612172
P 7.6185800359189075 4.8229156724764515 7.826803817500218 -0.12770566557980587 0.45520533006523534 1.9205037611549438
P 1.80769414086432 6.489611410960069 6.757210250290899 1.381781029991343 0.1697030930575142 -0.45227555801295016
Ni 7.611812038536263 7.099786649682102 3.0440554225133214 0.6721041069719457 0.8564995119343121 -0.21950407574004135
Ni 5.589847359468738 8.405223168092657 4.172378726791489 0.4013785140527668 -0.40202128984308827 1.3348550548637657
Ni 5.76593565252006 6.216308381222333 8.217148760935219 1.6117785490635401 0.29595659957182574 1.6335748190030253
Ni 9.15899846072005 0.883565298795469 2.3571240569768723 0.6346842715625908 1.2417839486386937 1.183790402843045
Ni 0.028734824455233416 7.077001367112077 0.01321750077081171 0.09681334687632359 -0.275934390813628 0.7266834848797227
Ni 7.343249384530283 8.037584809583697 6.336403763506187 -0.3639764192552248 -0.18169960329775806 0.7541793763071464
Ni 3.3426037305865655 8.21640437380859 5.874605062752038 0.6507428676873503 -0.6721285324519779 0.2705250468725986
Ni 8.742086118530604 4.37246887540337 6.073883236848928 1.1531279407621817 2.1642559108090724 -3.2702683861406907
Ni 8.732031337193325 1.6068670119628932 11.522234084143275 -0.5051184128455946 0.8300066078501059 -1.2497836790147185
Ni 1.9438410649570534 1.383634200891836 11.669869938403071 -0.17534846426874962 1.0085476109142242 0.35011200256830666
Ni 0.4094842104519677 6.398248075567543 4.362672407509285 -0.1835777941570774 -1.5697682660700256 -0.19090440972547768
Ni 1.2545978403967373 1.5488899947123869 9.223134263003299 -0.7462814616163083 -1.230108312072978 0.3811099936117178
Ni 8.50524324432345 3.343946219807473 9.228310716268192 -1.034241673246219 -0.7999293288487513 -0.14551312607487196
Ni 1.36722805675771 4.241543771452649 3.029827814335606 0.033100124988078475 1.3973194919465741 -0.5779433672271208
Ni 7.871403161128038 0.83280624428027 8.900976661734784 -0.2309807089210732 0.7991837089319784 -0.5215534184731663
Ni 3.3020327804761025 7.527087080877466 3.5350426164939073 0.3160091473473267 0.13962401428394666 -0.22513479166325742
Ni 3.56113320011127 3.178533030698954 3.213184066272532 0.04688895124205473 1.0430070781436747 1.9299875322756632
Ni 0.8424573529966429 2.960984967087464 1.0600480059213477 -1.5854100863723404 -2.3565844545755867 -1.2119344693774288
Ni 7.5704263363469035 3.8783587737385625 11.602021459033036 0.7159619846971605 -0.38132236673284003 0.37577778276552704
Ni 3.585797967590566 4.661344780103634 9.802350774436569 0.38625194282397346 0.42732223050172213 0.20082989636930576
Ni 5.824097840697589 8.105783262005804 13.073734988926669 1.8606497651117893 0.27842167601185597 0.5088696523579107
Ni 4.696230982754529 0.775991174596825 11.79472699107529 -0.9399549494464909 1.9714337152355919 1.341287954973303
Ni 2.2645941447441094 8.882186441915252 1.8276805648724113 -2.169531814496031 0.152875222866898 0.19004668971087268
Ni 0.8381632391990088 8.398316292514746 8.683269351126055 0.9008412712744809 0.29859043765024706 -2.7574109527796256
P 6.97813860917517 2.6036235950282105 2.4266538883642648 1.7152711077322524 0.5080792952461314 -1.3896889719845098
P 3.9309287999200335 5.684867820669943 2.253569067749235 -1.0185499735425747 -0.11873791486355678 0.24761986013965093
P 8.772176394171638 0.39820267172316826 6.942639490755834 -0.18805665586403741 0.5022297784438899 -0.19715733261372498
P 6.850398445169224 0.9266693871875893 12.482715682605033 -1.0516986923804017 0.11273516031290262 -0.4423690975325156
P 4.382190349072011 1.0633718240613879 5.239478041613825 -0.08546912550809796 -0.6088097177886741 2.367267131100413
P 2.328292943639587 2.9607164692432826 8.053508583452931 1.053669185843211 0.46661717144660286 -0.8924214226419017
P 5.835180320679839 1.9161765284600056 8.185250291191819 0.3881735853267186 -0.6464514394008479 0.4133392859590688
P 4.926629908701327 4.815888435795976 11.61189940213501 0.13082981303108437 -0.41729672794492 0.8616507171179484
