# total energy = -340855.938101823 ev
CRYSTAL
PRIMVEC
9.43509586864142 0.00000000000000 0.00000000000000

0.00000000000000 9.43509586864142 0.00000000000000

0.00000000000000 0.00000000000000 13.80921651785829

PRIMCOORD
 96 1
Ni 3.9222919566554584 9.417546465027746 7.757299842591406 -0.9298687688550824 -1.5327626353799537 -1.0301459059102904
Ni 6.6010571645605145 4.93681949662484 13.252732674273238 0.17601206599467753 -1.5466003125939947 0.335492452882919
Ni 8.153064368631895 0.09769664238160608 10.420531108865006 1.5421592461035054 2.7157251430050646 -1.5157385900181315
Ni 6.856502946709472 5.477516528375241 7.567409105665576 1.3005850779373018 0.013370507769635038 -0.6298169161679605
Ni 7.24850286954846 0.7335060437895751 5.783161737425416 0.8731003537157868 1.437870416785743 2.1348376055479554
Ni 1.8923216724296137 0.027877877392166912 12.85578687424571 -1.8953172345869878 -0.46454614785018705 1.0519180074800594
Ni 9.312401758066528 1.4289452502939988 0.5924881593034798 1.7308162545557029 0.5078041872078739 -0.18049529857701171
Ni 7.411824376861693 5.695052095828383 10.4192054779131 0.8887367747014628 1.8090996609486392 2.7338758457721624
Ni 4.537696076499803 7.9565030190156865 10.50152197072386 0.0010796062174239472 1.3023791937232474 -1.231671028574408
Ni 0.5282983724343799 1.4170570296576803 8.211594985074278 -0.26334909794944966 -0.19085041655909066 0.386520880214644
Ni 3.887504758650612 0.795444616814369 3.310359008535003 0.2234142094277249 -0.21433127328985024 -1.1008862098486458
Ni 1.357578186093115 3.9841390092515434 4.536617645056366 -1.0450547047013228 0.49483117198697363 -0.3595759761946839
Ni 7.993545204903136 7.599809224447415 8.725698255963149 -0.1731781960903082 -0.21085925558084975 0.9733224691633431
Ni 7.009228841503193 7.876436796539656 10.984127117983933 -1.1115773710139047 -2.207735322148946 1.4682755114401616
Ni 0.5414612745055927 8.097548265279437 0.8965520463071092 0.34962426429861077 0.25478166799541285 0.7871298630912379
Ni 1.7942061117970136 8.604882798482201 3.8301516421569697 0.09799656855114736 0.3132547245306411 -0.36627781369489176
Ni 3.021296923762918 7.39858693753411 1.7350452309589912 -1.1092947456273154 0.0915083897236424 -0.2839292360936465
Ni 3.660458614688414 1.0368887168805518 12.004047758680079 1.3187990298421675 1.5875654421524465 -1.2943979752899835
Ni 6.523727119849985 0.8338520610558464 3.6124358643751338 -1.8102139770587404 0.6942721584285527 -2.16964545725576
Ni 3.5031378282677994 3.982148204049748 9.154198790193933 -0.07783037801591758 -1.1931530750048678 -0.6324481831432204
Ni 9.481139010336307 3.100900826547537 2.531381464321084 -1.6813986233545235 0.9468267368656599 -0.574244835329611
Ni 2.4270179832873966 4.820994261282422 7.266174803875305 -1.3041110888126894 -1.3296454856383682 -0.13160037264852176
Ni 8.074847424921515 2.0670596455920096 12.667885055502529 -0.6694769537617439 -0.6417740885298368 -1.2993542908539946
Ni 9.122954470640623 4.288835991179536 6.854908415528886 0.8954578954753805 0.006750174239639988 -1.1705610486369646
P 2.856399755460586 1.2280060162529867 5.0581501103333615 -0.20748185446818462 -0.43938790341700457 1.3348609684010366
P 6.577761913170775 7.6351436580053615 13.396058383178099 0.1866392066912205 1.6392495007902996 -0.9743377978017349
P 7.854632290277328 1.0983678007426563 8.326115346675422 0.6343744536316558 -0.702550596387261 -0.06791800399821207
P 4.946849003399765 0.5861241872247521 9.47589781465101 -0.8431287470543609 -1.0213365351487766 3.391491529319947
P 5.966716807559747 6.873118150313088 9.226765998573338 -0.005304957152681186 1.3155077606854053 -0.7311636321382633
P 7.348146915691444 5.366371100521405 5.444849396383871 1.0921742838969448 -1.0623949957519832 -0.40104735596559316
P 4.231612135497574 5.441370676583386 2.7288117862552337 0.3197128214511591 1.0443975307332982 1.1447245471898349
P 5.402403731164343 2.3077961134774596 12.431664224439732 -0.21865638302776538 0.7014851312372242 0.8893530681292232
Ni 2.6475161708038755 2.3310630595799684 6.9659208085327435 2.1545703080901926 -0.04655290805887466 1.3189957192340058
Ni 0.12919665302955288 2.5513914153730717 10.628774050520759 -0.17462675561137667 1.3715063875382123 -1.3355222561341191
Ni 5.586406968346472 4.786348589713722 9.427109878072962 0.6612100857672613 -1.760036070652769 2.539127893930879
Ni 4.8769066386560915 7.812966907475755 3.616329728388315 -1.1786911339432669 1.0471139012231967 -0.9022155259141881
Ni 2.6166067971494473 2.8211879781473 10.941318201578296 -0.7395713965859843 1.4959423812278108 1.3227222761559736
Ni 7.246342232623289 3.0456583409716282 6.556077232624386 -0.7970548355144338 0.46715427489699546 -0.3208975857878796
Ni 0.33955777367963463 6.399127245466475 4.846579410409013 -0.17640724455056717 0.27482573113048153 1.4336522649393375
Ni 8.264323017634648 4.174209012996493 9.298477443768846 1.206418424655206 -2.7437756213843776 -2.0137977820241
Ni 4.747759048124403 9.074939268403938 1.3557666477104382 0.26131818356235 0.2120046820392026 -0.15257363246607916
Ni 8.907438013676506 0.4446845539589398 2.5341704786227472 -1.391758710029345 -1.1609631205358844 0.8923085512131212
Ni 8.741389763693515 9.005242216149584 12.873462582610854 -0.5791954944666671 -0.1858110543629703 -0.7741902722114344
Ni 2.187621298997468 6.758245859640725 6.285555110987512 0.275028591169907 1.742597049240715 0.3396527549081957
Ni 5.233260769777611 6.265450808978094 12.045834854216737 -0.31986863030273294 0.9188780741715336 -1.239553259535962
Ni 3.1382166302115366 4.620923056049776 1.1871728088959554 -1.2267170270032421 0.36128216025251325 0.01126271739801286
Ni 6.919793568954254 0.5195539256996657 0.3956447003245516 -0.23017183986653264 0.052257157532503554 1.0747069803501168
Ni 1.474186534382211 9.254291003384713 6.656732721031031 1.2703450481058378 -0.32248292799712847 0.23737272849034602
Ni 1.0469559640384503 1.5197014362469732 3.7991639572078735 1.2182115606353923 -0.6007595937906879 -1.231293333520015
Ni 6.951193567587324 8.33171790652768 4.58428657927928 0.06518106468302323 -2.6681443079023084 -0.2825560098952037
Ni 4.821069742048366 2.4404913000085573 5.579558975856123 -0.16556413118847615 0.0834531235193337 0.8859592119563259
Ni 4.108644532677623 1.950102198760419 0.7101192719711285 0.694296583908585 -0.16032293739419484 -0.7475307606423771
Ni 0.35360946176984825 5.8278982438913705 8.356716192699052 -2.4184282273552604 -0.8237104904287491 -1.964728278190958
Ni 2.2519403466782486 2.5875844426436414 2.025660332490392 -3.2228677853695396 -2.1401286787435656 -2.70448582264582
Ni 0.8072677352900599 5.498905890424871 0.804489099593714 -1.9354902072614473 0.3284653708328085 0.9898317796722758
Ni 6.087514338358783 0.21788655301478624 11.994146569207258 -0.8103471817479657 0.5733966283967028 0.14588619314357454
P 0.5098452121800056 6.734063709251135 10.776463491206808 -3.6039777789812573 1.1864214127079888 1.0574713331981207
P 1.416604145062011 3.3058405411836276 8.602382498110277 -0.44300184602050807 0.818152022504365 0.6477115370601942
P 9.248082710385749 7.753403148049502 3.089259805419688 -0.05795703613075825 -0.5148428392222101 0.09725917616449056
P 5.663019945780524 2.398288116749627 2.1829745143439867 -0.8592346514772881 -1.3588012812667178 -0.03842462252478544
P 0.552332391820804 0.7526281523321361 11.387245357646604 0.2928368229959215 -1.1804345989969347 1.0596768254898719
P 7.728079351074995 3.754545389438707 11.469921327605178 0.2551349375697735 1.1236939517717808 -0.4587292840580938
P 5.259122367209475 3.402833325422798 7.81003731024752 -0.9700067745265487 2.978400869036574 -1.2625255520614191
P 2.303135176180363 0.15783877317691172 1.2561292061344744 0.7148769791630978 0.16168947872441833 0.581127164271741
Ni 2.6488748245908837 6.43831119808761 3.977191948255892 0.60384697446676 -0.9538299076563702 -0.4161417884048704
Ni 4.525939947203889 5.839022221772497 7.744277523446766 -0.9983786408010225 1.2630929945291147 -1.93579951097175
Ni 6.189252975756737 5.9175788289296305 3.6488506163956664 0.6191532658065272 -0.8576554799156261 -0.5155560632391508
Ni 6.311475206012983 8.4369286591591 7.230257281400434 -0.10595181884248203 -0.5753056724939576 0.2705332744027147
Ni 0.8199107635858272 2.0020990114006976 5.843894505214239 -2.926394651172612 0.36155392585666124 1.3549420554216276
Ni 6.380162703022824 2.2880767633743595 10.414372821873478 0.1994456144272694 -0.2003077053172486 -0.5999152435125217
Ni 2.8949704268584195 1.172499347996271 9.468150657536341 -1.1347864621405166 -0.23122959170708565 0.11173525829347854
Ni 4.95396306559007 0.1417368387817203 5.6419343938138224 -0.7478171815345444 -1.3159713305853853 -1.2065186976784963
Ni 6.277112587316578 3.3949361502858144 3.9749275252775456 1.2248910295380968 0.44058886570364125 0.2974159577261717
Ni 2.402958489142466 7.3541004611053475 11.574346136761196 -0.3227948028105924 -0.7911757510258375 -0.5108985098624813
Ni 1.7771946341721863 5.517276021836706 9.87595059170674 4.164896329515607 -1.6353265115868092 0.4079885631701167
Ni 4.16898196995481 4.328180340428304 13.050524419854778 0.8587744240114178 -1.5538377108826982 0.5262521095004162
Ni 7.2567114028449655 3.043582619908144 0.9497216413482565 0.4069966315704926 0.36603947243184054 0.32372991303035215
Ni 5.851231235664082 1.53067445259621 7.935493891324503 0.8789565553862476 -2.0055136876384365 -1.9804852839148988
Ni 8.335888218846137 6.415657533208403 13.009883688450905 1.3164053327990102 0.5705447607702046 -0.2978838985015257
Ni 9.162270514602163 8.774450339177372 5.242213732128248 -0.11001673294047504 0.478606225487679 -1.0320922310033838
Ni 4.9866368021484595 6.715514311020181 0.6774832757957112 0.1799383976322772 -1.476090122388574 0.4676980632156075
Ni 7.170691634955032 7.72982484378747 1.7697059986808799 0.4905549132091229 -0.2050398206855953 0.551170984229283
Ni 8.726671014334263 5.345227050961095 3.1811463158426867 -1.0005833617618252 -0.03855806277885618 -1.068432717305631
Ni 3.5179886689674547 4.310574451771661 5.033128236422634 0.5457580407438278 2.204191827772062 2.175073570249867
Ni 0.9856844522826943 7.88722111097403 8.719138977402539 0.20838662567064112 2.5262590083880103 0.872289170668401
Ni 0.8707819693039529 4.5489615808170765 11.818894383326864 -0.4834717811100964 0.29810449915276405 1.736126611025023
Ni 3.915649649252309 8.46213923498469 12.804926990642477 1.8700096090601344 -1.6349462454292554 1.951437217509007
Ni 3.767707348000345 3.261778644063304 3.1928845184566903 3.4800333802160965 0.4102835298518805 0.37065537393729714
P 2.9349846679049487 7.283356113223509 8.42576222334713 1.3476730325640403 0.33953834081751844 -0.08937051744503319
P 9.05106847617387 7.476454782701997 6.929961771636603 1.0937033189469616 0.17563822759502654 -0.9168353327098919
P 8.175991651287653 2.0066750328361063 4.2099057542309755 1.6020322683100539 0.78872163305839 0.46055502441292295
P 7.252314648228677 5.323677292283833 1.520022229502239 0.2624132163987416 -0.19507345350150274 0.08445122576654489
P 4.314857985239033 6.893214904245913 5.444393681259479 -0.23793220053824182 -0.2431137447391813 0.9863937005250044
P 0.9213295512380902 3.455500029860837 0.3403918361433255 -0.12821628666763726 -1.11391476089783 0.25877227721204465
P 3.7200884197848696 4.876774547315688 11.166464117257831 -0.6642753549561463 0.22417217063967199 -2.543826070737496
P 2.3127589738383354 6.1783082646947305 13.425886494860366 1.4528213816686204 0.9303333671963268 0.21428807875674064
