# total energy = -381165.31600118085 ev
CRYSTAL
PRIMVEC
9.28476877461937 0.00000000000000 0.00000000000000
0.00000000000000 9.28476877461937 0.00000000000000
0.00000000000000 0.00000000000000 13.58919762046146
PRIMCOORD
 96 1
Ni 7.713618684612146 3.3759140338487383 4.659899122263993 -0.5507737487908644 -2.2112415355299917 1.1302299531180855
Ni 0.1144273460340944 1.792415306838244 3.0109177072595807 2.4993860952565665 -2.2514114228806585 1.2787872653359202
Ni 8.904241710150197 1.6017711517516615 6.977115551642923 -0.22525023419519918 -0.1444368622915577 -0.8897929838801193
Ni 0.44116671179829914 3.5192151534905984 5.806528128416337 1.5946881692401569 -0.06449869390401795 0.2205921665978975
Ni 3.7338511508186327 8.147663050364232 0.8338845722033632 -0.31888801155701857 -2.1746552517655258 1.2144785759555212
Ni 8.499017266347597 0.5211317819625806 0.5156797657999721 -0.9848284129204136 -0.20918289631969134 1.0232358090540183
Ni 3.2445995505589345 8.302635124223391 5.235075685696792 -0.20299193701763105 0.551990651917101 0.49324223023329894
Ni 8.387386492636693 1.4501601641507846 11.64687974061804 -1.3013983178672168 1.6462161619161195 -1.2606098230959448
Ni 8.215868961008853 7.417722391890464 10.929343533086447 1.0298440583991555 1.0628516236734276 -3.2206514944445113
Ni 5.206610441910475 3.8312762284655184 4.607865421687545 0.5998311684391476 0.45389355323234737 0.1955812463758567
Ni 7.96841130643487 5.157902545471367 6.049992403985657 -0.5763179158085558 1.1051465277868966 -1.1916047566811412
Ni 5.994608758873327 8.667897923673356 0.46109089688573385 0.4488004549801561 0.2138137102234834 0.17674174507185045
Ni 4.010026594886738 5.919847801548185 6.412212584742696 0.3084110232850947 -0.8912873090374585 -0.6370049492759675
Ni 8.245505942601234 3.8686381375907515 7.876244193285404 -0.13676006247259026 -1.9325316388537557 0.9096149037020528
Ni 0.1771654564093706 5.000200749623434 3.977436128380654 -0.457548119265799 -3.524120600343298 -1.104529463028188
Ni 7.690174643722182 2.7097968752076875 2.3939680411067688 -5.7152941614788215 2.0502822501033786 -0.7356748897450555
Ni 2.571945914774702 0.2659594131012823 9.375771472450817 -1.0530719185788442 0.24221025908830543 -0.09076971178540497
Ni 6.017820680546559 0.7093238296436031 6.428274306063706 0.45358759195615433 0.3756790524041337 0.3573172620674943
Ni 6.438058595287406 4.952365621439239 10.013444742273489 0.2832540644034928 -0.21111610878666223 -1.5864143592671387
Ni 0.7078949037453989 8.870445152193973 5.171273540832015 -1.9452881671884756 -2.0206081200777137 -1.315574866477915
Ni 4.250780646481491 6.6240510812706725 3.975126077935734 0.9495719037109646 -0.5644471325128989 -0.4100755276061325
Ni 6.917199082466245 1.4371150641704287 8.59920363419673 1.5783585788421979 3.2550739377884392 -2.18148153065874
Ni 7.1013810385589995 5.010831809749774 3.228385559031749 -0.35993001709999306 1.0447222610625684 -0.3893562927809101
Ni 1.6598288102407477 0.2687151324423283 7.04246546744487 0.9752402550113461 0.8083278373250917 1.2219514872937989
P -0.08456660151678283 3.9636955992269676 2.0080215624922193 2.197730388417434 1.7414523941133104 -0.8219413143434683
Ni 3.0748554097469296 3.854645991206128 5.344129007625099 -1.237991828586113 0.17253207786587704 0.11475964694209913
P 4.082624201111935 2.446174438380466 12.273259946308253 -0.18083185598082405 0.4932072632303054 -0.12279383010048531
Ni 0.6205038755994172 5.016281968958649 13.484071772840814 -1.301518645495165 -0.3697310623508149 1.037237522649749
P 3.9796096927261355 0.27763315274918376 6.973065535549377 -1.0238485029373527 -0.341558970791973 0.1647562905752001
P 6.874424153206814 7.552555802505929 8.969848814044285 0.7703577858392217 -0.7451139236707683 0.5332714782410428
P 3.9145698881977413 7.459522420439618 12.358831159795052 2.2263979315554563 -1.6873152459492746 0.727677730472192
Ni 1.3198020120339182 7.353843183445731 0.17804936638668725 0.6459948114794036 1.4063780026044166 1.7764613060883276
Ni 5.979372453487018 1.5758852167016741 4.140668860924884 2.042877472998875 1.424094188937257 -0.4630857612545766
Ni 0.9517166429084871 6.639138830358274 11.778246218612392 -0.48243434098451754 -2.0800975336925984 -1.4585544274976556
Ni 0.2573468616836466 9.014897583150825 12.318824948552804 0.4780709218094992 -0.6889312058316135 -0.6447635101754637
Ni 4.880250823184844 8.9787426939526 3.3083311311818253 -1.321141819042731 -0.5508328841635739 -1.4555104984650094
Ni 5.723669924334704 6.113695201825673 13.377056457635415 -0.7505911447352557 0.09869719416259776 1.497970210291117
Ni 3.3508730127476563 0.8803223427028295 0.11980044166301396 0.45683566657980673 2.135731578117135 -0.7143858984592922
Ni 9.186294412785964 4.890612625019775 9.790459880958029 0.11237417742905809 -0.7704680861648409 1.355250844911298
Ni 1.6133585430509387 1.6090411256197177 5.010187446804125 0.4561144721430661 0.8697286090300763 -0.02798568657964858
Ni 7.532714251859651 4.7953416137041645 0.697250844942922 -0.8905589155118663 2.2093633446706726 1.2073671617217208
Ni 5.0177861014830745 5.0607374413472215 2.0804241885753623 -0.2908640155402668 -0.32307505305517265 -0.2406282593131662
Ni 2.829913927482324 2.878380419936031 9.719944848345351 0.22371117184285344 -0.5691203696188522 2.0034794308172272
Ni 0.1690069301796633 3.4100169891710492 11.593610237331708 1.0155289273280639 0.42534813749448686 0.5224432772772873
Ni 8.048325310371471 2.800221237277927 13.74343528627943 0.09362209363253554 -1.0022874889371256 -1.7602042207995168
Ni 6.168289641601112 6.723908768308914 11.299335993696552 -1.9999899296067296 2.487656208414148 -0.5151701406546418
Ni 6.217582478466387 3.131000405890141 12.101044200076482 -0.15033265895070239 0.2701100708223671 -0.6637336235200634
Ni 8.346849192626562 7.20846227562195 13.120981609259463 -2.1385942443769106 -0.7686863116740696 2.8668916107109723
Ni 1.4098642681260554 5.306356711724685 7.299545856267709 0.9504869593260663 1.0759845615109598 0.15284385540833031
Ni 6.740677060525656 8.49885942528022 4.485644440832447 0.7215924435100605 0.06519546286072644 0.5185048614548297
Ni 4.768425069331886 0.7126069238450649 9.016405429582719 -0.3917353345360479 -0.2131742768672716 -0.7651713565422757
Ni 2.053103756765969 7.915256005803171 3.1510499353546115 2.909348494323602 -0.6162162946653903 -0.1337439013540858
Ni 6.078682339173771 5.064460633583607 7.571071488186232 -1.0285813896366478 0.5911570377039174 0.048363478905052194
Ni 5.6020858786103185 2.004460853707546 0.6091179637802638 0.34750413263181446 -0.2420318245289122 0.08255709406762556
Ni 5.2282160986039194 2.960309218673868 9.53157174767528 0.15573788912667375 0.5677273459260674 0.3532991420470367
Ni 2.6217215596107795 5.370793006289574 2.766855492587958 0.4770324532426559 0.83590111895767 -1.2685725295864474
P 0.6128690103226581 8.827391679874463 10.031192577584843 -0.18952089911438974 0.3854001363466395 0.1725271927698706
Ni 5.174299446941338 7.658513582559895 7.771417298055359 -1.4461496260753997 0.22845460006510976 0.18130339630060388
P 8.176204429253636 1.116530571557098 4.762877420051983 -0.03617130771423448 -0.5864102670475513 0.16821570987871032
Ni 0.7761806634005773 1.8910102653374607 9.373176379607749 -1.6789712448599536 -0.728885634737364 0.12151702027059072
P 6.0376436616554985 6.230590439372065 5.295669942986328 -0.48354814287398656 -0.1242660437706376 -0.6266763136564498
P 9.546042059646371 6.679406872076995 6.016590448697878 -0.7360021911774873 1.2807425892900781 1.48398418042467
P 4.407015448879676 2.425404410867259 2.354572767642961 -0.027540885732746115 0.40758567130474327 0.8713329774027189
Ni 3.9153683783033006 7.891951236443246 10.216453423796969 1.4588822431507196 -1.4924847616965136 -1.0377679412319225
Ni 6.997196649320869 7.285553709883085 2.312392063578365 -0.2701290969857606 0.05681315233430215 -0.6414784116662887
Ni 2.931535720567731 5.808523425203368 0.10465048462532942 1.7424744076199217 0.3554601542540975 0.009452146551835334
Ni 4.9533405221495155 0.3181221719622344 11.703044234775456 -0.627810427260893 0.5204244470750456 0.7539258655354435
Ni 2.711653828941546 7.490032170286914 7.508031622829204 -0.07112648363318073 0.19433940354895565 0.712163951107309
Ni 2.9182677861393116 3.718670554044339 1.1755742724788627 0.782021338220079 -1.2955410877554914 0.7672840320099044
Ni 2.4633048365753107 1.2647526185936833 2.445674917826058 1.2172481682808585 -0.8361471735302052 0.736975096613718
Ni 7.2555917613872785 7.419579345624322 6.654467054954408 0.34803377988303935 0.6017929201512088 -0.6033227265321739
Ni 2.3449797446538474 3.9329351606256022 12.597471069563808 1.357619602253791 -2.368362678157437 -1.205602099401498
Ni 8.540640884292035 6.199616451091305 8.259269683676594 -0.3825091879520896 1.9802883374127445 -0.954687370560659
Ni 1.8037520093834503 6.156163733719017 4.691466407262721 2.634650804130553 1.2947779843372216 2.175333765889789
Ni 7.150441756207541 0.592489871570428 2.456954054805515 -0.021604208533336985 -2.3234753307264433 -0.4883008270676235
Ni 2.009326072490255 4.842666079611549 10.619441166827137 0.8876335143349551 0.360393844110289 -0.790928925122354
Ni 6.7140669135194635 0.1020284659531212 10.154527730680256 0.4374937717180853 -2.3876343819028554 1.795426534336921
Ni 1.8860429140993895 3.2863345857274044 3.324420706808842 -0.35685883437383703 0.8313893471302456 0.4096978325517396
Ni 1.8157757848101839 1.503436166775185 11.84688572795387 0.6128360653392477 1.3372397530458582 -1.0178390635184793
Ni 0.4328874835758911 6.274293845498425 1.9636663656052753 -0.7308566424208058 -0.3416546158295729 0.6489731773814371
Ni 7.8335036176700505 5.184651964007599 11.910985913892931 0.4440647400673836 -0.7590421037160863 0.7328453907160605
Ni 3.938561730439193 5.63934565528019 9.128190330453533 -0.1167378537143925 -0.2935274213050429 -0.6019484718924666
Ni 8.479872073351515 6.883356100666673 4.155562558347296 -0.8225784337068349 2.2218367945473347 -0.060351504504863804
Ni 8.63980221368008 8.810586248583045 8.08255546702455 0.4550616053985195 0.05175193576131088 1.101096268976923
Ni 2.2825396753528557 8.524151135135371 11.709023625798482 0.8229990661840213 0.43974245854294586 -0.387542636610939
Ni 9.473528016339197 8.684016282083249 2.554524903320509 -2.7942111523271103 0.6369483850064191 -0.48692837220012913
Ni 3.9820237325801515 1.3504788877172607 4.806335708285474 -2.250361641459905 0.33287481275441383 0.9794404091356229
Ni 4.4856852938145915 5.062742951379788 11.438027225694109 -0.7966617138410731 -0.645737701163275 0.5330166819177594
P 1.3665136832091287 3.3128240307408956 7.867166474957436 -0.29560718665220703 -1.390217076573838 0.08909798050993688
Ni 1.5203715848279744 6.8658264574190495 9.547946365700442 0.1680275051273042 0.5775507597743924 -1.0320395233885775
P 1.5828580779723127 -0.01994182614790639 0.9818707861157484 -0.7789753523049036 0.3960409038899373 -0.02818391863338372
Ni 1.005837559481793 2.130687283766577 0.45154429773996735 0.619106728839308 0.44304941142899185 0.3060929166748793
P 7.155316259758919 9.199664479669746 12.327685403293911 -0.4498540930556511 -1.3121095336371338 0.49420330859498757
P 6.3213490531144 3.1465431086425366 6.6344769480094214 0.3514770012366334 -0.7623050907380742 -0.3467448858682867
P 7.649795184779429 3.1874239450934314 10.222718785695008 0.18242748260271807 -0.5769853741892257 -0.2996906126929613
Ni 3.5349899754597263 3.268433551733008 7.704096225864919 0.8567923605843825 0.7775941556866608 -1.748993953905994
