# total energy = -381164.61234241363 ev
CRYSTAL
PRIMVEC
9.29668125376422 0.00000000000000 0.00000000000000
0.00000000000000 9.29668125376422 0.00000000000000
0.00000000000000 0.00000000000000 13.60663273783400
PRIMCOORD
 96 1
Ni 4.103796697142894 2.661184226470236 6.780633745374828 -3.142434936733769 0.15160612634648726 0.2355675569608072
Ni 2.1218744662885602 3.9456043736309496 6.160171397604973 -0.21887826923058432 1.673101416342738 0.37536897736288255
Ni 2.76056574611896 9.138572324046578 4.41367831582307 -0.02583701566776195 0.8369239037952296 -0.8068651367366363
Ni 0.5474517933817088 0.6246188938348642 9.519935193094113 -0.9349711230786544 -0.8770889060498894 0.5023102539728381
Ni 3.2626330023050523 3.949490386279515 10.635773975750606 -2.2644487156805906 2.4596908335494736 -0.14985726197618063
Ni 3.7535814280421382 0.1956189017908808 6.744195404283793 0.41366478761928754 0.44460981393757626 -0.7984725417975668
Ni 6.96807621624606 6.606928050315847 5.926328262307292 -0.4772792791461393 -0.03925637439746143 -0.5572213041884211
Ni 6.383789113495579 1.2413300308303266 3.0343474228956793 -1.1828671196978273 1.331693112196016 -0.4562268293512143
Ni 5.679732869712871 6.070063317231235 3.667245940809042 -0.3235730757375137 -1.1680735063284207 0.6589277174909878
Ni 5.930947783084977 8.136966508900255 7.718470836692668 1.1794447242798396 -2.023294151550309 -1.8962785700589924
Ni 3.874224457086244 6.482557052199792 7.584391314631883 0.24442629290301776 -0.804291462472189 -0.05650204885178657
Ni 7.910508656971043 2.250270927267842 10.456003126021947 0.8049887456495298 -2.1018441813410704 0.5404273725595339
Ni 7.010478378184117 4.714160990035064 2.2767571713725396 1.3498862381652752 -0.9891406671425222 -0.7863880998292069
Ni 5.725900187446787 7.621828119259896 10.21696128672169 0.929839972499676 0.32238908273174155 0.4214539446464032
Ni 1.0680956774969013 2.786810276518244 10.304642933360318 0.06354892839623894 0.7950663443294953 1.304167653082238
Ni 3.0651714983444447 0.7207577311586605 13.047045753853672 -0.22204689676655306 -0.24129597480415219 0.5260585054323714
Ni 3.687946860341485 8.662080237229395 10.612534132643226 -1.713868828068087 0.9302444070269462 0.35007626423436483
Ni 1.2490555727225707 2.9137657519460243 2.006733213046898 -0.7715986002248583 -1.7858363195453244 0.4649153582641477
Ni 3.7434759358196725 1.1976542235983618 2.1680947751040476 -2.3714284615669543 0.3722623134131008 2.269984043676523
Ni 8.722350620006072 3.6610236722308485 12.33230297528741 1.0249412217808993 -0.6507510952174663 -2.2008761331352678
Ni 3.745391052101023 6.312660207337265 10.350892061886833 -1.394209485562683 -0.0963844868690211 0.4769324373296818
Ni 7.825936750119364 1.8828196116349325 4.742632075528444 1.31250959728903 1.946452876920538 1.8935264612351517
Ni 1.5289972303149346 1.7023989239059538 6.455448860137705 0.7238359881285985 -1.1115462606656534 -0.29116097795539536
Ni 0.6893061297439179 5.654083326896143 12.065245587861666 -0.8207773759423541 0.23582003929124548 -0.468655027812238
P 4.297846319184784 5.148427551852762 5.210823155900879 -0.146982768641863 0.03326261870787175 -0.03572316443322235
Ni 8.766091504004878 8.035428159264766 6.55319881227489 -0.20789863029062902 -0.9105106760434448 1.5028319092587925
P 4.614389009785289 1.2082431432316543 4.723066280743345 2.6659832956952476 -3.086942302983103 -0.01277735427032638
Ni 5.491419299834055 4.57217278146678 7.033009814201015 0.34842587311513545 0.5692556096451358 -0.7881004545346233
P 2.103690158296708 6.188391472711961 1.8060494794595132 -0.10541908626746362 -0.1826020605073694 0.33226006198855035
P 1.7379401352826676 8.622113805707425 7.028288029932579 -0.9129519384950857 0.8779214292535139 -1.3528440352420184
P -0.26300403451958465 3.573960254877219 6.03841927452026 0.14888204254710488 -0.15406050142425082 2.4520171190542994
Ni 1.166677682581566 7.395983848275195 3.4504240987129373 0.12935657091966754 0.8373170254685901 0.759333152593944
Ni 2.386885654231172 4.664089066290628 3.614900978565624 0.6569479680567977 0.7385180156208055 -0.3023020821738794
Ni 5.392251603847811 5.158533044075228 9.265436692000778 0.5661214348915282 1.0445425409515947 -0.6015862034570413
Ni 4.8065421089077836 0.2050624703277539 8.871579083719578 -0.6458233188985458 1.143733129810843 -0.10148915508543811
Ni 7.781991339139055 6.543571169454664 11.332787054024813 -0.12140183484896512 0.09827553324414688 -1.317644861633066
Ni 2.2629516001210566 7.715919827432462 8.798905998850913 1.0647346996287532 1.5447989977191974 3.006672719398073
Ni 0.07842215238510845 1.3017305671406876 12.266869215895868 1.2992943841503364 0.5692548383141873 -0.16448298230915545
Ni 5.38036114887768 5.932723449151666 12.187854864932497 0.05543864058427871 1.1629153591662487 0.16363220427308595
Ni 0.5602003320060581 4.768509387029119 0.7679923078687854 0.5793752145776409 0.48720065202490925 -0.9950562612960088
Ni 9.202570675895204 7.238488775836559 8.884763636681768 -0.9909430104585837 1.206353889965858 1.4091733059613667
Ni 0.3189839990251777 5.8941143330524 5.551710135308882 -2.6427340953593195 -0.922309982671218 -2.506995275062392
Ni 0.41289256258248863 2.755099297704231 8.133377990042966 -0.6769475511071761 0.8828191236654472 -0.5194816235458021
Ni 2.4217668012584888 6.514556228124106 5.34878032359735 0.3321708447088537 -0.24957826941760244 1.9584964383486334
Ni 6.604473726537806 6.931521666642806 1.5849279224113473 -0.870053853579979 -0.18550997818278372 -0.4811037950985521
Ni 8.350223073841514 5.247809071501487 7.559109920381862 -0.36652566803963976 0.1520025904539576 -0.47330923875479775
Ni 4.357819208170183 7.752734684103084 5.473798370709435 2.5729679824087754 -0.8131630539302059 0.7571790823654185
Ni 4.265010441972502 2.6089554727390363 9.337660747178235 1.9385904434533257 -0.5213667563836569 -2.3362981935227247
Ni 3.2777865922982627 2.6161696971775217 4.504516185653536 -1.6537942313736937 1.4369851859673122 -1.0729555448766488
Ni 1.2559908967317333 8.035641982927247 11.662720683905208 -0.1484187297574412 0.30023620078378616 -0.8220217898724166
Ni 0.8371159199402687 2.938457736622078 4.395568381279038 -0.033227137484245994 -0.6804969590213312 -0.9698275686362071
Ni 3.2029947938348404 3.7244921132637607 1.3096476206610665 -2.376356752106507 0.7295196687769372 0.6093180248836603
Ni 1.3353659589170281 6.310977508080349 7.408852314084153 0.46591628872483626 -1.5130073071298975 0.20660253718702484
Ni 2.6496749354201783 0.9733532016559148 8.586029668161629 -0.8535301448933429 0.4761274249298832 0.7190501367041809
Ni 5.954858846558926 0.8812956072812101 10.657354361303513 -1.493523487373673 0.6029889973418389 0.17845692799074428
Ni 5.008289382798987 3.6195976617954213 2.616786996794423 0.13070845696187167 -1.0447639129337813 2.0726835006167144
P 6.445342438247141 3.234110785066298 9.403611402032121 0.3759824425771654 -0.8461870742647104 -3.3786473263674264
Ni 5.018590105321979 4.995757456841411 0.7966725686841561 2.254149904857744 0.8859841516569902 0.8705027681919395
P 2.5886329281223746 4.6087273310700345 8.201207504122392 0.5185969069480036 0.03146233227433936 0.9041351115344041
Ni 4.233252979753603 7.117148495719145 1.3005991610657344 -0.5717500939322153 0.7558673055325305 -0.6857486943385739
P 3.942331941926894 7.938835643909272 12.560037261514822 -0.3097569957900278 -1.2559281013495598 1.3459123411191916
P 1.4021347216969287 0.6750626848183979 2.608799288498615 0.8610894452978397 -0.35409541269608696 0.7154685900005097
P 7.424673405771544 8.850802861071218 1.3156579249129752 0.8624202482941211 1.0463343427446947 -0.4274435865709348
Ni 8.249521425493995 2.743506336525376 0.7022136416129814 -0.36059541859813377 -0.4165377382917085 1.4832524444649682
Ni 6.077900419295209 8.546940843323927 12.754258872154795 -0.11661572631423142 -1.531237199874363 -0.3833900478951462
Ni 7.852906421634889 9.171120004148559 11.387295353931679 1.2427044035704342 -1.4389276544056637 -0.6957220035012018
Ni 3.8746521044112057 4.075469710204666 12.809120445938802 -1.3846966609762412 -1.3243317867349387 -2.271556016149333
Ni 8.714606484751872 7.471575161302677 13.249797998958535 0.19431163563481374 1.5956947561278 -1.0861365623432973
Ni 5.50858097291839 8.391416667252505 3.4658268397563425 -0.5181783313533463 0.4830925433938067 -0.4551343676179839
Ni 3.0557167737903987 1.702491890715728 11.009357382156228 -0.4277685740105214 -0.7272702106211282 0.09018324315431565
Ni 7.46215762347254 0.02154226916090016 9.020163287441347 0.5337005953586615 0.04106900212616798 -0.24768979414563796
Ni 3.49481760971636 6.913960236276441 3.5469636229868606 0.5839240102905879 -0.01884798594443851 -2.5648510097285957
Ni 8.353300275245044 1.0642933349771324 7.038398170495533 0.02015410635037174 0.34675671294282867 0.03546579700677763
Ni 5.326830859809639 9.353762598631144 1.1911976786595369 0.7839776906155014 -0.5095419958345869 -0.7668770263794727
Ni 6.670554534925377 1.5663327011202923 12.69472943485202 0.43625218600150034 1.1445252866948354 1.0461355964703274
Ni 4.556098820056805 2.213465367278198 0.3969506140423922 2.649925470901436 0.2498148109084407 -0.9233505081205904
Ni 8.498821222584752 0.3257027103675662 3.2846679955577565 0.7871805138235153 -1.5786557983676426 -2.3756250161468055
Ni 7.720698321454861 5.3717710156545335 13.37665307023176 -0.40876683609703796 1.3803792645478097 1.3570832701343467
Ni 6.859463092386749 9.231427573649146 5.314736807526101 -0.8172302820210442 -1.0679056411575674 0.6056254065234216
Ni 2.5818370543278735 5.914799448227182 13.271269613344007 1.1156487128698012 0.5490092006912739 0.0048637558502045266
Ni 0.4776876399908806 0.036105519912043825 5.114760551361098 0.6678245057599854 0.5465651100261554 -0.2912471099112984
Ni 8.477931580428468 4.2715831954235455 9.687664051952705 -0.4112659483698079 1.5185243802933848 0.5957868231664448
Ni 1.252067697359258 5.445326355547958 9.806381738366385 1.0183751385276074 -0.10438010347998797 -0.485198533993216
Ni 0.07651354378044212 5.110255379759436 3.0084264169944093 -0.053770765963552555 -0.19552056834125037 0.6930187456374258
Ni 5.565207056751914 3.836665865937428 11.105651474052348 0.22029057619707865 -0.9803531507578793 2.794221179629439
Ni 5.83323966601219 2.993735801713875 5.265005142305438 -0.5368764219834818 -0.07978467352881098 -1.0910519973670436
Ni 2.016673224347966 8.105915594435638 0.28868797505592975 -0.11520830444374353 -0.532352051750567 1.109103969772748
Ni 7.675358408327935 4.40593882890936 4.64397104865547 -0.631869427821615 0.5291762251257468 -0.008048581336089366
P 6.4532074303540465 3.7773344479394715 13.148592470502042 -1.0979944901231478 -1.401044506206645 0.28672402522996426
Ni 8.920909132322015 7.1692935793215495 1.8334802663515175 -0.018227835861936346 0.01553743351396679 0.7085708344394119
P 8.414509622800441 2.8361477624654636 2.903846193343107 -0.7323769357200741 0.8953668784234708 -0.6467836259292861
Ni 5.933522963715725 1.922228242298257 7.54211558755512 2.814958926397423 -0.7764703264948627 1.2708399854643857
P 7.199210298706918 6.585062256656932 9.090019477973854 -0.1416464440306141 -0.3787494637993412 -0.5618950555150065
P 1.820503959043221 2.733391547621933 12.868798630137217 0.2835016616379247 0.0861016168857743 -0.08809499316671925
P 7.8114246311135975 6.745959914333309 3.8603380047102576 0.40005336748344006 -0.8554885541712944 -0.14304281015750847
Ni 0.24156867718992495 0.32990295083316895 0.7723468732386135 -0.861675913928929 0.0315723754896424 0.8357198561847994
