# total energy = -340868.28640659264 ev
CRYSTAL
PRIMVEC
9.25840731183374 0.00000000000000 0.00000000000000

0.00000000000000 9.25840731183374 0.00000000000000

0.00000000000000 0.00000000000000 13.55061495501980

PRIMCOORD
 96 1
Ni 1.957690197678387 0.8689079944916291 11.818479898870134 -0.5902939183726738 0.5995768863364964 -0.11833579432913167
Ni 3.124953140986499 2.752959599002484 11.38334309409498 1.4690069902895473 1.5731035010908456 -0.20201157538223272
Ni 3.5787539687907373 6.796522641731484 1.6034709457937006 0.4044427548003873 0.09903246601482944 0.005018279150197809
Ni 5.4593123762735285 7.786505604405187 5.604764730553911 -2.8589846971590696 -2.08785840858494 -0.6944675622688105
Ni 2.242710262637144 4.859275007100976 7.601908704578416 -0.5466478995479489 -0.5879254181404971 -1.1566619220573693
Ni 8.193440375077016 0.7097920828987205 7.291762248380693 -1.354856180576041 0.25856607473850957 1.0582616903099
Ni 4.607742600903168 1.2310718855753122 13.04086739851297 -0.29335130073849475 -0.5577105851200137 -0.11266934007197368
Ni 1.2374509281205965 0.29653937516897894 7.85443731538852 1.6586219917796403 0.6228584825722564 1.3537076687938945
Ni 6.584153297894422 1.902371214792937 3.582443444050963 1.6465367784803318 -2.1374717007366932 -2.2747994627872954
Ni 8.177312229773843 4.237535931504407 3.595058949670999 0.39245524342120797 -0.03886505249631371 0.510309727238547
Ni 8.553138752329335 8.35710123875335 9.005155485070473 0.9636975444790693 -0.811973661607795 0.056000683735335816
Ni 0.13080555412560677 8.877220037169886 3.917536678388409 2.861221042688756 -0.2793148772500867 0.6378552130914047
Ni 3.7301844765856185 3.3639126302372873 5.978504408131598 -0.08161427053838204 -0.12651498770581437 0.2654355481648331
Ni 6.70431816465095 6.475552181702569 12.587152673895481 -1.1460836323208907 -1.1694752717719537 -0.6672562919613412
Ni 8.291329514164524 7.389699531185523 0.4391336591536724 0.3457115595077659 1.0260072011515684 0.441996030463813
Ni 5.825500896957262 5.038980690415885 4.998957522028351 -0.08681689778524404 -0.5422155748082081 0.17385979553836511
Ni 5.261913876842454 6.587171538634281 3.3074206071624506 0.6736804503201301 0.889962676688764 0.27082278061867554
Ni 0.44091034749103103 8.080098954410293 6.280709928493196 -0.268484362293486 0.2951168772793498 -0.5678052503518544
Ni 3.3696713595016803 5.100836108768636 4.084588896613854 0.4383844018531547 -0.05973829640089712 -0.3062050167727114
Ni 5.583023212979031 4.418260039608839 7.5594005797044455 2.0190325480604776 -0.07559531803781175 -0.3419796032691594
Ni 1.1826133824083758 2.344386090260242 9.602385705186814 0.2865964985131645 -0.6392238113041573 -0.02851764782371863
Ni 6.77290444502173 3.3454606247325676 1.5546624748354556 -0.7452321944161875 0.7453059850769165 -0.07089482723834886
Ni 6.8992724445871705 9.323771532154156 12.968968460054086 0.17362016872373326 0.6006955733219719 -0.6602844886291983
Ni 7.96450774079944 2.313361167808502 5.548353255621518 0.09918904619735175 0.7378443865925486 -0.61210870025492
P 4.528472118649574 6.666395728851987 13.089433299203163 0.1137034377634429 0.8763934226447616 0.37633365526899704
P 7.132130643507999 6.088772963456116 9.36625280764731 -1.862611259713534 0.6971103992082962 -1.572654072258253
P 9.426447267752422 0.5295531153303887 10.478785602766461 -0.41029612825737083 -0.2531132791540544 -0.49212945678509445
P 5.684958276003099 8.852851909478757 3.7244674101535242 -0.6140609388852843 0.08743241988205587 -1.0245614698439773
P 9.076905363173799 6.211280207228547 6.683840419655797 0.7431022925573783 -1.7911201936520829 2.2517862897215735
P 7.634102963856671 6.509613861708521 2.775572332692764 -1.6194615195300948 -1.0645264402726893 0.282854514972229
P 5.469487365761581 0.48571455734501556 11.083522539422303 0.034326798306327976 -0.6446184999571672 1.0751718358016775
P 1.692566449744037 4.4788377977710985 2.722386486821006 -1.2305988785561517 3.014097551107235 -2.5405283738228315
Ni 7.862998564505537 4.571264476623893 6.171369991408579 0.21553429245901592 -0.5899349923713583 0.720785631338049
Ni 1.82984085296455 4.869468513403382 10.073811762734822 -1.028943143851441 -0.6241080387086413 -1.1761418851588519
Ni 4.382254094095615 2.7006866320784257 3.6202631115302557 -0.7456294298546062 0.6709334837026122 0.3356549466027122
Ni 5.128481712600594 4.579587784676448 13.098904649745727 -0.0567460465417926 -1.0124672576836047 -0.7379914536933742
Ni 3.9954471006276306 3.4145468590909314 8.630928815275249 -2.72820836307374 0.47326655844232035 1.0707857909188399
Ni 2.4865118988417545 8.976646071848855 0.38220556510077636 -0.3877917765072676 -0.29632863819926386 0.653983486111835
Ni 5.8037528984973585 8.306291100163333 1.0561555762933141 -0.19568923270863073 -1.5816439344616888 0.27754930070923167
Ni 2.6444418084752277 4.522630063720584 0.36430165730096337 0.014461169730652515 -0.32771049494465493 1.095157534894985
Ni 4.7433690076460895 8.022372785658698 8.180682289986448 -1.129704676742235 0.4486441319079499 0.580175341881433
Ni 8.672609238547553 1.5084630230198244 12.356385949156047 1.0633452754803945 -1.1304109587806404 -0.16823165071831028
Ni 6.66293308456761 6.609289873381283 7.096782044904375 1.0059381983158353 -0.3771926608351826 2.018769524207078
Ni 0.4807289050799419 1.0297015294650973 5.647286743038646 1.9539887802862672 1.062646449641157 -0.5837697441009108
Ni 2.7604033583731793 7.393680646271841 6.727541027374226 0.5251334225149408 -0.9747378614536308 0.6524048287708055
Ni 3.000131295419698 5.5686634234467585 11.80686707874742 1.5910415736265051 1.1030551924755068 0.8947598409670912
Ni 1.196760228575567 5.3700242974539005 5.21770498256998 0.02788129979130037 1.157589061857329 -1.059547499000859
Ni 7.776913894569317 8.668813291604785 2.646516617523701 -2.812753176995356 0.1965245841257325 -1.7759134040046576
Ni 3.573578519178525 6.219075786071986 8.792790770437 0.5934417199730361 -2.274897164707424 1.236189999490684
Ni 6.233592968526277 5.954794553190786 1.1886693065431664 -1.2977807757192876 -0.17889221575594996 0.7401894897859574
Ni 2.357060849686213 1.6025284399430328 2.063081424101808 -2.163990830073144 1.0317654437915842 -1.8951727385893231
Ni 1.1444687448371536 6.991634314589722 8.492766530806417 -0.316205579628849 -0.8572613298010011 0.08108436617684099
Ni 8.363545090148877 1.5152124018522082 1.2514033477370607 -0.239396186678278 -0.6184384991276898 1.4963036212219714
Ni 6.731232354315887 0.3485827335950359 9.393082745806932 -0.6631543539778256 0.18183098666929973 -0.8076269546033252
Ni 1.9104815794804106 2.950691401091949 3.9437574133557534 -0.5045252593462859 0.5145715878386944 2.69885999181861
Ni 7.921465405831331 6.790273216886685 5.0210582658017175 -0.3814720049368269 -0.776410676901521 -2.114572941761649
P 2.8101487801377854 8.02740010075607 9.472950395323474 0.2557607440792305 1.6093753389386862 0.7164659209167725
P 6.189819219391145 1.288853604769972 1.2163167620565605 -1.1596837396028286 -0.6451697444749469 -0.3982147716128045
P 0.7837760146539723 5.638018151613269 12.138166217823533 0.6895331010816705 -0.29955537266667764 0.3546867664231827
P 4.399039586308389 4.505326100705872 10.408701312114363 -0.18435632419431475 0.36262299055112385 0.4819779701733892
P 4.871347970060412 4.514565991068998 2.1507131738773846 -0.38772158539096446 1.5086102065034666 0.9777797336037484
P 4.278967303623635 5.684023176878173 6.409834155875371 -1.2841189619614788 0.7070402567274985 0.0005101068671991214
P 5.96448810550561 2.8121763713096537 5.277978139136101 -2.5322527640776005 1.0883685369976095 1.5773342513427415
P 0.26464323660183864 9.210198651307996 0.3699465081570736 0.31207124574550127 -0.7199621069954891 -0.9102864758477807
Ni 6.469839744474062 2.399547680223674 11.93601815551041 -0.019296643446082895 -0.015518664460889404 2.0200705024066887
Ni 0.5829741247444549 3.174874472487477 0.6514363424590569 0.9473044478330266 0.364594769565514 -0.005773669258983605
Ni 0.7476154537408842 3.3263790475397785 11.584325522944459 -0.5918265529671163 1.645432746782876 1.6928186922660071
Ni 8.85540722985974 6.232417150814736 10.387725464813062 2.1232141623764145 -0.6591300633097809 0.6495912705814102
Ni 7.2812095158798 -0.2850839479682815 5.207501292019678 1.6796631287206556 2.3793490019656116 0.007658802096838423
Ni 5.301947229477882 7.092930547518543 10.34871331448931 0.6515543078450521 -0.7229978084980193 0.6485965107683088
Ni 0.43949566287431197 6.672719220954207 2.7292701125574634 1.0914944842211007 -0.9598925689106824 0.8016815356531677
Ni 4.307686882688182 2.728489628832402 1.25597144583843 0.9819428638425024 0.16102716255007105 -0.20950197022200695
Ni 1.395732657226814 6.640185178132538 0.5583569459002503 -0.34054621325674256 -0.4584618893293201 -0.7808142052858553
Ni 4.947331717765999 1.6940200196709014 7.529006154781493 1.4792250684731298 -0.6946082016117328 -0.10866407556732254
Ni 6.580542519095204 4.459515501991695 10.709701387861452 -0.035267822063358614 1.1232275536583236 0.382453909234122
Ni 4.507992521972986 0.8282848813189951 5.440070628636569 0.6970656620132898 0.2668555684408114 -1.1912753983661806
Ni 9.127354423883894 4.313751139389432 8.631457470325085 -0.11854019703045392 0.5076216388834226 -0.7884627229700486
Ni 5.602947305224971 2.3290171343456225 9.946692906347288 -1.435335051958399 0.7382015128216511 -1.7390810656676565
Ni 3.405297710320628 1.0009819504005508 9.24506951610126 -0.22498001125294803 -0.820349287266 0.8371519606456356
Ni 3.8517473628259458 8.505541281029906 11.842966534173138 -0.748166337343847 -1.137410787137241 -0.7545637562297586
Ni 0.8527604065333843 3.4731433181172098 6.295777986174546 0.0531488161088375 -1.8106798609515655 0.7801593453106758
Ni 8.052527417835753 2.6362758933446893 10.09356827781085 0.47696586167077853 -0.9105096476021802 -0.6513869290292524
Ni 3.2162132605349307 7.621955933639815 4.483614210033961 -0.19150039143826375 0.203669679810946 -1.6760877526645717
Ni 8.324474611859907 5.076477239484683 1.2660584804582957 2.0510268415788873 -0.5708759188573781 -1.037035691051588
Ni 4.239378354532726 0.3363218249698976 1.993064719822107 0.450947583230146 -0.00991957310655711 1.836377779938302
Ni 1.0289886321124313 7.981321008233746 12.097988434036136 -1.216079344783738 -0.42686817368343904 -0.7531200818046965
Ni 7.529121884871213 7.89110708869637 11.196818593893857 0.425396474233919 2.0824516357470713 -1.1701977517602749
Ni 2.5192959186572152 0.837536807611452 4.034153723514526 0.4301704985837947 -2.5519219603717533 0.6219254292350257
P 1.9997696583000386 8.206596571676217 2.615742597906472 1.012121958529044 0.4880246905881015 -0.26079342140713146
P 2.5175923717365585 9.391265320477995 5.968666424664806 -0.33021552075469585 -0.8873519785387944 1.2133516614399296
P 7.906781572047845 3.443720100107175 13.08418933737784 0.6011293184252808 1.0230879706222444 0.9297124457828763
P 6.164728935940172 8.981932622347196 7.227707958323289 2.6211291154950342 2.431989768089779 -0.8320781456671541
P 2.2474413087048366 2.349589315093986 7.782619850912798 0.30920883659604165 0.7671017407957691 -1.4680685376356781
P 2.6120836753899312 2.2508391441389723 13.621349160045247 -0.9269644507240938 0.09761167440790286 -2.1447263254165776
P 7.5840520146552075 2.8443863698801106 7.772971664793146 0.08182972898329778 0.40904400101782457 0.8264672272382799
P 9.338307231422801 1.8342663715953857 3.4759226919518893 -0.6477616735718393 -0.14035960689839053 -0.02586735468506513
