# total energy = -340856.3640145393 ev
CRYSTAL
PRIMVEC
9.41412806849570 0.00000000000000 0.00000000000000
0.00000000000000 9.41412806849570 0.00000000000000
0.00000000000000 0.00000000000000 13.77852802288817
PRIMCOORD
 96 1
Ni 3.09209863475736 5.968792603209698 2.6268072335427095 -0.054327409797970946 -0.49476098087067044 0.5090308605261233
Ni 6.550698692700804 0.2875441889407779 10.30832346886954 0.8133165487889348 0.7724010415214957 0.7910819057604506
Ni 4.809329751434905 2.6698844011524523 2.4078393197311785 -1.3128752081585648 0.11967919573090358 -1.5209026507175742
Ni 8.186742368173224 7.059193410842468 5.787339990094182 -0.5961339220932185 0.5484199038467071 -0.3466425559624675
Ni 5.350651534451602 8.394286237469167 11.974160977125583 -0.996256195141381 0.3726469504460292 0.33161960019107406
Ni 4.343697558781059 1.0329087269927288 6.108283622901791 -0.8638991468324928 -1.5463311180930077 1.2602313567106038
Ni 3.322321138777695 8.207349894703606 5.137916714891221 -1.2584488108888843 1.1505403825406637 -0.4330172240039704
Ni 1.22029694790971 2.5466440494808014 4.7679904318825 1.8063984599673921 -0.558365187984877 0.27258861426984665
Ni 3.203119448084361 5.869972499971037 13.51938185122666 2.2555771242225737 3.115682094119957 0.7115103766837101
Ni 1.2076161172854865 0.658388349444571 0.2560398090714648 -1.5328505671080699 -3.9866294060484826 -0.8832706093805691
Ni 4.1372551424792015 6.062726773936131 5.2492472530345085 -0.7548072396991323 -1.9794501577821655 0.4487690875215884
Ni 1.804377701004524 3.4966048933034966 2.0671646157243786 0.23803658732659003 0.4215989548646997 0.7430706679884944
Ni 7.511636409951743 6.600753612098724 1.92428168565819 1.0611994327819854 0.8196316923736853 0.8212985385531468
Ni 1.223055287459003 8.695575994928452 3.0807000083877902 -0.16684556900406106 0.7406134646972534 2.256015754421889
Ni 2.736545842615057 2.221301194586556 13.393294667201063 1.6041896809726888 2.5279726486450076 0.8714651321052088
Ni 0.7628023276326856 7.609185605889536 10.785101989258413 -0.433800382026898 1.1495067990698267 -1.1901975919209695
Ni 5.34537020855688 7.820165631961903 9.316117666365967 -1.6545982153322278 0.38347309452725564 0.37433565100236177
Ni 6.161970512941749 6.327828622769197 7.983017810669593 -1.25801609422684 -1.1399525797224883 -3.0734141865896816
Ni 8.908523573785128 0.980914497194965 4.349578564639228 1.4252933514516808 1.5374111898955587 -1.231904998962085
Ni 0.4078567467563529 2.5871153864173553 13.833090726547473 -0.48575260672447307 1.8839745558806589 -0.9512829728648003
Ni 8.49612827584545 9.198779973047241 11.538153162948582 0.3844020340994283 -0.1626559564027457 1.436602605816913
Ni 1.9681176319971918 5.052308399104701 11.572213478611863 -0.10128295261190298 2.1832489069718077 -0.9355051412052533
Ni 2.52228028581674 1.1665422761470392 8.877836340239632 0.6515028857818264 -0.5841831774892454 0.7246188890412101
Ni 8.830536936152559 2.05119731296139 6.7027029715359685 2.8690428527260203 0.8047704589911366 -1.0554530172165113
P 8.692940039045169 6.024881978754705 0.11180595161509352 0.1438118271130491 0.11260609093420608 1.1048665346526327
P 3.8614306016780646 7.855299158234808 7.294752784113636 0.7938332432533425 0.39988753132953714 0.32864560516441466
P 2.5393763425454634 4.751216338336663 4.509009649175543 -1.073317299091442 0.3924935528583111 -1.624825097834853
P 0.151718089339265 8.777271799053926 7.3613436196150825 -0.22229577955256555 0.039892722429879686 -1.1952084148719995
P 3.861383531037292 3.9432205470850845 0.4802448023753906 0.19045575222383326 -0.5422657113198532 0.9948857971564155
P 7.949487510421414 0.5473157584127195 -0.015871278655812043 0.2048223053581505 -1.5229891009329577 -1.5871952032972214
P 0.09802743364804534 2.1336274190829214 2.5378945587739317 0.38809079580492517 -0.36274357528938816 -0.2485683400958493
P 0.9647504391535455 0.9718957624228742 10.966386089479963 0.7754837942118773 -1.0503102966733073 -0.3501050605897712
Ni 4.506947955109689 2.261631319600791 10.550701495163072 0.7266819422178259 -0.8525304999842349 0.1434449306919336
Ni 1.5349171108358852 4.577968137907866 13.727822886935737 -1.902560803523278 -0.7645036410512898 1.0149535144405681
Ni 8.117633253390427 6.618056779646847 11.951660269423314 -0.018954943835948 0.052400110868271045 -0.722777207846781
Ni 7.256146385964506 8.448445716742485 8.119603630413181 1.7069016527216343 0.835639123545535 -1.087104068462889
Ni 7.117570419529039 4.37113974235167 11.516314268455579 0.006807766950452792 -0.8326407030388435 0.4863413893484075
Ni 6.860960114291407 7.890790421377587 0.000364326759582375 0.3482132428836971 0.8345559177836852 0.5728515545265102
Ni 5.439925711741516 2.672190862550325 7.152944006069887 0.33815508731674665 0.955096690183936 0.028741076688434376
Ni 6.521439582396359 4.792713815242067 5.764081445075468 -0.33176461040937055 0.15817786602673406 0.3086334237085459
Ni 9.18579789032207 3.8268054383255072 3.9681058534489098 -0.6318964244048085 0.7678365620792647 -0.6646491933557972
Ni 2.9940693182836835 8.402975477755849 9.769679063900005 0.06275677151224676 -0.9886069061262394 0.2952662583730205
Ni 7.833213613584155 2.344936939640699 0.9452038848661841 -2.4917990269379278 -0.7152377049366262 0.9112578386221145
Ni 2.2669691302644397 2.837380569278799 10.811955789819361 -1.3060242466750025 -0.8884213003435733 0.6634885973887928
Ni 6.014677063835138 0.6445834719186899 1.7912496992929576 0.18617435123966 -0.017982552620349677 -0.3513893266188335
Ni 8.038206254150207 3.231390074932575 8.78597516053284 1.3577507285150163 0.6267269643887271 -0.8972193582511774
Ni 5.102382146758931 7.203540237836694 1.7982218026042418 -0.2248671398241676 0.27480747629803637 -0.4185138881814728
Ni 7.474968380789641 0.2984589291232018 5.942665573342284 -1.6140578320160204 -0.7443875870277051 0.9862862284128627
Ni 2.3263063800227783 6.021379923081201 6.687147066173335 -0.44319750697108184 1.2870173665551963 0.01786299632334988
Ni 5.5794430909924415 8.721643715788494 3.888162959985819 -0.7171400641656617 0.14360999551488815 -1.1461119144556648
Ni 5.822186385458372 6.20395752451119 3.897504599353612 1.269119146118537 -0.12911694410503569 -1.7358977828436684
Ni 5.104330871286929 0.4329444568755021 8.670717989536275 -1.7457993582280966 2.4945519070927165 -2.612388907408559
Ni 3.9964103711584804 4.356199520970346 11.869485286174772 2.354233694955223 -1.2387585315488083 0.22128302201733502
Ni 1.848162811051491 0.8039411262553994 6.169060292854965 -0.6852714975918391 -0.6946261993338618 0.8245121603944381
Ni 0.6580456751797441 6.061907744786683 1.7879152151006041 0.6967021080262841 -0.30028942261922476 -1.1225017312358927
Ni 0.07365708009427548 6.4996647039748074 3.819614927241036 -0.6576833035609254 -0.14783277534698414 1.0014901898468107
P 0.07263564718950317 4.058948424489378 12.0817296296583 -1.1660166237993919 -1.268219260012087 2.9379000807090496
P 0.9611354139421856 7.82215201300252 5.29003208043861 0.9552998073336774 0.0432590677989513 0.14108825753429896
P 3.4694639618338328 8.664914179528974 2.6724836419359326 0.1793832964597556 -0.15576874236460916 0.4266275184275427
P 6.6588481969406565 2.469071633487035 10.365821197986472 -1.5069333330216756 0.9793411645535973 0.2808752797586711
P 7.350899585840387 7.624747159729062 10.138212997354664 0.3662341049411499 0.10250756904762345 0.8581727858716769
P 7.4069889613853945 4.7634547049376215 3.692741663514532 -1.3419687830904115 1.5728900995284587 -0.47452768454293115
P 7.979603306387927 5.031879741009256 7.2957026696444345 0.6954492094557895 -0.17169004158055592 0.3721741245746687
P 2.9560833111799396 7.854517785597977 12.411794611234885 1.5031586964705919 -0.41536608658111046 -0.09578953359749955
Ni 5.130276208480961 6.334860976500671 10.877046013292967 0.33659725591132356 -2.3844359295702158 1.4513249996287523
Ni 4.141406772995373 8.992017476388126 0.5183466032554357 -0.8273717413304202 0.2560744186649074 -0.9457409600006486
Ni 9.356127711022946 0.6159927647132204 9.048745129822015 -0.40375035671905307 0.3593654028457746 0.009441347918557932
Ni 0.4597210615855834 4.442611803301267 6.05536021865517 -0.4111196525999306 0.5641684249302155 0.37394895708690434
Ni 3.023676751329848 3.4989866677266064 6.112320401054476 -0.19666368080675808 -1.2422891704098862 1.6276060030141
Ni 4.721740703084662 3.718665348213808 4.5153199392775605 0.27225102842476984 -0.4559054414560535 -0.2417132648472289
Ni 2.7714063591714786 0.5229990653894308 12.026602378010692 0.14643795188198652 -1.2411596847911335 -1.5682970808411376
Ni 3.183594546291755 1.535463130268851 4.100696317203693 1.0435583226614544 -0.34158082516884397 0.03164693748131969
Ni 2.542963125372359 1.2182823244846293 1.8866383528192732 0.9817739423648059 -0.5271725644321567 0.7269166839364513
Ni 1.1135595628930444 4.711837040266041 8.260874861739305 1.2557298692958245 -1.191997878354502 -1.7302123024231166
Ni 8.672370169027404 2.1915054789773 10.855606277833719 0.3300969928989605 0.9512428636554845 1.5872211714391504
Ni 3.330097208633381 4.2350867622616315 9.28406914988932 0.3589439990376399 0.81758586558825 -0.2811727563944319
Ni 6.038193555965287 4.905523312918438 1.6738018606748222 -1.163519568409151 -1.4859505601224217 -0.6831703920884363
Ni 8.540591203119547 4.266416980760085 1.7792353889420782 0.12850553577328191 1.082221543559607 -0.8768022280474062
Ni 5.920356913854367 4.105717813161347 9.017702042232276 -2.6705981687594393 -0.14442220700353836 0.5965010756246502
Ni 5.750902607071867 3.0334297880979966 13.479547850766172 -0.5566780300904414 -0.7420854212570897 0.2468634415896006
Ni 8.359632831732146 9.29449341399489 2.0618738757015027 0.8588060485803016 0.13790626026189154 -0.6873394358644614
Ni 0.06466093922975563 6.606138493403145 7.732303573895177 -0.29547220373623956 1.2012661910303053 0.7392955172167784
Ni 7.616104990083154 5.560859602015293 9.476141840976021 2.0458103303749544 0.9220011931815476 1.1256734440956548
Ni 5.71900754088414 7.547438339323624 5.820284731571146 0.3342958614716565 0.8763003487103231 2.1668208433227716
Ni 6.905630152384905 2.6394391107005295 3.3459506004456996 0.8483743117240163 -0.19234988392275262 0.3952898846565257
Ni 0.3057831208274676 4.4537298886518295 10.168223355085846 -2.1426020799847225 -0.08573446335434266 -0.1810606841621785
Ni 1.9267990235267256 7.771673457837643 1.2369505406151682 2.2416826256286684 0.36630995248440784 -0.8439003351130626
Ni 1.043706731986036 7.324605925904636 12.982624978952122 -1.2789836976174425 -1.1959512065752949 0.7386134035480894
P 4.188844564766319 4.9473126277966335 7.322461387511021 1.8509466788914122 -0.17137173900918873 0.6812104401485881
P 7.221737747559504 1.541968292823668 7.829524216760373 -2.5106634679425985 -1.9954707015801372 0.41986063201735435
P 1.5863935635851467 2.6888256269994733 7.897066820618248 -0.6362472451743365 -0.1976764383419886 -1.4229191947925495
P 5.575780995140308 6.1715635095312695 13.31952367615612 -0.2708351219138497 -0.39361429672631565 -0.2696169332360324
P 4.806496098860376 0.9814511024997763 12.751284076507021 0.8866618944503053 1.5537423229554144 -0.021671314325846548
P 1.7664011080289348 6.218210514537229 9.653057785733843 1.0229560730300704 -0.19329013634883485 -0.9021353074955559
P 5.554062601487685 1.379452198491096 4.520074073995625 0.3204450716314933 1.2799465757513442 -1.183760320936058
P 7.761421472277302 8.694596925600376 3.996021567665696 -0.7064028802538157 -2.533925523794333 0.40375318493253043
