# total energy = -381165.10416395887 ev
CRYSTAL
PRIMVEC
9.23765175547598 0.00000000000000 0.00000000000000
0.00000000000000 9.23765175547598 0.00000000000000
0.00000000000000 0.00000000000000 13.52023710028633
PRIMCOORD
 96 1
Ni 5.4082109528342555 0.5508772030209473 4.1994263418692945 3.005788259910591 -0.820698957295935 1.1211210488382821
Ni 2.028089499671108 4.159751551200654 9.280372233478577 -1.1744580696985258 -0.30979453389618256 0.49414905831828454
Ni 8.227994923779324 1.7099447720574283 6.607894629256678 1.3658023951748992 -0.6431108050633891 1.3132742433691962
Ni 7.712145972577144 3.37577975682231 12.06965070692078 -0.8232626042580531 0.09718949926881972 1.0512618619532992
Ni 3.962841765666008 3.416268384613563 1.4735569578372478 0.7336547739912332 1.7921041548319072 0.8900899462952477
Ni 8.659725817790735 3.7263486422154326 8.749161991116441 -0.8208380539769605 2.0574337735464954 -1.2632734859710373
Ni 4.386905408692535 2.9245943681432345 4.734638334986431 -1.405509483956534 -0.5306898335567958 -1.0205392360584618
Ni 1.1306978166272368 4.990438150676048 4.780296352718817 -0.1342712346124655 0.009798217037344415 -0.33017361177316684
Ni 8.410392358353427 8.099295959054766 7.242696822546007 -2.1515443767796754 0.5815208001657339 0.03201769055717712
Ni 6.455779141012146 2.024209685919722 0.30424760426228564 -0.17028287682038418 0.6156223698351333 1.2957007532618072
Ni 0.30465867976689676 4.769528945793541 12.64217911820482 -0.005303671601100544 0.47193009901908395 1.87076037118323
Ni 7.022684593652213 5.563994712604206 7.723665324358046 -0.6039647309915469 0.608135831650101 0.7405561290967568
Ni 7.065584248560398 4.447809246937512 1.130180508127052 0.5061913341947992 0.13530610363488313 -0.5442619158142755
Ni 2.281810843708197 1.6836913656730477 1.6783750970684694 -2.0090975483349527 -1.0454457694921544 0.08192331713836859
Ni 6.139491181408057 4.715026800238352 3.335483272188268 -0.8906573887629435 -0.9258172244935282 0.7177473587323574
Ni 0.55879664189967 1.8586617282087825 8.954155645731655 0.024292811109093645 0.11783725742615836 -3.0784334941811435
Ni 9.156517493352178 0.9479216383297842 2.230298002271933 -1.2094173593825301 1.3859832409981485 -1.0277087572237074
Ni 3.27795302437664 8.126288377582268 0.22546613851002817 -0.2345321737177574 0.7613722945111597 -1.1739142813799137
Ni 0.33567317188333606 6.140507323104849 6.7975694859101665 0.89622099889365 -0.9160588595551835 -0.6410061000155605
Ni 7.488992018309905 7.497610747429057 9.230293075599967 0.8834714125374655 1.502886673756128 0.6606614123526429
Ni 5.544835822793789 3.988494724684103 12.900050015425537 -0.839530231069825 -0.06468766998637246 -0.815424596270873
Ni 6.190196652077961 6.075169412001146 10.31337172102001 -1.3670460377740135 -2.4269558052102975 -1.9974964737609147
Ni 5.913445842130858 3.0367025102547216 7.802502216021037 0.8259044127562745 0.5706982556289333 0.4229220445514974
Ni 3.5507685946616228 3.0890984712020155 7.752017525228891 -0.7509063619828293 -0.20329969806603698 -0.513824939480657
P 6.347929556375394 8.582683801870347 5.765569512292304 1.1296018326157835 2.102838684043856 -0.13982584588210759
Ni 9.203223060797438 2.719269081828796 4.416371670369136 -1.0152183380661806 -0.2918682884350651 0.11202527873007158
P 4.510071019995474 7.222153208732416 8.787288551345243 0.5486577308891261 0.29429772381216407 0.40587074549616553
Ni 7.1103591467817555 6.2450775413565 5.244243557344416 0.35165543579602665 0.9625757721698003 -0.41244171384546385
P 5.498222631866418 6.655940579976525 13.42729915270054 0.6395559978325954 1.3727220051128683 1.1825282483011696
P 2.357421023601286 5.1145182895060985 6.502125363802813 -0.009388383193435445 -3.1329833044025657 3.5544580749845753
P 8.768397553436708 9.666925467650628 9.939550742308757 0.2731339452503554 -4.441121254986461 1.1407205682367645
Ni 0.5443923714650588 3.4868902325405835 1.726588249285697 -1.8527467082146283 -0.5784087368993135 0.9546883990019236
Ni 8.961446000523544 9.058635334995772 13.683020448349952 0.9306069325726877 -0.008567687064352987 -0.5926369646835535
Ni 6.082836662986028 6.823142077357698 2.563329205743611 1.8063966601951793 0.4927107832098611 -2.0984858063917984
Ni 1.650990078339934 6.655340132610239 12.938515597474995 -0.3956195000818025 1.2905719166756742 1.3449340363663225
Ni 2.3142904273983738 3.3906339008990463 13.5018904196013 -0.8168957814997608 0.29681766202054044 -1.0233404529526826
Ni 1.9511121473132458 6.394893778070746 10.788960214430126 -0.46247846668788095 -0.9199895620681575 -0.7811643895364224
Ni 4.279148200573674 1.1834817589496691 0.8800941800689407 0.3634722259252966 0.7039734448767166 -1.0235150308573342
Ni 5.681876387083828 2.390103835630821 2.6259946641847525 0.864455276446279 -0.7368059180257053 0.2465536236586657
Ni 3.738080459987482 0.2703842203341141 9.22203184360505 0.37937964118417244 -1.1758063561963041 0.4325533969936744
Ni 5.388488566264708 4.62884874669863 5.575678494586952 0.559772609855365 1.4611527843524512 1.4759790507320063
Ni 6.502844976877177 2.5023320672155656 5.628380221808462 -1.1405588458479194 -0.38649799739650853 -1.8705335998844044
Ni 8.41833673889198 5.230007412172365 10.671928403915095 0.705347699516424 -0.37900785966705053 -1.783048215277226
Ni 8.496357945902002 5.381477188556846 3.454879921561288 -0.1662130776263847 -1.350484019650274 -0.7201024892280954
Ni 2.013891228871392 3.3052872360203356 3.4400895172818964 2.098094998711283 -0.38787610869095784 0.3434111935093634
Ni 1.716411128309739 5.303733111100494 1.345312485580709 1.2701766408487738 0.8614226602675422 0.62051852158517
Ni 3.4731446066785288 8.845162439803424 5.244892040500005 -0.2595394943953723 -0.14707712812788218 -1.1421724701919427
Ni 2.2783005360283712 1.5743914697054209 5.455726662341412 -0.022072149308691016 1.7929922138638152 -0.42109424731413936
Ni 4.351746905983544 8.580743894994656 2.170281902363881 0.7109601606071949 -0.43714744412226003 1.3955045502250223
Ni 5.9018895397427995 0.03143480527283947 8.345271532066766 1.05641743801231 -0.6508943056635499 -0.15023752813373478
Ni 7.201617908805435 5.966359111578336 12.375167564538877 -0.9889933429313806 -1.74978919611378 2.478978478134492
Ni 5.796090713803211 8.957510760861425 0.01696679504088403 0.6477202788109425 -1.7925224733162484 0.533367637499275
Ni 3.5426394610872896 1.0928603948994309 3.5612302353126823 -3.0057057274991137 1.303416119628194 -2.3870206595782566
Ni 3.744842421097041 2.4257888844917863 11.722680810664658 -0.3614269133604937 1.5907644087057182 2.011456792595749
Ni 2.3677856689085606 6.430578826931712 8.57708947994692 -0.5289895630362373 -0.4600243487204336 -1.2374516398119269
Ni 2.804292428894891 6.6755151641174475 5.4090543504425925 0.29114220890231796 0.80859626049513 -0.08722673162915301
P 2.38673209272783 4.351054082099368 11.553367586084516 -0.0948413107516173 -0.2407771261862047 -0.8231296782246146
Ni 7.6316860254948224 7.4019641008055945 0.8024286226527964 -0.37234973092058454 -1.4289900835769778 0.12434291975516006
P 6.415539929819195 3.8906310416312775 10.54417629849891 -1.0958753868976157 0.25420291267380735 -0.6607359743443201
Ni 7.810868757246348 0.3088516499139307 4.365143348607973 0.14667397915219255 0.3312331633859328 1.3717997504089148
P 1.5055340132701025 8.651107088671584 1.699602297114447 -0.04355243066965402 0.6445238833608319 -0.36668533354595556
P 3.1369402698173245 9.259360270719283 11.63373146158823 1.805688578384561 0.030071622574399826 -0.08962094289294242
P -0.1332836113074465 6.086771902648148 8.841964364754066 0.5161983248088401 -0.051698456815556126 0.4571197734791289
Ni 7.550496303921168 1.9999793252771354 9.909238311728283 -2.07261999436863 1.5662512540557025 -0.8380161084181439
Ni 2.237913522406797 7.267796446221939 3.2460193859071933 -0.3585531913571244 0.3459491294398687 -0.3634634841745482
Ni 8.860404565255298 7.311481301532192 11.882395191270835 0.09258002552126636 0.31860441887832874 -0.11246262337780631
Ni 8.86337908913136 2.192344186131586 13.717091679443374 0.21184038854719647 -0.12214771187605417 -1.2210516011873487
Ni 0.9965486373471596 3.2281713188856376 6.783995680371389 0.4730680692782691 0.6454512802711078 0.05313236104860527
Ni 4.300810494018914 7.0019922536448185 11.106766843988328 -0.9852968679163999 1.6871067294828945 -0.22280151554439048
Ni 1.718785204819516 1.220783396873712 12.706143390487497 -0.2606746364410801 0.13826184382909737 0.678136943429587
Ni 3.826401648742255 5.613212921336078 12.920181629969335 -1.727212853475161 -1.5709512306345332 -0.043625449999434546
Ni 4.37963537673458 5.319594159222234 7.604822010327187 -0.6952720604479767 -0.5843803811017161 0.9607315198722098
Ni 7.943318208597247 4.2178194303464025 6.252879662057502 1.0378268194943157 -1.131220084945497 -0.9318639449082404
Ni 4.294418038980917 4.252987170707184 9.978110548406464 0.03841948031846286 1.2617282529711045 0.5387880371838978
Ni 2.2713815348383988 1.7119401048438556 10.185375741596596 1.0829373386797092 -0.12248246950765358 0.6498833479005324
Ni 3.0849230525933806 8.264234231747631 7.332308511255706 1.0634977418978586 -0.29658703406697307 -0.44344047621982335
Ni 5.015721603622582 2.0795062695287663 9.895434488659959 1.2246652866805359 0.7240265068728498 -2.6200777914123843
Ni 0.875805138343301 9.242640120981164 6.466688807774972 0.9050172570290413 0.1263388671392663 -0.9240328788995956
Ni 5.2499792153402165 7.125231766162069 6.53434444571254 -0.8743802488694747 -0.4392845450699208 1.1666498865080166
Ni 8.89517508658915 7.635676691067677 3.11381842738942 -0.3765591410162418 0.297122594855469 -1.4532906079955552
Ni 4.579177893029096 1.0942368050159943 6.687433582455635 0.2442846251188309 0.54053587311294 -0.1670188613571317
Ni 6.613447381747054 7.978338146529403 11.352483762750236 -0.02488647882903456 1.8740249008671144 1.021505456626473
Ni 1.1900589670234478 8.659882857871148 11.155277448593163 -0.46145491051937304 0.6840923896820734 -0.012890225699106833
Ni 4.7258625657868665 7.1749395704387595 4.17062796241704 -0.34570821707365623 -0.35658655454905686 0.5355060239985164
Ni 5.265396856176082 0.7899762680412039 11.57716285332784 -1.6104698575544458 -2.0124212133915473 0.4243338372973596
Ni 0.5085031704995562 3.046152628034884 11.148570913394337 1.1082135967479947 -0.7412832370707685 -0.6859713518723412
Ni 0.9314601428417593 0.27666951861135997 3.9752737974436645 2.2455595920855713 -0.8452468218386282 2.040220752102319
Ni 6.938779002452588 -0.04724966513563332 2.2903556716130358 -0.8782883256746293 0.28050941177882016 -0.9795975035387774
P 7.778878769100989 3.177604412992569 2.7431613444159044 -0.19462633866175513 -0.5879076775286842 0.7108290343459694
Ni 7.314631340792245 1.0803618520288936 12.026777841202781 3.0997181145915325 -1.649900295635926 0.055855159296407025
P 2.361263886745516 1.2730130800888035 7.559691462511954 -0.1231087902377428 -0.2808117735105874 1.2514628664893543
Ni 3.76689269591742 6.205475728136992 1.7354979644362019 1.9875277925839767 0.2384127397190862 -0.15364449693275473
P 8.918684910392194 5.622644563812663 1.2293448525517712 -0.7284441763245714 1.0098642728431189 -0.2755271280728803
P 3.4017467960012313 5.031287046887072 3.4748766663889694 0.12920281895062263 -0.3480600051352844 0.631325639503003
P -0.24575664066459982 7.562662291327301 5.219271413263172 0.5896876522472425 0.18241436997659552 -0.5456279429238667
Ni 1.4642786603803608 8.692630333463205 8.815397801974038 -1.9298386654026252 0.5007693918482795 0.6135726863949562
