# total energy = -340863.61185819824 ev
CRYSTAL
PRIMVEC
9.28605632469653 0.00000000000000 0.00000000000000
0.00000000000000 9.28605632469653 0.00000000000000
0.00000000000000 0.00000000000000 13.59108208015072
PRIMCOORD
 96 1
Ni 1.490161289752934 2.5757291127261897 13.653600379771516 0.8727956779911743 0.06937093439465472 -1.1053267621185028
Ni 5.457860934423283 9.228454751095802 10.458025161324947 1.3315732987887003 -0.7879060791356302 -1.3438829693939889
Ni 1.3936605941648132 5.15627768859809 3.336760416264292 0.38194560213913575 -1.0700748808947442 1.8371817638968362
Ni 2.7607909258878194 3.883001526458335 8.519597154078278 0.665152615354777 -0.10951228250023075 0.257441217105447
Ni 5.149675302670151 4.014687088826998 1.3337395309920819 -0.3731894532130605 1.0245460432250098 0.7639552247469876
Ni 9.034933340774742 1.3446487897658428 5.751949404323804 2.323998293109449 -0.29221615869278705 0.2589075172383283
Ni 4.261129733189308 5.4969552308461065 6.449946958665202 -0.25480609347544503 -0.4519891371207829 0.21601791696365377
Ni 5.573862347942028 1.5139521656282964 0.7021001339517541 -1.2079322901965714 -0.3775006789939047 -0.5881195364291743
Ni 6.6421023901255 6.939098324208917 10.470514906856705 -0.3354153197880804 0.5332861335290622 -2.9105458570658134
Ni 3.769265910642005 1.4399330119973388 2.558099535111289 -1.123110311354169 0.519601436953118 -0.41199048524065823
Ni 8.67592512367194 4.162446814404189 13.079731395297857 -0.8506751919430511 -0.28616172496859105 0.3306929746117466
Ni 7.117892049464274 0.4917384607891779 5.140473749623744 -1.7807295944463783 -1.079315939877038 -2.043588897243603
Ni 0.9744323028810088 5.979830151033008 11.66054993299555 -0.9897705874170373 0.26229211743984504 -1.0228642846472125
Ni 9.12219441048621 8.266605054308124 5.040347777711757 -0.025019919083105295 1.4180297279107321 1.0398819022511316
Ni 7.618939781551285 3.7853122156820618 1.9022625329359029 -0.010363088401878927 -0.8306113313136404 -0.33334583885356145
Ni 3.2387349502551195 5.34282527074491 11.697857592213683 -0.8908119120629369 2.932369123588492 -0.8576238553467423
Ni 7.933477075716107 3.5483506346564977 10.850902411050784 0.9356185268546662 -0.09212905402677682 2.0115146424168775
Ni 4.62728821353334 7.969014812630632 6.226155791087734 0.39948412524353133 -1.8499591181671622 1.0724603504077852
Ni 8.640433817038202 5.860170031388231 1.8848929648934105 0.5669033073628753 0.4925099800529647 -1.5046111126464021
Ni 2.483239993398083 1.278903512171165 10.045548761473219 0.367373874972548 -0.48021367918411495 0.4886471546634488
Ni 2.1163200564491405 1.8436628755543751 7.337105191356122 0.5582451174672451 -1.069615167649506 -0.7475320461939577
Ni 0.22103228029309097 3.333332004330965 4.812642537463931 -2.048119181013789 1.7824062108178529 -1.2954714108598204
Ni 7.2917363067877154 8.216061050643175 12.20044216659475 0.28549606636013414 -0.344220062563904 -1.4832439598245357
Ni 6.456557702043684 3.345329588886378 9.274798671560738 -0.23317668813112744 0.3303695298340569 -4.87590842640666
P 2.9573674486846753 8.209272943592087 3.1451120034701896 -1.4178299531951002 0.5634734557457198 -0.3744585497334712
P 7.616478976669564 8.58061304327197 9.386912013366365 0.5117598294215122 -0.8527809254321442 3.0603365274701164
P 4.676318590044626 2.718344363192159 7.068626735732205 -0.2383680025240798 1.5361408078235672 -1.3449965141731415
P 6.331233088142867 0.3484406851956363 2.383250526511612 -0.12839703521987564 -0.45864469476408753 2.441965134134936
P 3.3635116868426462 8.691507125904124 10.897315976936904 -1.3245840119550607 -2.286284837719075 -1.9708894126963474
P 9.161400139582923 0.9302678197962223 7.868203529774227 1.1307187198290463 0.8011477746368847 1.2555470638610573
P 3.4336585550559513 1.4595358765456956 0.19143019047440243 0.8190650212369378 1.349264031200244 0.03307004308109143
P 5.998866566155761 5.715530420679939 2.842846232517426 3.706058030683476 -1.3950142408521653 -1.911697989937856
Ni 0.7123992988359712 3.856499122185 7.083073981901951 2.1626566846427533 -0.43483525104931564 -0.7091737581307336
Ni 5.906841749635527 2.374732427198392 2.9451878574285764 1.9623960305133556 0.4025799905600357 0.35241134012544467
Ni 4.784361853436445 7.2025437373955015 11.794178138312349 -0.6591310917510455 0.4726039851576571 -0.7754300581558066
Ni 1.3272838647514293 2.8476248370160446 2.703510817086264 -0.14441552213531905 -0.9084517366318872 -0.9231908426142746
Ni 7.49956752964739 8.962669251757543 7.4122089563462685 -0.21669231732285907 -0.5098045054673543 -1.6297785851853868
Ni 7.396910178826886 2.16660405054168 7.3433565643613115 -0.7184855224499627 1.0321480239419838 -0.22129793441567047
Ni 4.3565996765439525 8.640071660848063 1.4780169855102334 0.7342422710635871 -0.7204683572079462 -0.4470744734279849
Ni 7.092457541649044 4.965894965258248 6.408711297692472 -0.1556260461391578 -1.2121738390817447 -0.545996382006879
Ni 1.549582763104395 3.7045699573931175 11.380152824293559 0.15322566422778128 -1.0818908996930658 0.43508079140121847
Ni 5.684236411429365 4.818014520951008 10.66114371068472 -1.6625053859944465 0.7775931272453962 1.3845956166220026
Ni 4.545923789481848 2.0049059546721706 4.6270161320879275 0.21167120995918387 -1.2121769244055383 2.7291331888808545
Ni 2.5734818871360887 7.018113376052577 5.029325229052875 -0.8132766966899349 -0.3844313446754669 0.39423830346355976
Ni 1.288375289451754 0.55849963292748 3.5659597829478513 0.6349208130534291 -0.4601727013728397 0.7433450046958037
Ni 5.9791336968212 6.538200707779899 4.786289638694729 0.030023285834967647 1.3044134505444567 2.1942046346523627
Ni 5.481883961702581 0.7100062821641988 6.686241800858662 -0.7776399213229317 0.6804915597046926 0.02067552607148052
Ni 0.07387336254928564 0.023815948226987405 13.200854997393046 1.4416044299068784 3.71254620951098 -1.297684102240423
Ni 4.744524672521026 8.801259023628912 4.03975851184647 4.285155309009381 -0.6472183994738596 -2.2716920275065653
Ni 4.260228985742036 1.3882932537058128 8.535947113154682 0.20249442855592223 -0.41520256442005266 1.8086008669353497
Ni 8.599565883889309 6.308315101546305 8.066823913531335 -0.33160443068242246 0.5829858147470346 0.2611654600345696
Ni 0.7970203427818784 2.3827927239430506 9.234270608067206 -2.036882945978337 0.40832820589772256 -0.7724038697349729
Ni 8.366328011382876 1.5948894310965467 3.2293903919438876 -0.15046224255003118 -0.05003778128368156 -0.5800316172147171
Ni 9.299520938868692 8.555717126713875 1.8335726469337006 0.43013347469827207 -0.2605982746771899 0.8964940500493787
Ni 5.151198215879971 4.160719607958905 4.647185446061888 1.4578563729893668 0.9432248784470143 0.24103423650233324
Ni 7.6150767821897904 1.4765293593138116 9.792890959724733 0.85474370558547 -1.7451018179404398 0.17006818970641677
P 7.757079152949369 5.734334684398756 11.671871492662701 1.6623948285585113 -0.7607824834459608 0.2058206647156778
P 8.309887362057953 4.150449229848776 8.052335808714497 -3.746604841757586 -0.2101257198489349 1.816113630372627
P 1.1242628189813098 6.585531736014373 9.366456688862755 0.579581417051176 1.9197193175804357 0.5032011412182237
P 7.223604512760575 2.6753777813516826 5.095867250265862 -0.028134810563003158 1.1124877986433162 -0.9280360865217178
P 7.496363840273072 7.082075730865027 6.336827936977725 -0.06893770351197805 0.3058692306998474 -1.0450205090292777
P 1.4724527806606953 9.18775396695774 6.37234153014624 -0.22146299923862503 -0.8426626060512198 0.23056881819463518
P 5.763075028206034 7.674739693001345 13.6561828319889 -0.5456215151659635 -1.0308817556350505 -0.1721782940708841
P 4.932706600551556 7.644987169072906 8.384868551106821 0.7035445848694142 -0.7871918266774249 0.361101668810591
Ni 3.203661516148467 0.15382444885361604 5.269751437630781 -2.613781931101344 1.740222121250635 1.1737898399869076
Ni 7.357184430585355 9.060274988028398 0.639214033047952 -0.6459459605193392 -0.038886649762868514 1.6886805017279174
Ni 7.843708770842131 5.256892107063957 4.115107428719173 -0.1686944492873417 -1.1840158885902898 -1.466070533369043
Ni 9.158280024714024 7.19028614326768 13.297690919608451 -1.0919290006553581 -1.7514858670899125 0.8420218871434272
Ni 4.1965544986704675 3.656644621564568 12.56403119520002 1.055536320958937 -2.465620568770347 2.9486480632541734
Ni 7.17373839119512 1.3044308805479685 12.335062122709164 0.6318586291883376 1.1755047657954854 -0.4855613166492734
Ni 1.834525396295454 6.79897173679314 1.8256219256517001 0.48167406577972527 1.0753392146174772 -1.0730643025403712
Ni 6.045965442986298 5.5970124859425265 8.433809781478995 -0.8329343230198623 0.850784978048038 -0.2861817795732491
Ni 2.6182963941518964 4.35744470765428 1.2556939434112582 0.5568230403087377 0.7629874615170794 0.11473342168985401
Ni 3.380273018206826 6.174670181328422 9.323577395950158 1.3077959938634445 0.010049413816202047 1.2722474073348733
Ni 2.140770242311681 0.3374506377333055 1.1884953980279407 -2.3933538008851363 -1.3888451359269758 0.6774414600244592
Ni 0.11910945651464083 5.991363432780549 5.642528090198221 1.219582729951306 -0.740338613769312 0.43947352115227534
Ni 2.964276274465811 8.408681713516962 8.167194108720262 -1.0212627444880478 0.6523726899812894 0.04943871424710195
Ni 2.1005244749253342 7.954937151495952 12.431260092866552 0.2743750167463081 0.015485497230108817 0.6274162771462679
Ni 6.01606434215934 5.376979385291977 12.980108727629604 0.3568081836415597 0.2871305166397635 0.6630594802711742
Ni 0.5550953647401623 8.772741545169414 10.361704615226282 -0.3124772229346683 -0.01120666734909683 0.12689062587767824
Ni 0.296202904887571 4.66269594566166 9.681362639457026 0.4726263537551603 0.618794854025844 -0.6242399363008152
Ni 5.432556431394257 2.3155431052508666 10.874795433543879 0.6657799645261309 0.8421892659592269 0.035015853953552604
Ni 4.174695122475853 6.151780052900332 3.4471744097931056 -3.5040135451807783 0.42977377736600825 -0.7704698859370537
Ni 3.8301545808663415 6.312595973434885 0.09874606396698977 -0.18057885942975352 -0.03252162677678916 2.028505006327287
Ni 2.099985883668203 6.129047787426918 7.471031479075575 -1.0995271247175902 -0.41234838280070923 -1.6951859069466033
Ni 7.45788242355664 7.711057458633094 3.101593829893961 -1.3365159875059562 0.3395013169319959 0.1287533901180299
Ni 2.338656099026736 2.6956771001118476 4.949246923779189 1.346768775582216 -3.168232871633479 -0.8446876069010485
Ni 3.9760478091558875 1.047309271604601 11.803962855685443 -0.24604994454936982 1.619980111037726 2.965578777571241
P 3.565232684750724 3.646494962184485 10.517988940356004 0.7801485466773984 -1.0282885409865774 -1.8037972748991191
P 6.409598116055507 3.185377271574467 13.32355537182377 0.9949243637038347 0.683859447735661 -0.7752207703584778
P 0.2143175330856458 6.913310946259704 3.554679081927793 0.07840964755815528 -0.15989844826226657 -1.0142855418392662
P 2.1411509706141363 4.546397378345877 5.534778266180978 -0.18520427401690684 4.4603829314295504 1.5283750478352194
P 3.634645954527591 3.7132617059564814 3.1963236745728576 -0.5973490254472422 -0.6880701433828988 -0.8963963481292497
P 0.9834583494660409 5.361545959958311 0.19183134810040386 1.3057113434202738 0.10897595038078652 0.9653903588004599
P 9.136318501901679 1.9209878651773815 1.0776737466338155 -1.0987043717059788 -0.6723049101288422 1.5772499191590514
P 0.36387411052930224 1.9077366630407142 11.355199334187285 -1.0535501437668435 -1.41271088680098 0.5120639909254923
