# total energy = -340890.3458454092 ev
CRYSTAL
PRIMVEC
9.04620030870474 0.00000000000000 0.00000000000000

0.00000000000000 9.04620030870474 0.00000000000000

0.00000000000000 0.00000000000000 13.24002855572906

PRIMCOORD
 96 1
Ni 6.382392792254156 1.9090015437460899 11.292181786425617 -0.5051037575575752 -0.2561127281020106 0.3825881208191411
Ni 4.6164207204651975 0.586496823106233 5.766575424937725 -0.010839770927981331 -0.8190387959846928 0.5096870060528835
Ni 2.587358007165313 1.5579908821256614 4.640524320998356 0.7740288069329057 0.34980038486515885 0.38888012447543996
Ni 3.4327435117720935 4.1503966690235705 4.8911447754817114 -1.806969501979514 1.4467551208698826 0.06647355824220164
Ni 4.975319668692837 4.864693685986889 2.49655315380003 -0.06466118762381122 -0.9349143016987899 0.1930070578907773
Ni 7.0028626203528 6.0501620423270435 2.7346618087347228 1.7115718045037944 0.46816831798380654 -0.5916751149909165
Ni 5.034418494845259 4.382087949509691 11.498157433496234 -0.1212740510218492 0.6547177931746982 0.6190401372674306
Ni 5.520588434216082 7.812949851632356 12.603223162124353 -0.20157423073449798 0.4827657561820073 0.2599896945589135
Ni 2.1225009155543404 6.444540187886658 0.3940235345103005 -0.01649748343439094 -0.07574187091800504 -1.3835430069877719
Ni 2.5864443409413123 1.5257773630794695 0.07360712209352874 1.1311151839365163 1.0630997351284919 1.1331162735269453
Ni 0.847578303544381 -0.04218333632808154 4.7326481103582845 -1.711243731740414 -0.4290996341171191 -0.48563716419253133
Ni 8.286219909464323 2.29730064274602 1.69448537903113 2.4124077321927935 0.5824584814886549 -1.8212702348729022
Ni 7.068764189083917 0.778929403801096 5.027172488454919 -0.055029835181634255 -1.0952241264668623 -0.2575188644209178
Ni 0.9934265714955568 7.378886025630269 2.1731252613241523 -1.1942977301322721 0.182207396172112 1.6714458830171857
Ni 7.631917292476952 3.93014883183805 3.82836731910443 0.8408569203010485 -0.06057930424495373 0.09793974717128294
Ni 7.62399282106879 3.6323660124158224 12.446275206481609 -0.4672036400776921 0.7086045158908248 1.0256022524036659
Ni 8.191759486583015 8.406054924012176 7.259123380684316 -1.237178074435566 2.146561835963419 -1.160082517703144
Ni 6.787789209703202 0.8676771512323421 0.32510867648002917 0.14629628409779966 -0.674240179478342 0.43261381791796466
Ni 2.031161431755014 6.3828360560658 9.195809011017618 0.4546443153554428 1.793298175140008 0.1790508528210013
Ni -0.08961256417396336 4.692191693655567 1.205500262146357 0.38451284864567975 0.5375302535173969 0.5856623331379333
Ni 6.372650034598231 2.103069677443916 6.884179187095197 -1.2307891401900868 0.09113480843430756 1.799030449638095
Ni 3.2148929176495438 4.242559357044521 0.2745467494918569 1.6482193083890773 0.010095436562789065 -0.6858193996755093
Ni 5.956642424270448 5.644195714263026 4.857871946387693 -0.8034561110550873 0.9776118405673164 -0.4248871386976682
Ni 5.276467674603462 2.9843324121931274 9.291084496540336 -0.4718984744502002 0.12833121497894673 -0.3073314170676707
P -0.08065501669866446 5.639428366737797 12.435193611190513 1.331586668525139 0.018325023561432955 0.45318598564236146
P 4.131037800515047 6.052477869587875 12.605685537829036 -0.41347015510997825 0.420591853756424 0.05190311662719448
P 2.551100836612901 8.55181634844107 1.2447589619376136 -0.013213670476796597 0.47099781701280174 0.06568962888832558
P 6.47656373672786 7.942391930832571 5.763490670656694 -0.016218261631075294 -0.897114714352513 0.6279271553444153
P 4.757659044775278 1.1310373695103488 12.646517371841616 -0.008395680262862961 -0.25753506237083384 -0.3685501546688362
P 4.050707542404914 6.098450659195499 8.26939035854224 0.09390465786996086 0.7041156268815356 0.043192733337390134
P 4.699519115848045 1.2090065693584615 3.6221537569675646 -1.3090558344124745 0.2186126742740235 0.9923648305067748
P 0.41087751017302454 5.539648778116763 3.3590350722359026 -1.0231275656109282 0.3572768957478621 0.38124600496894984
Ni 1.3063798687162858 1.0552483039195042 2.4844782857228447 0.41637935833697326 0.49850167886002533 -0.09781042068227026
Ni 1.8694334639067065 6.440487490180201 4.750151603198071 0.6503109223562542 -0.045647108415153646 -0.23561640792087163
Ni 5.896069067479294 5.606418782070693 9.492147152261895 -0.5290774947643534 1.0445163156993493 -1.601960534531854
Ni 8.592822774118238 2.3657622861443857 10.299047407197737 -0.3059322227272989 1.2551225747291288 -0.9060364423221751
Ni 2.248188821655939 5.120936353917929 6.801826198611929 0.5147302249037458 -0.274476832431495 0.6147841902045541
Ni 0.5524586854721113 8.896811286903477 8.996678623666815 0.5136439338181025 -0.17229270816156134 1.6402799989373429
Ni 1.4195568798892455 1.1558963277633496 11.098413986575682 -0.08453298684707378 -0.14859407899304083 1.1226881362150858
Ni 4.13224999134689 7.0737576916150875 1.8853538717049076 0.5041748179854026 -0.6980110566456946 -1.5803388424970204
Ni 5.981121442113468 7.753344438266629 7.949538429020296 -2.482616846218028 0.9300032375504177 1.2404878555350893
Ni 5.313023369763715 3.133079082700439 4.700475299213162 1.6553294370712974 -1.37543349050676 0.38097089693069225
Ni 1.099448038280553 7.396924148904099 6.96111712011622 0.7251652484629834 -0.2871220319993313 -0.5344683267626215
Ni 4.931391320338917 4.5134930541614695 6.972146247445935 0.5055513866179552 0.9547830155982587 0.38162909933998146
Ni 8.249564706101456 6.928041498187381 9.299888258611595 -0.2531539025840027 0.08762242440567491 -0.20399672413306158
Ni 4.6086228958603614 0.2272441684493019 10.609870324262504 0.3941470293013341 0.23548862409375573 -0.9534301011147903
Ni 8.395470869734153 6.945889651256221 4.794267207896909 -0.32477943734078907 0.5429748215717358 -0.2854934952569728
Ni 7.205325627871144 6.2373822024449845 6.9592499843871725 1.0750206549357937 -1.4633850161170796 -0.2782913210815788
Ni 2.576140718870654 5.242969595123527 2.521153390726235 -1.2870412778145965 0.25328091508017025 0.13964586866081755
Ni 2.3268364865218736 5.067961805326382 11.304084776698287 2.1701352524079853 1.1067884342656937 1.126713198214079
Ni 1.1855859569432436 3.4658978356429984 3.659451240547303 -0.5627568892946695 -0.06337177938842634 0.23215236063167116
Ni 3.513444664091969 2.982930251156295 2.7559384716936233 -0.23331012838519818 -1.1085910346920715 -0.4537709116115539
Ni 1.0939660409365506 3.1281489035709322 8.256217281756207 -1.7250197024785838 0.7790632840330196 -1.1337855316798282
Ni 3.6287837171217223 2.6637712605725534 7.126365869097012 0.23322759597372092 -1.1312383397779422 -0.843798776538192
Ni 4.1657299784263495 6.944008041606794 6.2715895040235505 0.4497841590496641 -0.005226538506261966 -0.7739760993180993
Ni 0.8872820763873289 7.443313063722653 11.434869312013767 -0.21169255011542248 -0.803713478481532 -0.15670436680500108
P 9.525106078207669 5.604853789429584 8.031374879469995 -1.8206326012889031 -1.0895548439962268 -0.7613051887186502
P 8.45519388370297 1.5828860251796126 8.236939829049822 0.11649128492122518 0.14563962435040725 -1.7050584288653086
P 1.8166127007191986 3.285100477693772 10.239599397716143 -0.7493331039584386 -1.2488912491074362 1.3947062226934432
P 3.9809794309732798 6.283572100858312 3.971068413992935 0.09456800248557262 -0.7131224583658364 0.057199332029127296
P 6.855472879881132 3.985194960284014 10.441854342629021 1.0616853712794685 -0.7360204460099323 -0.11103051891697006
P 6.439239114547409 7.715115196062413 10.253952099013164 -1.875371644702996 0.7656842916229522 -0.5430216156492713
P 2.6216069212649713 8.389219945369952 5.696562358198605 -0.11084642793062201 1.213810089133587 1.025176220609841
P 6.800282012231365 3.917692214110837 1.6909501239782654 0.025156958881601837 -0.10709904507304781 0.08744244718438489
Ni 5.080192268047655 2.7423736944373003 0.8991081739579795 0.5444051262603592 0.4432990655459527 -0.469498863869772
Ni 1.4023148222363269 0.9519135586050834 7.112437434591136 -0.2898170623329912 0.8085690068016202 -1.6202125387635062
Ni 6.741753096693914 0.6784785871224309 9.168732829086375 0.6325134891635171 -0.3633536980695613 0.8403591547290237
Ni 2.7909698821138367 1.5703479916502607 9.08236785079772 0.22503580419154792 0.31406153670265263 1.3119568101093535
Ni 6.571232222214634 1.8368942816519598 2.9948676169898687 -1.3544239781346288 0.26687947970021136 -0.9782121931554766
Ni 4.033320745548194 6.833951969515816 10.464190315635749 0.504339368587725 0.33225903354728586 0.286363556566752
Ni 8.120068349699816 7.252628208913699 0.587187048184364 0.3738954781411496 -0.0371670959686005 -0.6886285869895302
Ni 7.362168647591133 4.13560613163505 8.248193302145431 1.6059593712786018 -0.736765294595757 0.3306472089754757
Ni 2.98840320230006 8.360950569627365 12.219235482157677 0.8037391895131448 -0.03672949421054965 1.173364322413715
Ni 9.380366874405626 5.078337796998941 10.278909660848754 -1.9601306315179468 -1.3296683684565034 -0.35305205903323716
Ni 8.360453028614296 2.4975021002049576 5.883630542152555 2.3302532728802254 0.25112915884449005 0.6441292190255745
Ni 3.6416021828584406 2.6000679184991795 11.338641261606027 -0.4336258041222467 -0.48496302094364224 -0.17488180904497624
Ni 0.9192024985458218 3.3340132823786246 12.29512767443123 0.6631695234864772 0.2030659847886761 0.9869989382091712
Ni 3.154057221051498 8.581116991010747 8.062091252376861 1.1661711470993852 -1.4417895493344912 -0.5189445200954095
Ni 5.655376817756734 7.979264243001141 3.7429295763401313 -0.1307010007627039 0.4101207790217711 0.17672554712193436
Ni 3.1843529456473125 8.503446315770477 3.5065550779909924 -0.4775307330353131 0.33483630735615877 0.4507781475318172
Ni 3.169897117667584 4.240116882980362 8.947359644591293 1.441969012335149 -0.09391622783418666 0.17502373393947923
Ni 7.099629824294703 6.1649402309420624 11.53150896453232 0.5803553191027231 -0.9419547534853391 -0.2553282845275022
Ni 0.7192751409540842 9.242321858779427 0.20819015688878673 -1.4093483980866501 -1.5782472500753142 0.17567422303928454
Ni 4.634169365331423 0.4255974871996923 1.5659117350537282 -0.1315332668560122 -0.4846470323651201 -0.18619337740305353
Ni 6.238639624278015 5.518942025772834 0.31751710524061205 -1.061788986736868 0.17277119045987666 0.9172420812300074
Ni 7.881827620241654 8.63994443115604 11.5117810110541 0.18611624430821497 0.6940970663032691 0.15172465420222256
Ni -0.03822471910409568 4.824311448126118 5.885192820933593 1.0190443966804903 0.35281243221860525 0.0837158902624171
Ni 8.019203217050269 8.876801091977844 2.568340180405748 -0.025707432068433147 -0.18918485593120965 0.09932274356173862
P 8.657892092427494 1.7759952616522505 3.838177923262137 0.4989025138428699 -0.8691989617788515 -0.5056948541743548
P 1.7657006857818303 3.2774654846932143 1.324930006923565 -1.4063170674594943 -1.3923289807105181 1.1434114848053663
P 4.830652834492695 1.0874618229656963 8.386154188109419 -0.646245236927313 -0.3743785884251552 -1.7183638877249632
P 8.518444915764464 1.5494331767008656 12.363101727636788 -0.4870916372508708 0.3744850320960325 0.17240892202445146
P 6.2446824860367505 7.758898805212532 1.5774962990780341 0.6462331527424547 0.5986947408418593 -0.5856710748886816
P 1.7780577953064296 3.003510356696898 6.063191284529298 -0.6153675735118499 0.679428665657817 -0.6683186717875844
P 6.904204760561233 4.227370786845544 6.09306093309392 -0.00020903068701254323 -1.5514771810703216 -0.5469019245402839
P 2.3982019601965185 8.568072370268089 10.165468500628856 0.4106851361656733 -0.9856879327072315 -0.6072475155078768
