# total energy = -340892.69298210036 ev
CRYSTAL
PRIMVEC
9.08922192753242 0.00000000000000 0.00000000000000

0.00000000000000 9.08922192753242 0.00000000000000

0.00000000000000 0.00000000000000 13.30299504358023

PRIMCOORD
 96 1
Ni 6.208320247295645 2.076669043515801 11.423573933163253 1.5776659236505475 -0.8515105433601529 1.5657676295510647
Ni 4.520824414253662 0.07249108858943727 6.084749549947518 0.4204429868833856 0.6148456395701088 -0.4659301726819073
Ni 2.6750852294040053 1.534278820898275 4.613918041932269 0.9290444731815741 0.5331496079511979 1.7193702175022907
Ni 3.4099397239645235 4.289040168736862 5.031697760225978 0.5868807789260667 0.4998000859564747 -0.583114627015415
Ni 5.107760912988902 4.866951070209321 2.345663654223034 0.41720776777553953 -1.2396162515634135 0.3007943872801014
Ni 7.609269273382503 6.684077384783817 2.5815525923117093 0.5904774951383895 -2.7721171486415486 -0.5476223476460763
Ni 5.241799667101928 4.561771358532442 11.461700491912687 -0.37737675182153074 0.5601397633867966 0.33479208438178465
Ni 5.590044111740596 7.533610590990367 12.486630229337104 -0.05475215604021539 1.4044000529424394 -0.261716190331717
Ni 1.5451858870768622 6.706109658464563 0.6176807915261343 0.5701241282930182 -1.0713504051730582 0.12379707455401906
Ni 2.6528893497305797 1.9196981827622956 0.2853815687183792 0.0047375146849853896 -0.8561169317839127 -0.19823899571367792
Ni 0.7356534371580999 0.019170986653230655 4.803538296369195 0.1588872333889328 0.4486577587547047 -0.34411850398903315
Ni 8.82603430860028 2.294274103000437 1.370594660911849 -0.31034115042827204 -0.7779636232109376 0.10941638035231478
Ni 6.788258045232959 0.881638155503223 4.804935309762236 -0.5448031330297263 -0.6939919081839726 0.5744186419033139
Ni 0.9419251459610023 7.515632110239329 2.9614193485686475 -0.45067993139105617 0.42855610290882323 -1.0443769619080079
Ni 7.568404132100061 3.5802717407867983 3.7519098787839593 1.23384258230443 -0.04420934752736257 -0.5770216267437998
Ni 7.500934838563682 3.8048300549602843 12.666765880809567 0.9098612153849039 -0.8157182162518919 -0.4429799916436371
Ni 8.16227570708052 9.154118859252192 6.745735938813554 -0.9812977740593358 -0.8828206663273441 0.28904701693618606
Ni 6.900110008894373 0.7404398213661366 0.29362094829412055 -1.1361005529662498 -0.08328368782100495 -0.2600987093329521
Ni 1.6788338046518214 6.636377148696128 9.290838024878605 0.3524375653776898 -0.6171840578952984 -0.448918211504943
Ni -0.16462943905523686 4.6138253318697515 1.5671727146485315 0.5236946331858853 1.4948365497581417 0.18923524955317086
Ni 6.188042193425288 2.0923479511475205 7.026349301767526 0.7836020524436376 -0.22315941310444146 0.07484018503934207
Ni 3.272747009881523 4.3480837536502825 0.4015845428628691 -0.24503435880066185 -0.16763129813015 0.16722043584497653
Ni 6.5419583124768215 5.629464066754374 4.493193179934573 -1.0433690894687837 0.648368968138535 0.7566705181601162
Ni 5.253270265033075 2.7949447974848667 9.54495176162952 -0.2765054328257496 0.48669363048150377 -2.478596669315041
P 0.11647292403240989 5.656568126208164 12.764436840594453 -0.5331130982863077 -1.1495610493465298 -0.6737637540625557
P 4.116808504555149 6.04439613185329 12.824539319849379 -0.3647330949155912 0.2855647148145405 -0.8990183591331291
P 2.3611980432278874 8.405685067299332 1.5359503287901433 0.6252416380924523 1.2536331346677958 -0.12102773933899799
P 6.449502748169661 7.9193844325051925 5.942594120753261 0.14582705777086497 -0.14906459087155619 -0.300233886790941
P 4.474996557859963 1.0724191035659865 12.4452706343879 0.29129570376104674 -0.5395722236480902 2.1581371995058447
P 4.20982760061487 6.261828496123432 8.140834232817781 -1.58624492356881 -1.0780455578050467 1.7771429055363848
P 4.754581020904424 1.1795174042179004 3.9632279235388213 -0.2889230897638121 -0.8221583154502808 -0.5725679618478203
P 0.4276442507300593 5.616175624460129 3.7501274823859414 -1.2150863847428492 -1.41895763904164 -0.476024837913748
Ni 1.6240803324353121 1.1353619646382518 2.5562372917112075 -0.5751958863889707 -0.13656414441170028 -0.3098755236457631
Ni 1.9681619134824861 6.5277973048882885 4.904401390855683 0.840137782746837 0.07206313651483719 0.03574861835451908
Ni 6.155939061972978 5.7238374568646035 9.19706543233038 -0.47609014393404453 -0.38222508105276753 1.7757385689896903
Ni 8.535415530271814 2.304563102095572 10.292939272791239 -0.028567270114731442 0.36403735440014723 0.13533567132123792
Ni 2.2761592839221665 5.4241839920515424 6.946624101535141 0.34528089972825055 -0.5572025351353436 1.6571729180379393
Ni 0.7006553885575572 9.065989764529204 8.994381239378052 -1.6271375480181136 -0.06112386389451409 -0.557531122119356
Ni 1.225790632480558 1.0587943600645675 11.336053816301902 0.6368823076551741 0.5523750318397133 0.5171714873553868
Ni 4.175915714021278 7.026032087926167 1.5712701358429544 0.3669912948221486 -0.12629644393710507 -0.40038529690156205
Ni 5.676282648325961 7.894416340178042 8.122010454437902 -0.4869844222490452 0.3710418107424384 -0.22099325869105813
Ni 5.4728749533171195 3.0896355471866697 4.780470760323664 -0.6829947857425206 0.004074684290005885 -0.28208986889206256
Ni 0.7444563484864016 7.521840048739308 6.928359310296915 -0.3985981230941522 -0.8754986787446343 0.5517129727756821
Ni 5.177757010189988 4.440330265855686 7.326424506472826 -0.2963697758498444 -0.6821776891578638 -0.5828747430904672
Ni 8.304785615925582 7.100481903816841 9.246658953322237 -0.296053015940374 0.8720114915269821 0.36249494961369183
Ni 4.655290361792015 0.4328941852506861 10.434789304132494 0.20127649698842107 -1.6539770368084612 -0.16619842233836538
Ni 8.202750011824895 7.492445505388015 4.672038161909236 -0.39260128208076905 -0.5456330851301893 1.0588288756672797
Ni 7.079740299633895 6.025399658258916 7.122715958221892 1.0501753137573395 0.43830958275116133 -1.5795788244025442
Ni 2.667259409420869 5.181347252807106 2.7192788437152786 -1.1351808693654577 0.25298266711346107 0.41251061941018635
Ni 2.3564898263274636 5.492834884423934 11.497459308379186 -0.055359964827543365 -0.6244939612931503 0.371380939249412
Ni 1.0111941054168485 3.238307948422633 4.071208787629019 -0.04823389530572338 0.7654922302168042 -0.9514917464414969
Ni 3.7624924597437337 2.709224346542984 2.6446490612326565 0.7220447005561307 0.2939894485431259 0.13197961036481143
Ni 1.0931516185271182 3.2442341210463326 8.313414014195025 0.7463174570605663 0.6267675878186755 -0.5157131576423054
Ni 3.7060847491568056 2.435529699234961 7.162811242416562 0.03162225489097135 0.1751430331261629 0.0881430727958353
Ni 4.409854105108349 6.577160868568212 6.079388726920743 0.36454206195070765 0.7127146814044565 -1.2287445989562322
Ni 0.6976568542806272 7.445208819612915 11.607248927610668 0.14611116467018706 0.08261262989590933 -0.5942804138242475
P 0.04932993355920669 5.599705954530461 8.04812598814415 1.236149890281368 -0.4580433137346627 0.18984382967144725
P 8.617836593694674 1.6569106016328605 8.145676970201073 0.04853959947160027 -0.15658532472863354 -0.31281660855195803
P 1.7901676826697532 3.332335948103873 10.418493238339503 0.2986770838267824 -0.10296702518254526 0.2351440962701434
P 4.419434144901875 6.143014188551352 3.882691964720494 -1.1860066937680738 -0.047917135396252954 -0.157869847868012
P 7.008317194607777 3.9160821299818767 10.30614954777787 -0.16746366220403416 0.8365703771105528 0.6443935284305548
P 6.449875406264096 7.695326025531559 10.309168987264975 -1.2120594249910672 0.21318481839023284 -0.2181447334986695
P 2.4710685565335253 8.390933260292792 6.026642154881094 0.34851843282894174 0.029639420132987666 -1.1702972534526168
P 6.830359320682306 3.6683281217352612 1.5639933048574735 0.5507891754098321 0.20510564092652417 0.14856991062332478
Ni 5.18948210633197 2.7728488992514113 0.380939284431166 -0.1143241020665773 0.17161342270634963 0.05757137065656537
Ni 1.4159553313042312 1.083398883519098 6.8669261689682015 0.9513102265583101 0.474317368304338 0.8990942066763871
Ni 7.07354145035573 0.49757308768971004 9.129698847000515 -0.5756216610724796 0.34051998800449745 0.18758331577204468
Ni 2.6581429199399325 1.4481311765310643 9.427486294574857 0.47145470204456225 1.2745773410196308 -0.7413799105496328
Ni 6.3800520042775055 1.7030111346810237 2.4263595833453135 -0.1399276615672945 0.3953991565408803 0.7014985009736628
Ni 3.9066111608501366 7.086820803428161 10.332609181404942 0.9942831305754102 -0.42127859541080354 -0.16275134433002936
Ni 8.047497013994517 7.568295061438276 0.12155743471599476 0.6888838975334458 -0.8788729945335056 0.3710711213184771
Ni 7.7730116043885475 3.6941869578003295 8.225920256076941 -0.6073585871644444 0.6868673813240493 -0.3666264552835621
Ni 3.0728841113807226 8.291560798184044 12.486363915137911 0.3292557279445878 0.25733323077267295 0.19548174468351495
Ni 0.08846448700797868 4.809725329658998 10.362859929451256 -0.13169756034801836 0.250822940457981 -0.49172990735383054
Ni 8.648185505336594 2.2407476757290192 5.945534484010572 -0.5401041848921602 1.0683951791994761 -0.5804368230729359
Ni 3.7041941910191833 2.7377099677127283 11.366837192746605 -1.146308089626871 0.7566707752704324 0.22004555006580814
Ni 0.8281253620645279 3.4972144318368548 12.414141867514212 0.6021364195335566 -0.23190244940439417 0.6200503236994999
Ni 3.052224310194115 8.539014862110749 8.119549093170267 0.8351526708274197 -0.6717240979247076 0.26450378037918315
Ni 5.629554958972529 7.977946288662391 3.6025176111802093 0.07109357351271627 0.368649656361178 0.46396739252858155
Ni 3.095916199461173 8.419637022786109 3.647641052883207 0.854615921758354 -0.35093886934497626 0.6372178366177219
Ni 3.447950849596901 4.414771374110529 9.236229071288962 -0.15885817992321027 0.2803638873398913 0.0996245910728736
Ni 7.398672003917609 6.142650619678732 11.516429423230296 0.13596044938943036 -0.8669582453737908 -0.40141888037239903
Ni 0.7670076167328128 9.20774526796358 0.2125232755675962 -0.04373189367031178 -0.4323687917866941 0.922719559404811
Ni 4.360772307304705 0.4063282077283731 1.665681700684808 0.22078114268025203 -0.16714150297792504 -0.5602876018185706
Ni 6.33002492740505 5.491489679595243 0.3750476508503656 -0.6126254919903384 1.2256888428490438 0.660187815150334
Ni 7.861686052420464 8.911145781680524 11.407491464082927 0.1685000738883485 0.40046808642335546 -0.388702204136679
Ni 0.08754283991588804 4.669169603504268 6.077965354784438 0.05867128858896347 0.39199244485217655 -0.8939165191301894
Ni 8.006922727810172 8.912490986509216 2.412923895657657 1.1643580051500462 1.023926664473456 -0.09053574139772795
P 8.51446487398711 1.4744808305741688 3.6687534973162266 0.9929127325904447 1.090950953012805 -0.09399927446629618
P 1.8523834059967799 3.2645303533603207 1.8233088032533917 -0.9699640942140715 0.28692559971780907 -0.3895745794393033
P 4.845891343262832 0.9628394453584439 8.353669268693647 -0.1587080274985912 -0.041728490087037814 -0.9211707268604522
P 8.565055482612127 1.5891868098856474 12.512996243979476 -0.4744639211845313 1.0721443618292632 0.07196414904312767
P 6.382551540276765 7.8888173795397005 1.38814049470447 -2.199294904691077 0.5297022728325459 -0.39225238338178253
P 1.9961567166741943 3.1740017040780444 6.11837967066483 -1.6299860732105025 0.16820619679701354 0.21799586662563103
P 7.011907437224896 4.061482411364264 5.9872122017233185 -0.2584002385846066 -0.5367087860573659 0.39638903125797537
P 2.196337737938537 8.524108538333346 10.323403617550213 1.6399352140034142 -0.7779361124071118 0.9752525963065204
