# total energy = -340889.60348429886 ev
CRYSTAL
PRIMVEC
9.11504103654661 0.00000000000000 0.00000000000000

0.00000000000000 9.11504103654661 0.00000000000000

0.00000000000000 0.00000000000000 13.34078391945115

PRIMCOORD
 96 1
Ni 6.5973936835722204 1.8409101204613756 11.343641967255712 -0.01430356110686569 -0.5713610860239128 1.4088755722152895
Ni 4.621106975654207 0.29733081117142646 5.849840011178017 -0.4548111799506103 -0.32914028541264606 0.6876497680160286
Ni 2.8760779704268993 1.556210932970087 4.862168816337665 -1.0161817304207144 -0.3523869146454125 0.6871363187147198
Ni 3.605809914852128 4.27751550890374 4.756602970146643 -0.8032244546602555 1.4070236066082153 1.4971952797983055
Ni 4.7031058835965664 4.816907169241335 2.6327638031368883 0.016494141000281272 -0.060585989113173075 -0.6253843343179036
Ni 7.003733091882849 6.07857467054742 2.826285236498851 0.9043102036596877 -0.7601373936627941 -0.5079486832055381
Ni 4.9646072919956685 4.5776100004762466 11.47997107648647 0.9232990860573647 0.12890405676328123 0.24304921004983304
Ni 5.653986950353665 7.830585797104634 12.457823549268626 1.0886547007794605 -0.05309250894960534 0.3028258158878333
Ni 1.7523301529887387 6.764827869876488 0.30932073597215776 0.331849456813693 0.36933536957429297 0.16630383756797812
Ni 2.572282772248723 2.029946953700213 0.4692131374352169 0.02379041755137838 -1.0611685795440498 0.7393862771583718
Ni 0.7160839936846665 8.954370074706398 4.5601601661760185 0.7911063312404827 0.2656692614421941 0.46457031621990313
Ni 8.581373486010392 2.60141444296724 1.2763782658156622 -0.4205581723050112 -0.22125808231667055 0.014871774905509871
Ni 6.683275598938262 0.6998154686851643 4.689552729281371 0.4363393463986679 -0.344898062467535 0.21701524787991658
Ni 0.8730805466535851 7.632388347760632 2.643289852368973 -0.595343050760807 -0.33755344917700575 -0.820056952836562
Ni 7.95891645794506 3.725198720569004 3.6116973197698656 -0.4165624208820568 0.26730062639803 0.46727588807652426
Ni 7.497868574148657 3.761987025644077 12.690927047741718 0.04522467616575437 0.00440198572243758 -0.17620567006272234
Ni 8.431002656272165 9.174835568970718 6.399133340446003 -0.6163242809981644 -0.34795484701598783 0.025655752894891297
Ni 7.096569783456095 0.6382032612212271 0.2848751077806713 -1.025108600596699 0.29268538501972174 0.41288831446457924
Ni 1.79074093534413 6.402076587152827 9.391444489429968 0.8702438581035981 -0.11899065430431122 -0.8607737138296336
Ni 0.017767949227661166 5.144866340847168 1.3323537319866297 -0.5883234249098642 -0.5322826319652123 0.9956152191232724
Ni 6.350248464591662 1.7504159943995996 6.943517308684893 0.5468906116863742 0.42016530774196675 0.07946817072965669
Ni 3.228547487014613 4.455668983307185 0.6368660847210998 -0.02931906067909144 0.1751378909198403 -0.49639594537093223
Ni 5.879073770354621 5.616305371270327 4.849134307849718 0.02681686308252801 -0.3912092868292488 0.5125134197580851
Ni 5.292092481474667 2.585490466513783 9.42777157343547 -0.05238031337392914 0.7701942636781639 -0.23529193470191737
P 9.231622273781847 5.670813315856288 12.529450452170122 1.252863603491623 -0.6840013726301639 -1.767056724944976
P 4.179246252953699 6.136774206698148 12.85556565100175 -0.9472797652426781 0.4302239775295494 -0.4325482547873518
P 2.1808008806061747 8.995843510804411 1.5422612743757134 1.4432543068054757 -0.47874866460281423 -1.2419958075391835
P 6.197690025037275 8.001492813992055 6.052193007668632 0.6600867707960955 -0.9803948026290921 0.03026779774560594
P 4.834398932729707 1.1312859562630084 12.69949245167607 0.9484976968101793 -0.32744052911272 0.9279180728866148
P 4.136314410311579 5.960999757969776 8.410550327499259 -0.3190664461164118 0.06189339507068695 -0.49733671201764673
P 4.685495624576487 1.0273380298318548 3.631414976246178 -0.3138291089768724 -0.4618444326483078 0.11744542130437838
P -0.0006435218875867635 5.86212890932029 3.5361746483874272 0.2644587860738607 -0.281206952066477 0.5164994009890267
Ni 1.2570006003649439 1.5672857076643918 2.6008921511236323 -0.8351752965352391 -1.6571037553629007 0.9451753173051657
Ni 1.8964389496282108 6.51688052729667 4.867571301079487 -0.43855949397843824 -0.14916666366705925 -0.42191468633290563
Ni 6.641802162840247 5.601666615583863 9.297085586026313 -1.2147143461154113 -0.6885172582226465 -0.01846874822814884
Ni 8.540228191384804 2.166317080615022 9.882265742824297 0.6226875042120309 0.12083902036695963 2.011047730082788
Ni 2.436787689260377 5.315919198388999 7.11190492826737 -0.8780332722410299 -1.2082742469170222 0.23641730655561222
Ni 0.8430027346895795 -0.11423880760800154 9.290708703412209 0.2910558198360988 0.9930127485034188 -0.6490865630308498
Ni 1.6969836246399168 1.0227896244224244 11.513256471343418 -0.8960366507969858 0.6796790911057262 0.20748134024755235
Ni 4.028902768338173 7.172179047727089 1.6075915070230307 -0.08965822388878107 -0.43091688983151594 -0.5365110682242631
Ni 5.654287746703387 7.689156822489957 8.27432786424704 -1.239865134349426 -0.11122772252944069 -0.6632541127804835
Ni 5.425955972141795 2.918280609796966 4.45943714121552 0.8608837570449367 0.541381766053003 1.1987187420181034
Ni 0.8547930400945862 7.186252670877711 6.803119245196081 -0.686566819364495 1.6432707061345504 0.750103920686192
Ni 5.343355471499992 4.626038212781466 7.153835027914506 0.24178911239048684 -0.305776413875725 -0.10386074064140823
Ni 8.5690955259172 7.210234343487355 9.307290785818694 -0.8144316362299845 -0.4834080177516965 -0.11178873723923329
Ni 4.725902600889122 0.30314438425786894 10.713303163323577 0.10400395108749186 -0.5192278556637833 -0.3763768498021066
Ni 7.871703746607523 7.227069824030878 5.0182556882246985 0.6806247428484472 0.3064467004698722 -1.5684953128948729
Ni 7.301494132984787 6.335463868250787 7.200688161152091 0.6057174520165955 -0.3255188866099749 -1.0010556734125533
Ni 2.183717693694387 5.560840347389796 2.5818289545839868 -0.2513158209339994 -0.15713888323925843 -0.2385371811120924
Ni 2.2675304947759773 5.256215680489659 11.582294702629124 0.43142262582334084 0.22470078944963234 0.2734962136857806
Ni 1.2527529913052353 3.700332888991997 3.98262388267733 -0.503623573467623 -0.016440404944210396 0.9595213016141927
Ni 3.3053143614799914 2.771473761050898 3.0125757079143187 1.1554668733080036 0.40786360755647827 -2.2753396515614814
Ni 1.2537009555589043 3.2034173192514865 8.528029532147446 -0.45225961717335017 0.715809004059064 -0.660053860675631
Ni 3.641741406082539 2.978831826500066 7.549683024148472 0.43409940132455566 -0.26517149587016914 -0.8537805703412521
Ni 4.094613098191048 6.645101807646287 6.137987418642027 0.8311175815260977 1.3993010411529772 0.16232531253620433
Ni 1.0386224504668748 7.588472080701241 11.32501811568748 -0.6279806342901701 -0.4771604941800879 1.2707952482693792
P 0.13974178054396477 5.446346318636577 7.827678099057323 0.429683274534731 -0.36601761805496963 2.4241448181240637
P 8.467708925979133 1.2329186623053938 8.065037410126932 0.7099342904458419 0.7920599534030036 -0.3366728463442653
P 1.8522310012599983 3.128446107843539 10.61895702097718 -1.238181575999416 0.40053673487776176 -0.18758125888951566
P 3.7608020703269904 6.362818105993675 3.8428392614411324 1.7720022418757093 0.14281758152057986 -0.024641452697764014
P 6.91539923051453 3.7367019021856396 10.423501375936098 0.48701681814887743 1.0766553623257393 0.03259773143036322
P 6.589418022784141 7.654209755676818 10.31263969098179 -0.5410302962508553 -0.45609133221461445 0.326862802232379
P 2.5921991366166703 8.513429971136855 6.056475253883763 -1.7129468304744497 0.2960604721395417 -1.9545312830532984
P 6.515340085384459 3.9632197836080003 1.8955784897671883 1.1481083760604034 0.48703070210594834 -1.1120018601458332
Ni 5.23790356332023 3.13644911375432 0.18817272736145418 0.3055301021928738 -0.5230863101779248 0.7356846599370684
Ni 1.8263989753475212 1.2655505087297652 7.117788687168747 -0.7647175568343088 -0.7131651386783137 -0.27636427926219503
Ni 6.723080982551455 0.4096736902720903 9.301781655098333 1.2970305278168242 1.1977193542193116 -0.42385046990303776
Ni 3.0299216307482792 1.428509209951807 9.280823441555441 -0.7454689930173419 -0.12364383680560642 0.8583635617262444
Ni 6.403498533533331 1.9332545998259862 2.555640530572294 0.9212231773649425 -0.28329751604691855 -0.9459741590573773
Ni 4.335177257641329 6.813538648449628 10.379836684005564 -0.18157721878728084 0.21574280892539618 0.661817380333957
Ni 8.132011084648639 7.106149691442692 0.13306592458831967 0.5809505294845608 2.160812175234846 0.4287034271199649
Ni 7.538567231770114 3.5405097618397825 8.094853620417089 0.643526038223937 0.5579419844045294 -0.03762552366225778
Ni 3.3982877786667474 8.470489013453834 12.708764271280224 -1.2149264621262172 0.30780218605650217 0.4327853104988224
Ni 0.020086815632789672 4.786189481406104 10.175055440619012 -0.14262063501842534 -0.4172270510492492 0.11107988409766677
Ni 9.03820110586979 2.5969571879668165 6.045256461543228 -0.5070220576262108 -0.3541985139328545 0.1638371211950404
Ni 3.5996116870396775 2.5797024155418624 11.72425417262422 0.4381584018852776 0.7233914443920122 -0.677265082347595
Ni 0.8326407561937065 3.6745008630795195 12.745877983315449 0.8620114428914768 -1.248652907844385 -0.291336327190995
Ni 3.076754710895882 8.27665766870125 8.061248287624526 0.7492397729136838 -0.5088616819381108 1.2686941427659764
Ni 5.587510957065134 7.925254611898914 3.456930305805249 -0.5650598263962333 0.15196890900254473 0.4870438147320709
Ni 2.9681854587280925 8.43848610485161 3.6372978236434657 1.0782661584562847 0.7506587647483975 -0.13637131167460384
Ni 3.4485207690702975 4.252722597653937 9.622587342605327 0.16392171048904672 0.44426862854807364 -0.44524179109462025
Ni 7.284339626009739 5.95873011278551 11.505572491864159 0.15582890617858325 -0.08432189927753221 0.4041959288969039
Ni 0.33909957459462176 0.017895559800270435 0.27805888019515607 1.333460231398768 -0.208182480079635 0.8553795393972559
Ni 4.777229396200752 0.4606869281767373 1.4616159500071029 -0.5321574192412578 -0.520643247954071 -0.2148182402285978
Ni 6.239172576176189 5.735593911537296 0.4116726187416055 -1.127965068343309 -1.0798126770077985 0.7537628575950179
Ni 8.000362548920371 8.801292077820674 11.561670099583194 0.4884558645882491 0.14508658006041464 -0.6624984655613816
Ni -0.0830006509373415 5.110010424443035 5.683320974980177 -0.4651588417335215 -0.8252025015932434 -0.2639998441595711
Ni 7.94281018067359 8.924636811288437 2.584803192429873 0.489697450304834 0.7667068193501957 0.5623359997071671
P 8.568621543790366 1.5770752615917032 4.0674712409011455 0.20312100639632757 0.0042461768708636554 -0.8144033540952104
P 1.529184836699623 3.5488500242638885 1.8306092127395373 0.42734742731270275 0.03788623352281217 -1.753256071616458
P 4.822230353127322 0.8118940115997089 8.219630326810345 -0.29590749150144524 -0.003414424998187668 -0.498445114590477
P 8.86702063775535 1.6730201821120756 12.439747511658524 -1.6490595449021859 0.6962915028514267 -0.02763910187350724
P 6.596354568909546 7.750045295706382 1.4375495075170843 -1.9603422333081206 0.6162736302658871 -0.20359383226768807
P 2.0849106503312065 3.2925624192599647 6.062252366806603 -0.2563634106602359 -0.1364672138225198 0.45986545454506605
P 7.044468209667909 3.780727549735839 5.880897690038844 -0.6844759982737374 0.4089838372038505 -0.26821388224091874
P 2.7527970422454406 8.53826845759116 10.467912589716395 -0.3917448476177447 -0.6631898352014514 -0.8008191876528724
