# total energy = -340891.62386587623 ev
CRYSTAL
PRIMVEC
9.09192515313141 0.00000000000000 0.00000000000000
0.00000000000000 9.09192515313141 0.00000000000000
0.00000000000000 0.00000000000000 13.30695148748832
PRIMCOORD
 96 1
Ni 6.3441996913953895 1.598569503370974 11.334221728652055 0.7066646185556346 0.6303797306499659 -0.20961741275394866
Ni 4.714981309346066 0.278700227663801 5.984894094757759 -1.0847419959886155 -0.2479913845464568 0.6807219305479437
Ni 2.865947460133743 1.6916889977120186 4.830316922064609 -1.0674996639684005 0.39570588914802174 0.6661579166908398
Ni 3.2324793186442755 4.3527135635914345 4.782331561077188 0.19392982681536278 -0.13512844040643823 0.30962689797006676
Ni 5.414423088261959 4.4638350691407656 2.8141807676000963 -2.365670990257887 0.023979393633732898 -0.07693100613009976
Ni 7.09917494731139 6.186454795201567 2.534282224240713 1.6164970375851322 0.3500454109964294 -0.7030812720797505
Ni 4.960208706472278 4.664721148760507 11.684953640153621 -0.34141781722841846 0.15606930432416347 -0.6258234787378512
Ni 5.612654325824719 7.841930656225402 12.554668987710315 -0.900233719597469 1.2525442724789912 -1.1889423793576297
Ni 1.6406378396642773 6.5933093404336915 0.3490480870188488 0.3024283233390985 -0.4222201333884663 0.8678535034945506
Ni 2.90649744497665 1.6886613867360796 0.37332898153038896 -0.07686518588917084 -1.016572280990914 0.27686307327548443
Ni 0.7400463153079164 0.02735305591925729 4.464961558630012 -0.4477802412457579 -0.8052710527766389 1.2703144519782186
Ni 8.668404809182798 2.156168162660364 1.4713762022595784 0.1763833332911672 1.1094222723441152 -0.3963710335358464
Ni 6.900079976887626 0.6464722247242382 4.687719172675335 -0.7921512275652293 -0.14574915334507801 -0.11637635660991572
Ni 0.8199634255703993 7.535141835921762 2.5517141717607372 -0.5452564185170609 0.5599698134678356 -0.40977470853626197
Ni 7.678512398923514 4.135671133508501 3.6697381697762124 0.979318538845778 -0.5319810415643935 0.8748145081934159
Ni 7.703506100343503 3.723834213457113 12.58206841244632 0.42342238122668363 -0.40191458906189487 0.15173879526960965
Ni 7.938577817409283 9.032236366012087 6.7479020662810925 0.6412950920108891 -0.22749763546847918 0.18182481602171266
Ni 6.926973890601822 0.8113079131106576 0.2268917122758323 -0.18895525641890684 -0.3227770621987796 0.33381815050428965
Ni 1.7593783782401455 6.311359658827547 9.367135599575212 0.8700312278721597 1.071898307256728 -0.013713235821034446
Ni -0.0838239103716751 4.88087257020788 1.407476336010044 0.3851710510549689 -0.5339857306992482 -0.1143032761309709
Ni 6.420526400533554 1.934170633532724 6.93694045862532 0.34636281993851964 0.136221673470617 0.9059153433632786
Ni 3.6619182052104313 4.164356156418673 0.9173315763950967 0.14279084204770248 1.8211612200988636 -1.5004567241583964
Ni 6.034465087439486 5.627856024178383 4.85698353765749 0.3585745315133631 0.2696323598550001 1.403107302272945
Ni 5.312557162212645 2.7607357057386466 9.517145086104383 -0.4868558670909809 -0.23382126369366182 -1.2227523859285394
P 0.03445021245925139 5.557593628916951 12.545899826189913 0.08683952349306334 0.45591238343458895 -0.20866816146680195
P 3.582436598148391 6.270764214360375 12.816417321486313 2.2326179443232386 -0.9126688600370283 -0.18818572524273397
P 2.5143081745318825 8.634564664881161 1.525841378089497 1.005749993564429 -0.36476471948447503 -0.30015829635799923
P 6.2052296200223305 7.842512539415973 5.902936756558336 1.21209644887659 -1.1932708315296545 -0.22913414263063764
P 4.646846424500158 0.927576357319085 12.554616254546168 0.6984455730799519 -0.767145192439195 0.4703840946882028
P 4.148618034498702 5.9824592772822145 8.341555565884228 -0.6350537390868675 -0.1794930825647425 -0.3636144079301157
P 4.67944097509698 1.1266804196677025 3.988705623420003 1.7376350772497493 0.08034491690765518 -1.6080545632447338
P 0.1334103593256513 5.732722285429078 3.5592503713891124 0.3535590805766427 -0.5404597684593659 0.41548898531221995
Ni 1.6445837350503358 1.201543328904586 2.581814807370471 -0.6578661089956929 0.9411535977402823 -0.3899646157888703
Ni 1.9899314086541482 6.559460104207202 4.648450240044168 -1.0103589530913502 -0.27574387206937667 1.1710271896401059
Ni 6.112364699577161 5.547474316555929 9.332204424291255 -1.0621641106880997 1.470794935427906 0.3392624614483125
Ni 8.709109356748202 2.2838551552912594 10.212592782432498 -0.42285519586930403 0.5928323685238113 0.917617205181239
Ni 2.34287083950994 5.280635414054921 7.2732734887377095 -0.8563789271960477 -0.9664751072242065 -1.0716077725995028
Ni 0.4630717349811521 9.130474614045186 8.993502947754743 0.7552052464684993 -0.27795193546428903 -0.0910864716948754
Ni 1.45893572148367 1.055836141215699 11.315765121201137 0.31426259696986525 0.1652622836773412 -0.11273413187163811
Ni 4.148008875533574 6.962386937902973 1.6235013797019653 -0.7781412864393825 0.9017681539641244 0.35151428223247205
Ni 5.457791569809194 7.776859750054844 8.072781901774572 -0.36850053237782343 0.2803734004215881 0.04439472406529128
Ni 5.350970544715175 3.1854013317571512 4.954603534800606 -0.21186609957880928 -0.9767150397846599 -0.5598811104087712
Ni 0.5048000332849658 7.361613358183706 6.993002176459367 1.5695738906710324 0.15105513893902373 -0.1286009237005656
Ni 5.258969357131009 4.3176096417352765 7.181322306740233 0.49849782220528344 2.201476228613112 0.8829142544824149
Ni 8.424186615715232 7.170019225763394 9.55968711168251 -0.44006076111431314 -0.5761847326648012 -0.5166127866384393
Ni 4.517050105303443 0.17515593228668497 10.395735970702253 0.08427124854525486 -0.1625094035225524 -0.09489530391800431
Ni 8.1776954410345 7.383443069754966 4.635982483493702 -0.26730859681783 -0.3805654339621575 0.44542125409527805
Ni 7.411573485249126 6.457130489990402 7.259620145186455 -0.8821683774553258 -0.5537158621383237 -0.5112985735143775
Ni 2.1711152871181536 5.507160721759192 2.432896351823621 0.37780226939472356 -1.2386312619423248 0.6608506455453136
Ni 2.395203958961907 5.095023768187667 11.468902229879626 -0.23349061982712047 0.6863459616029406 -0.09923404050267426
Ni 1.0765293621803755 3.4230642474059416 3.896248930400718 -0.33171138857393195 0.1052877028959219 -0.4253957029029706
Ni 3.7073232779246648 2.5577221157033816 2.5296117024438964 0.8303071698096604 -0.0013706550952815105 1.4151704040850661
Ni 1.1224617665360637 3.3647304575512114 8.343897645726276 -0.7090829981891401 0.18808776621228898 -0.01709552202970604
Ni 3.922638242285592 2.6462320041441227 7.03183196912015 -1.945844553912578 -1.5236984682951564 -0.13499268615952234
Ni 3.942667752736024 6.590018063637025 6.138683094448185 1.0164838350421657 1.1699529827393205 -0.08828268369749312
Ni 0.7902482875744183 7.5098935606058985 11.694507434788806 0.10163545085531528 -0.875922139435298 -2.3174895454566538
P 0.10082853742362355 5.42934293694519 8.124412215435429 0.9291475744183417 1.191256372202787 0.26485345040911806
P 8.58385899997782 1.734384676820156 8.091584002369894 -0.20260961397754781 0.4364828139550676 -1.1432847294195148
P 1.7983009085344255 3.134395633333673 10.526929718748825 -0.8733505220533797 0.010718929079400894 -0.316459604621184
P 4.111650268047746 6.123056803203901 3.752014634537963 -0.8963413265215981 0.008787002164010673 0.11991856543521928
P 6.741225865861778 3.8615495992005036 10.578959167910712 0.9779962204899286 0.06082895836191459 1.200409499456965
P 6.377603423304099 7.678694237420568 10.131233692888381 -0.16653703662470673 -0.05811413053391282 1.2592885331813601
P 2.227967093221898 8.561301934418347 5.940130002745639 0.5721010495137309 -0.865255146639755 0.10064660457948474
P 6.884578245013823 4.2115796141034405 1.3591982150423667 0.7685032491289862 -1.7821796966293437 0.0087674617799849
Ni 5.365844933774143 2.883385772001163 -0.06304977127580973 0.8027986799767464 -0.09422835975796676 1.20584635420182
Ni 1.5370080801935462 1.2615409410073544 7.020347958838742 -0.483872873203257 0.08405553299002297 -0.010069211310543948
Ni 7.067653243847184 0.45566545299616723 9.023004425516687 -1.1356570376709278 0.019005337457909204 0.5426763164947106
Ni 3.0265654045810084 1.724947258823085 9.17720528940294 -1.003068075856892 -0.26821645334408 0.13744063347938265
Ni 6.464576776444739 2.261452652454281 2.9137700756663008 -0.16550859536019238 -0.6821458074786639 -1.2643235245021065
Ni 4.121505914588041 6.895043050519246 10.401777554766852 -0.18087607895519817 -0.5094882597785162 -0.012773754725900583
Ni 8.281425211678611 7.654755199283488 0.12195544320377251 -1.3776145573184788 -1.3436202026509054 0.8710298443400031
Ni 7.573055162557396 4.003774579670818 8.550540732162727 0.7422934235028378 -1.575017687394423 -1.2894907677963532
Ni 3.0472768093953904 8.321038728261694 12.35487848503532 0.7335845828749301 0.8234253550881626 0.03630269108577619
Ni 0.08485948061239419 4.96113608280725 10.34084529278923 -0.5775782705782182 -1.446636078793515 1.102337597583192
Ni 8.534462572253267 2.258252294906141 5.722574788101014 0.773953730720596 0.5844593139687677 0.38665483468934697
Ni 3.6208227048763635 2.5442024234474614 11.51869688391273 0.3650971631232293 0.5351188158624268 -0.5277533766362911
Ni 1.3213930823124802 3.52508473617775 12.789244285679139 -1.583991608758259 -0.6237681388707192 -0.228159180311878
Ni 3.0617056941365774 8.64440212757175 7.997557133928552 -0.18711023279036806 -0.8949583301311426 0.2676474682144875
Ni 5.790592387116321 7.66514726939009 3.6905095812946223 -1.4733410988885272 1.6857509867859484 -0.10778013030047243
Ni 2.9582577731628996 8.499140444200643 3.722260401265116 1.8571885460360662 -0.033859885972238456 -0.28697933577387996
Ni 3.3493287368507887 4.185922202169206 9.386364111446124 0.802084170408225 0.4937387102537432 -0.47339897025512667
Ni 7.1028571768767215 6.09799036638509 11.679431204998108 0.5008876625936987 -0.3208487348278152 -0.7303928154105098
Ni 0.9543793517847557 -0.04326392441142955 0.13435864708778475 0.055355851062485306 1.095909068349029 1.2646197155862866
Ni 5.013096433340258 0.43117544421301573 1.7844757276034557 -0.8225858899060028 -0.13857474708382586 0.13078867538050382
Ni 5.784691727886939 5.764789504384444 0.44003188821200145 -0.261708219911917 -0.3954300097788157 -0.4352363431424762
Ni 7.978118598593544 8.881264953833504 11.294394551834937 -0.06193787515537721 0.35284199990496007 0.14717534426864332
Ni -0.11752585741555174 4.971646347936936 5.937455158453983 0.46127673307029593 -0.37431148263264574 -0.6338831158175341
Ni 7.96475346906012 8.984549220159835 2.3760754582643755 -0.08217657079975525 -0.15854501955816566 0.02193562373082674
P 8.663022389670017 1.542626889752496 3.6467301447440463 -0.7285999851761452 1.6982804867115269 -0.6365953725423746
P 1.8056562757402355 3.3111790201689857 1.5416104125539676 -0.4577676914757729 -0.028700967479118312 1.786683240926652
P 4.887436939951508 0.9104562628215077 8.2720396176532 0.1305829871276009 0.7599743857223685 -0.6336172637506571
P 8.792282285300425 1.5284889466065943 12.58284031686631 -0.9141683274006902 0.4886317280444811 -0.6043614522093333
P 6.367593214041309 7.849367850754886 1.257309559180922 0.20614359527273532 -0.09547714456340331 0.8537965111808521
P 1.745876869833931 3.2530634365107196 6.154797622057056 0.5200480375722334 0.6707072266244191 -0.7677434881448262
P 7.0287761731771665 3.9174831208941288 6.102049001639322 0.5049718599654013 0.5167634532836906 -0.7784791293947754
P 2.165787419154489 8.381381833508863 10.13750166588181 1.024814466395048 -0.2028422988136442 0.17029084724018415
