# total energy = -340856.85941084404 ev
CRYSTAL
PRIMVEC
9.44103609184010 0.00000000000000 0.00000000000000

0.00000000000000 9.44103609184010 0.00000000000000

0.00000000000000 0.00000000000000 13.81791063495712

PRIMCOORD
 96 1
Ni 2.550212721696119 2.4048868501387797 6.21477078245824 -0.21152439996867442 0.13843616462343256 -1.1129428839028639
Ni 3.8382060970751835 5.987099248306847 5.2563885305335205 0.6117855125875464 0.744709232033182 -0.9195501605378937
Ni 0.7221514742760303 0.22438794173096463 13.12335388057147 0.49709605676175034 -0.9071715843678828 1.1225433831071054
Ni 9.566885300149297 0.5749279544251149 10.924731014804554 1.1791865855224464 -0.5017620947788519 -0.04461146806178769
Ni 2.952372544390068 1.5836583087618479 2.110644680924365 0.23381406460481025 0.21651722519757552 0.4506539632491271
Ni 1.4579131464626083 5.650658479202883 4.719949792841009 -1.3822885657553807 -1.0606877832528896 1.3381252409746052
Ni 5.4727043862395695 1.1405338296209881 6.597264926567512 -0.9919336565066273 0.8240886997037744 -3.190846495267937
Ni 2.554904916730485 4.914201002641993 6.896615640516525 0.7264878239291488 -1.038824664631211 0.9093505942970727
Ni 5.653443584907386 4.952984779706734 8.528387358401384 -0.7235526525602248 -0.5012165066880271 -0.041624874629637994
Ni 4.015961928276481 4.516204676950369 1.491090836180454 0.7355753880527138 0.20398798238231322 -0.9687831865320927
Ni 3.920701872146192 8.726746363090603 2.833874321544308 0.4051436375221539 -1.3885947104790666 0.12683663271129123
Ni 2.756159487248759 6.031283298127438 2.671402583987146 -0.5103642346255662 1.339012528675565 -1.2071941264789663
Ni 7.528197365489374 5.887921162117681 7.411720468512543 0.3914211457297388 0.8100342784932373 1.1114251617067568
Ni 7.449647943586102 0.8929039447600388 10.296084508013163 -1.4794276714022392 0.38000313370078426 -0.20205811234945203
Ni 4.099080811742395 2.725523324499225 7.979318402364858 -0.20734867132443 -0.13956153647712738 1.3039647930428124
Ni 4.082134151608216 7.5769319948000335 12.51547576540301 2.0024059952473903 -1.4069215338127123 1.399836087720841
Ni 3.3077142681395073 0.07146581237754743 11.8649704272976 -1.2132431608865235 1.5644838777426346 0.058046767631087126
Ni 1.1832261957083192 5.7641586174385955 9.733170272262557 1.0594281998141752 0.2868057863104932 -2.524843616097723
Ni 5.138699404497509 0.5111726363827119 1.2805953793450018 0.92488931336262 2.0979237632407415 -0.5139545230799858
Ni 6.646819981931463 7.827317718152998 12.571894454147214 -0.5326564703648633 -0.14333643013852732 -0.0431870769104353
Ni 8.033415540286223 5.733597982979354 10.021011418874757 -0.005649999196925754 -0.26198255661922626 0.4020588279492431
Ni 9.125715115519732 2.8676298026828846 10.433434592115708 -0.3072370575816515 -0.14183490589233638 0.7673328829699687
Ni 0.730201845917487 7.923304734077345 5.715751592087075 -3.0117833011517616 -1.0730964413298874 -0.5593303801116238
Ni 2.383502902949969 0.5360242761995366 9.4065151372695 -0.2535989605412213 0.12460825760140475 0.15513496543535218
P 4.466507061938492 1.2109922834267712 9.558332665377401 -0.7842278589530944 1.0527289334171288 0.08972918633603258
P 9.035100049242377 0.9423277697196092 8.796620416750256 -0.42770635331401824 -0.9392548380556728 0.449811926963806
P 0.500494824342736 4.392130578073831 6.589844272046361 -0.020198586435061987 0.0022144911528155413 -2.0385603336807603
P 9.184438361221458 3.8296525181996595 13.157111249917303 -0.3028877794740203 1.5079543180870225 -0.29882235115539507
P 6.65997134547849 4.204225632864599 6.323642924706334 0.828837013022037 -0.09081213498756618 -0.09346679900159387
P 3.6944096733962497 1.4655415037820607 4.487228248379994 -0.3685406415871395 0.04619141095439787 0.12058910913968263
P 6.117338343878437 3.9462021111558956 1.4910492956207937 0.9227864080870044 1.9656420482544792 -0.6977788860302304
P 6.726719472023698 1.5118969919485346 2.6522240628748492 1.7578331494641792 -2.847600109471212 -0.27723356924102577
Ni 7.953025116307093 9.110496165025973 0.5688488711602692 0.4777310219715773 1.2341649986408552 -0.6656256983364536
Ni 5.760467172250594 4.85132370097423 4.192519691973029 0.7875188709995404 -0.42772435103614725 0.015638220757889194
Ni 2.8453678391194335 7.165444428255071 9.139525463399552 1.637653617058089 0.631501502959235 -0.8233795894518917
Ni 8.420526351139568 1.861904530196129 12.72152921466569 1.150881053709534 0.07663070128086157 -0.11999749830227076
Ni 9.015500457911704 7.0104603765766935 3.70448514732115 1.2531245704624934 2.217410383344865 -2.299228542363937
Ni 0.9140896301868345 2.7203496366142503 0.798596489191052 1.1692708690706315 -0.9299209622492566 -0.23826927216268642
Ni 1.8785113130239963 9.30331044910416 3.340521869234924 -2.931023922414507 1.3376961238569864 -0.4063042334891583
Ni 7.81236311667526 5.325990682348122 1.92676917000219 -4.324020875726328 0.0322262070235574 -0.7597882378534915
Ni 2.346767830759388 -0.17476113449123545 5.638564511719939 2.6489196553447414 2.167248417778493 0.5155182680226799
Ni 2.0997525573606866 7.331417846170878 11.40859262141782 0.8351886662716778 -1.0542109172792942 1.3505873779973578
Ni 0.7993470515758249 2.448126796330725 7.974164540656084 2.128607565477844 -1.3236152202838882 -0.6675884784897793
Ni 0.7924097781125407 8.112994035144716 9.760157474487377 -2.143504537194334 0.2812275208917673 0.34730127259238897
Ni 5.738705583610324 4.619668993613584 11.04165730510862 -0.6412626961110569 -0.1296818154695702 1.10038587317346
Ni 0.036043044230783625 4.7884558403427535 2.992641396462667 3.6113835845270255 -1.1827331652231243 0.8157871218166143
Ni 7.516263895623301 7.833284453086036 9.686327626623703 -0.42311719128143904 1.8096755880567674 -0.335594525678422
Ni 8.266864044541293 5.61778479085346 5.117366438904646 -0.8816431010794752 -2.0258428861140914 1.336633486920427
Ni 9.45576430305777 6.14289522910586 0.7205172308948457 0.8547791868090955 1.292189397674439 -0.486840183361697
Ni 5.460478244248616 5.804367990982589 -0.11899765366531316 0.8502980111092905 -0.19751060218808564 0.8156590808791824
Ni 5.085725749894234 8.88630931736791 10.488899736194979 0.9279890353338662 -1.5589812027568508 0.629722042461309
Ni 5.5430306655373425 7.541112703129239 8.055980561114469 2.2922693374372844 -1.248346946568192 1.2516467003653864
Ni 1.496829098035359 2.506878365141309 3.7811057655111 -0.6640940921832756 -0.18016542604141875 0.25034625793187854
Ni 3.7980061645674756 8.94669418545605 7.6557164985068376 -1.803062967836256 0.9734296841651687 0.7416115669444648
Ni 3.3834691433019892 4.7554310954127486 10.056813716680237 1.2125690176376342 0.5933884981375974 0.41065248315552505
Ni 4.839550728725025 3.3314584743999314 5.844989937812302 -1.1695074105614698 -0.03535369690894556 -0.7688904572650759
P 2.033136605323489 4.036467859090653 2.0630278703100213 -1.006505383673215 -0.43256033897220986 0.4836504727798057
P 9.277366481388993 1.478928893236248 4.736020324807805 -0.19789138256627206 0.2125736671687952 -0.339181471698732
P 0.13437615767231303 7.860163083393561 11.877613863092416 -1.5072426367319784 0.03065397744043108 0.49192453986313983
P 3.916443964781002 6.568072298266177 7.322041953034804 -0.021342213121201953 -0.27421920789473414 -0.2987459893915049
P 4.977512591978933 7.926627978850176 1.0491398778500003 -0.09930166051581607 -1.3559216457260777 -2.2067716726840962
P 1.6594037428880435 3.6375746349518154 9.856895996900123 -0.5075537617599646 -1.3052030363252878 0.13349990366407977
P 7.875287623524455 7.726298629887975 6.265192524953288 0.4427995002017148 0.20220055146458726 -0.24047039357906327
P 2.253858592664425 7.460184140081782 4.077997089507493 0.7121176712504059 0.21361702083164502 1.7542642011659981
Ni 5.0846305896850055 2.7014675640413484 2.7846685845229544 -2.07294678158043 -0.03874215376520424 1.6918918095763633
Ni 1.9095817634427061 1.9838071907267831 11.843456193808036 -0.4742368927753897 0.999571118447227 -0.15160869744964856
Ni 7.722012399413925 3.2133039052749983 3.4091412091721063 0.9035476144620503 3.253425346441423 -0.868652345246762
Ni 7.336242215713255 7.709786257422971 2.2118053847336867 -0.8122585398380656 -0.387756552393958 0.8681206411130081
Ni 3.210018424647313 4.158257227185869 3.9405780858400568 1.0101895173930213 -1.9655093793313572 0.6282536854458987
Ni 5.6130925958190945 1.7952224909049261 11.598685054734625 -2.2308775645933645 0.7211029054681516 -1.3066428540956079
Ni 9.327356768525751 0.9175167263588162 2.4730190326035815 -0.12131750266527494 -0.18974124265531195 0.03309755388491719
Ni 7.065454412945269 2.0647735179193862 5.01109341394621 -0.6900326664259084 -1.2030626208090958 3.1953515822271417
Ni 2.4271771368110904 7.906867889902634 0.6075844989399486 -0.2031621440469082 0.3066251350292655 0.20337143184423684
Ni 7.921388203711195 9.238025683183352 4.293113933605163 0.8414796414867122 -0.9193262174525457 0.3992653243645059
Ni 7.7279885753832485 5.72999150711793 12.605361983679055 0.5964442542447858 -0.4846318628564686 0.17796738994883543
Ni 9.22148498760949 4.271134257026676 8.521008244439894 -1.833832387808629 1.7970098196636408 0.8875111298244779
Ni 6.427429180706917 2.9630220333211845 13.449884393885545 -0.6148926907579604 0.5622748074519285 -0.3872752418821653
Ni 1.9054277074766677 4.915211193524644 13.642437161258599 -0.24394703927375408 -0.6879670421461314 0.4505644888591143
Ni 5.665650844825767 0.21987607048966973 4.132950529420038 -0.7919684221304618 0.9803546934197762 -0.483880843623057
Ni 7.5729762005960115 2.4590878394592943 7.619997281820679 -0.8141727261416429 0.7368288008438407 0.6090015220845061
Ni 0.36781522089109814 5.13024023598485 11.449521401926845 -0.719588011485522 -1.3078062782760895 4.138354831581654
Ni 0.6498520183943892 6.440844893269964 7.572353092201105 -1.2400253140763742 -2.0198113352080314 -0.12858961084665596
Ni 5.9564914086661735 0.31235951784811417 8.380189523605706 2.202570233008239 -0.11971750516800672 2.0692773031486427
Ni 5.152294496749999 6.491883135434518 2.4828159959580316 0.5925814288552698 -0.9373169976030116 1.1857824935724095
Ni 8.130233367403775 2.5318404650826856 1.3067253354750121 -0.6250963707638396 0.2226498204578746 -1.5622539599708514
Ni 8.674008734394489 0.5707559604901322 6.658589177766153 0.08877864949730517 -0.9220148200283024 -0.5009961631471049
Ni 4.69746313261394 8.246074882638528 5.697359509297441 0.666116264819627 -0.881994570881623 -0.5509866361326189
Ni 3.7219302941712544 2.615318107927484 13.936468795363826 0.26553813518096847 -0.06737935788592267 -1.3812354419005182
P 6.321378020101215 6.954928201139789 4.53829953417155 -0.3451405174956443 0.9291748281118515 -1.0343877119057798
P 6.830901307444683 0.5268239863383902 12.601837644833322 0.16325193811553174 -1.0556836451700786 0.3057414468727315
P 0.40577290728077403 8.28352747358688 1.6961482561149106 -0.5975274600066354 -0.3387703523032424 -0.29574139823722617
P 3.701868092062546 5.320647055809991 12.599737958363216 0.07633708129984274 -0.03920289545170668 -1.0985346788973338
P 5.856756301336106 6.7219895128441856 10.648400379632795 0.3303006242693344 0.9156145729289135 -0.12834741292886284
P 2.664147147601008 0.6899046707360287 13.973914777586776 0.4549772732148294 0.30103298565346864 -0.8591719165601525
P 7.251169037736045 3.8263859196445473 9.745468166129287 -0.32407264108175154 -1.5242607685565297 -1.1278604244446446
P 1.2540056447478416 8.342968238046375 7.8002521553270014 2.348433543333678 2.858503900867909 -1.8361908607384765
