# total energy = -340862.0931123598 ev
CRYSTAL
PRIMVEC
9.37168539552943 0.00000000000000 0.00000000000000

0.00000000000000 9.37168539552943 0.00000000000000

0.00000000000000 0.00000000000000 13.71640888083563

PRIMCOORD
 96 1
Ni 5.218566838661681 1.268691924100511 1.5107119533756805 2.487650037766561 -1.3291045255332337 0.8107585582537714
Ni 7.181569454462362 1.159568018178248 3.987538781403404 0.5614564253156911 2.1838166065498195 -2.482947747194885
Ni 0.7855937199425793 8.426269863691608 5.333543362176562 0.9234492384819838 3.4614854420105807 -1.661852582901796
Ni 4.236479800417803 1.5832994062209482 9.507049184731498 -0.44140056297165914 -1.5834863869870666 -0.6764443862185124
Ni 0.1737754154890204 2.876863783629402 6.032874465797254 0.09408746330472828 1.1439539875723976 -1.3467001271278096
Ni 3.0256018041457398 6.1797831333046584 3.0441652387773797 -1.626380358137115 1.9226274923661664 -1.8615542792039295
Ni 6.933360364085246 6.2431638423180775 2.8219316490911552 -1.0259894605397555 -1.4498234753825612 -0.3418171095493661
Ni 2.914434870785221 7.871428595551651 12.285184135991452 1.1002079528346986 -0.12320777770945232 0.6045509425123201
Ni 6.961597252486463 8.515300875909189 3.3100024695735764 -0.6431390871981633 -1.607785111633431 -0.6322610068330788
Ni 9.050649038216244 1.0280457839191415 9.517638252174093 0.5864066675031255 -0.04986371759966251 -0.25983182882481054
Ni 0.14164365459542105 8.50486081826599 12.718403418430896 -0.31184113201256614 -1.1477229676965266 -0.27421972211536644
Ni 9.314752507195571 4.267172070419127 1.4251353444321428 -1.4774849458535715 0.62147420063022 1.4077805393788982
Ni 3.957147342506521 8.833835094252695 0.9000257485301094 -0.19662305737680977 -1.4452433122110464 -0.31844038249663864
Ni 4.6192381794694235 6.495758881507596 6.468150833203199 0.11923285222210432 0.657696673297364 -1.2639753971340684
Ni 1.0060972964861339 2.0978892851530624 2.6648921895619404 -0.06078936337323079 1.5468329974300907 0.15966344943332503
Ni 3.9443549918036793 8.11740722478058 9.9081170257378 -0.3678423299685342 0.041796881431128016 2.7241838152953792
Ni 6.960322703258928 3.7719347220374657 1.8357763621732095 0.7905070070935869 -0.12496538383050736 1.1918207293466894
Ni 0.11229434712575848 3.7186754333603598 10.421700385647581 -0.22763261838444668 -1.1136098280629014 -0.8787302983080543
Ni 8.057803305022285 8.55616142467431 10.757518803552443 -0.537924403632022 -0.423902920407528 -0.18222847921803453
Ni 4.822088312043057 7.454641626461923 4.092016205656459 1.4113219768732534 -2.007228613447014 -0.4998414807173714
Ni 2.637726484812983 2.8302677633403697 10.884066547149963 -0.018325794892381342 -2.2508208404845105 0.5077319392090417
Ni 4.615826885948666 4.511004583669337 1.8680655673831517 0.1470169643139081 0.5117644574072026 0.0023864979543055673
Ni 5.863141995431461 8.121465164600602 13.129456790333812 -0.554522160089703 -0.5848084697780703 0.46685731248186696
Ni 1.3723240223217739 0.9594731611406118 6.77058449586357 -0.37319176720590563 -0.4283943805199783 0.5648618514528143
P 6.122287842783095 5.658614331153939 8.701772113740436 -1.222651855794933 -1.6234744973442299 2.78668064827802
P 2.0282014318004387 0.36903541997896727 12.733381246191543 -0.4955461957761273 0.7414832688967166 0.27920174871099007
P 6.885105555463317 6.937821286381621 5.019780268919368 -0.21087339664823682 -0.46732551036753706 -0.6776366067544006
P 9.310488390294624 1.1808323725700047 4.6714244101571705 0.34029321670567203 -0.2378869491226032 0.15879261679259749
P 2.044461306137018 5.946156385560231 12.12607353396749 0.2667244421795858 -0.7966660847164473 1.4816203081781838
P 7.595797953411522 2.945295831125483 11.489303116879269 0.7033440388228339 -0.05659435145527673 -0.04146006691699956
P 5.590266628827328 2.955754632139674 0.5336640704233184 -0.3226785889477023 0.9625806572658067 -2.142164478226672
P 5.124015903686611 6.96196274822083 1.7297216832510791 -0.3351332697712873 -0.17005353441839743 -0.09745689399759346
Ni 9.446190396285209 0.8921853964436643 0.4750198112598735 1.1910997920202648 0.8922283327944893 0.17862224992401496
Ni 3.5559829731396038 1.9027707931141138 13.173911380486874 -0.5168146182366002 -0.12872073710788154 0.3575113803561714
Ni 6.925853644002479 6.836935092010859 7.29754125097698 -0.6734469941530854 1.1212082092354496 -1.459894229355002
Ni 7.22138974613736 9.01009775507251 5.744445849942983 0.4366414510201189 -1.5247348799794709 0.8955885075159736
Ni 0.28112432417822975 6.0851009947326355 13.811463396145513 1.0042042463438643 1.2806798543729427 -1.2083428953714286
Ni 7.081498596729802 0.8915434359871481 13.419311776720663 -0.028795326965137504 0.47879211624623996 0.011994967578347084
Ni 7.389827049567525 4.888542933899357 10.408490994940141 0.1696619554069336 0.5981021015631829 -0.7682322548557866
Ni 8.974953934460308 7.0476105819741415 6.3074910915666536 -0.9108793722367732 -2.5585024418027484 1.237923694352339
Ni 0.792641227436013 2.816228978466482 8.26539832196284 -0.9191495826653654 0.3249524725835436 0.9018799969516402
Ni 5.5032880157335 2.5657050817717093 12.02191099834712 0.4444858867652023 -0.46311095806555724 0.19657420641674533
Ni -0.43028032186771514 4.296243038829541 12.580113890074703 -0.5263037886739581 -1.1202545870729288 0.7150261031464524
Ni 8.18421797068575 1.3734392528958677 7.25744824325403 2.2434710849876587 -1.2412946677071008 1.6457834452540752
Ni 4.559221905549278 2.257367257248489 4.5725568768423726 0.6999738367990203 1.7864227881764136 0.27785809019890206
Ni 2.38841153554727 5.011789969864978 0.9139829997401769 -0.631587377804822 -0.5690774321960587 -0.36789298070081156
Ni 7.266158287754559 5.660469924882263 0.3487269775078625 -1.7173940676125259 -2.050468655082572 1.7010637058836187
Ni 3.727887800203505 1.0931602547494301 6.676228491946829 0.7567862178023741 0.6578059451817188 0.08545472733039476
Ni 6.006884907578118 9.003874955902775 9.020061731092483 -0.20605463510335484 -0.95487326131922 -0.08309239774580529
Ni 1.4806419632913304 8.948160285625564 10.641491714093394 -0.19557456150763736 0.32166017498551697 -0.6333876642383544
Ni 0.8407423404157971 8.33009762712563 8.213207405432344 -0.5928714492918629 1.1468745036533021 -0.5609799998999048
Ni 0.33785675950037086 9.333702055269672 2.7539803690610496 0.4646078543260579 -1.315213369373438 1.8565324005093058
Ni 0.16689940984017426 1.6460147255641104 11.842157384679828 -0.057561600464552484 -0.08047527183793238 0.2742971123205211
Ni 1.5341917742188302 7.921435909361442 1.048140551960924 1.215213397239017 0.030173695369902876 0.5591876838861725
Ni 6.654824499441173 1.8799788539864135 5.956007901354244 -3.05912759476368 2.568859102446724 -0.040384317354317543
Ni 1.348023241829123 4.2898421776353715 4.1243869445302215 0.03660145327311761 0.6083626029489264 -1.6670392693090579
P 1.708570726253831 6.412172818563534 5.610312664104527 0.04557640307821828 0.2762724908793371 -0.4867288545948134
P 7.821964839500664 0.4640858657910051 1.7974808437285048 -1.6568577007903658 0.2793999807647253 -0.5235344534589371
P 2.0950028060201134 0.8798766247124467 8.884117935616086 -0.09641996809264684 0.5251203098888182 -0.24351329417044512
P 3.790003331674886 3.964916469783192 12.275363546759577 0.024925302486769975 0.8775663599069402 -0.02143734393816953
P 5.3414202638364445 2.4028626745830075 7.674138683983144 -0.5272718090141821 0.21969613714618935 0.9057338234800917
P 0.8369018236992957 6.018196531972499 2.440766456573955 1.2377838263403649 -0.19892882269185097 -1.8736973423243666
P 5.2299721799110275 8.84758335687619 6.865433450437432 -0.49953963320623634 -0.7500514701817018 -0.13209299601422414
P 6.4232314074495065 3.3876768733063916 4.008496681679422 -0.11598632026034864 0.37545896597352757 0.5056195208517292
Ni 3.2999485253728373 8.420946746329546 7.8898983133283265 -0.8322851194716376 0.2687934088934726 -1.7033339899750344
Ni 3.0243459982891974 1.4729103227566458 1.8021441944316066 -0.6960930136873753 0.6172419077164273 -0.1654810845563666
Ni 4.666068491895871 0.2602826328023692 3.681442664050968 -0.5134256471597093 -0.024637853153338215 -0.5407289629603527
Ni 8.537661717504045 7.755388385732907 1.3972630145967426 -0.8968097815175844 -0.4302013518217301 -0.03330658457192973
Ni 0.2498369521478729 6.123468675155665 10.989299329254044 -0.9675002060546113 0.7849068872979901 0.6683443828191974
Ni 6.768212522264384 1.4416182648835405 10.20558463225353 -0.2751928846619132 -0.4695366590862429 0.9092837456148792
Ni 5.021021080079116 3.7325080411533227 9.789209080157098 0.24289802918394937 1.3392670678885323 -0.4872284199390512
Ni 9.012281357793215 6.750940505894173 3.9406691078978717 -0.1995093777856693 0.4213302745843454 0.3604033571919858
Ni 5.747982724049396 5.074777068087541 12.028262189608158 -0.22727703481724085 -1.1058589804728889 0.6034885626860769
Ni 3.1065919102072472 8.28094313669603 5.346354456250397 -0.16213222268879174 0.12100717051370774 0.039760310617073455
Ni 2.2539091053002482 1.6472236729931704 4.675032509073357 0.1157801177868135 -0.17506358603847913 -0.4422091749158836
Ni 4.2322156835168565 5.024141851349479 4.336868358288697 1.385574435595504 -1.8521586969216424 0.6656508951474344
Ni 1.561744529578797 5.391033966855377 7.69144912426389 -1.812462406773285 2.0279974705632493 1.8314687726724588
Ni 3.9837629293168293 6.053490299552647 8.573153227648172 -0.6579386141048411 -0.6560095154029282 1.3323454010680345
Ni 2.45766829136705 4.405591865203722 6.056562338058428 1.9679827805725139 -0.5355975552710582 -3.199022603320826
Ni 2.8750175615865743 3.5033609590762653 7.9059463875726825 2.947016184077705 -1.7033242197830214 2.223143943394532
Ni 8.609833067513266 3.204076182742749 3.5701210978797553 -0.9917683345733564 0.24727944608109673 0.8966323753994558
Ni 2.161082560456551 4.726169110985484 10.061643977542895 0.1928517632598356 2.7295093412733507 -0.5833074597525115
Ni 7.258182983396962 3.116778932342038 8.587226687758397 0.4255569110711832 1.167222728292351 -0.3288289248198143
Ni 5.037327812843178 4.023423902338387 6.262733795972052 0.401358973668741 0.00262303944514387 0.9832947498847064
Ni 5.966492943087826 6.970378521796766 10.842423462645877 0.3463589632837777 0.7691593946557463 -0.7055107074568495
Ni 4.257060021768309 6.086150623508253 13.512844009482253 -0.43382455039661416 0.4478270353232933 0.4116300165774459
Ni 8.901957876127389 6.422416070811304 8.638649126078171 -0.7381642318258126 -0.8352601429395615 0.7627285514287381
Ni 7.723384079762062 4.870558669431406 5.221302433658135 -0.19727534624882798 -0.19438336941301362 0.2859228694849075
P 5.151531172304591 9.274969702262558 11.451926023613229 0.5164428367194783 0.29855187110282777 -1.147963365842107
P 2.683282248011894 8.987943090558579 2.788641547870178 -0.1989501628480896 -1.160734035244214 0.7266955690645808
P 7.763110654582095 7.100448144803901 12.880627294376822 1.5771740716157934 2.5049988134576537 -3.0083207965244574
P 3.2635957573315753 3.204554138703075 3.081336154962494 -1.0114401019706711 0.8876101172961873 0.8315215018327358
P 8.759170875901384 4.572220433333045 7.227614419644194 0.22183658052795988 0.1825634939599501 0.8168487303119093
P 7.891137250150975 8.713118413371154 7.996159169331381 1.6363557241822722 0.02173302080171741 0.6846063532040145
P 1.156391016794905 2.880818634908962 0.6663062210992674 1.447093478045908 -1.173592893484753 -1.5788727994744551
P 1.6898086118896631 6.947099255023242 9.571762547422532 1.2666431737742188 -0.7107372459631115 -0.853384363344098
