# total energy = -381161.8709763088 ev
CRYSTAL
PRIMVEC
9.30568792372090 0.00000000000000 0.00000000000000
0.00000000000000 9.30568792372090 0.00000000000000
0.00000000000000 0.00000000000000 13.61981490972649
PRIMCOORD
 96 1
Ni 2.961730658132239 7.588649062424691 2.5387061743783437 -0.21369492525743197 0.8402501399549851 -3.1357927488269026
Ni 1.6319757453217016 0.204751194185936 11.977633119325816 0.8509577561804764 0.3014567034544486 -0.20933741961968463
Ni 7.991389937821147 1.310119910913855 6.133397639861235 0.32751663376629403 0.1889370015864617 -1.9029292426062905
Ni 6.927907984381069 8.27625566202079 6.601510974179109 0.194142199936485 0.6092966847274216 0.3489274953419023
Ni 8.130844979728106 8.165229497267557 2.1462787931061036 -0.043442644564667114 -1.013113890128668 0.2946882743823634
Ni 1.4380265938853718 5.5307240555784185 1.6937329444152245 -1.6557616395127097 1.1304091590084273 -1.2027882841017865
Ni 1.2604461478216793 5.38767701806382 4.746369008485051 -1.0989056890835074 -0.8572273912392719 -0.7476050655237383
Ni 4.563704865010858 8.904845587669605 3.5749150171270476 2.3259680152413105 -1.0514899188037052 1.062498611209383
Ni 0.5733978895117441 3.763843749831975 3.0848607314006435 0.5264480275613063 -0.737509114740317 -1.0441699881035245
Ni 0.18536744586802625 5.768279661463968 13.135426360549067 -0.685990892256367 -1.1974946398030148 -0.7864066117719684
Ni 4.180813022337447 3.398102290331827 6.944239467001297 0.9423938979052866 -0.14229230514472913 -0.8610529356329494
Ni 6.10860728675566 4.6998470819532585 3.5728724185885063 -2.191213413234523 4.192626191330708 1.199376173096444
Ni 2.6011724669052922 0.05777715629200099 4.683295985093808 0.2815278257410055 2.212785225868028 0.8056137808280385
Ni 7.694017368811486 4.9909755342460125 11.046610191477091 -0.2897237312882365 -1.8925898083534956 0.088210435698661
Ni 8.167602447733744 7.063007964255968 11.31719447614553 0.4626587010194871 2.0436413477480935 1.3900797796650255
Ni 2.3037719808313226 2.034716620718157 5.521527244026526 1.8394692743794319 2.041537671141529 0.46497629340907015
Ni 2.033804663284093 2.766841632197537 1.0411520242688543 -2.4667886209365193 0.2288927160437929 0.6247338452180983
Ni 4.2714132017052675 3.1844623028701986 1.5462303434370563 1.704403054669497 0.9250829174306648 -0.3355590444547963
Ni 1.000919812325671 6.618279824140162 10.921947471378173 1.3743430856560588 -1.128853384485533 0.7712394171132265
Ni -0.042132433453753323 1.8805678972970452 13.492401861856475 -0.033137920204549386 -0.2172872705943806 -0.549063450967977
Ni 1.7576304517723667 -0.13416754992700874 0.6266776067437135 0.5506426225296387 1.8514344171611083 1.7741092609163835
Ni 3.297572941758433 8.124945173470998 6.845918358214671 0.7862189212411943 0.45082982670535904 -1.0095158883647646
Ni 6.45811962620471 0.3687881417849691 9.831218463173412 -1.9602350183062949 2.5918136543603687 1.4270329598506066
Ni 4.703113378477304 2.571878160758014 9.204543648136129 0.17033532732487439 2.097216195650756 1.4179042580764611
P 4.312581565871581 6.754226621632406 4.426834943258827 -0.7079064613825357 -0.011595675257399385 -0.932113084804569
Ni 3.3364707180276905 5.320201473631192 2.5779175523366615 3.3023099879572677 1.127327177648994 -1.025216586929473
P 1.882429034917584 2.9422724643095077 9.854944245560038 0.10013444082975659 0.2680331336886803 0.3726513213214034
Ni 0.38030206967443125 8.615652718502211 10.248801911093663 -1.1987110287086193 0.44547139060692315 -1.5870496788582926
P 2.80192407634469 3.369450076663635 2.946620081791086 -1.5173190471313738 -1.38807380497859 2.90345321188509
P 7.100100437033303 2.030798926026923 4.168711905528705 0.24437615639137264 -0.49042712938200694 0.9488419675234755
P 1.2016621160769667 9.128498495529731 3.095443159911026 -0.24842950052513987 -0.2981348381700672 -0.9692629543819888
Ni 4.386626926104711 2.11209341729205 4.3379926083736065 -0.35925124586541357 0.675495906262314 -1.591601302784717
Ni 0.6021915496390972 5.407330631336707 6.967761454818474 -1.004479611492438 0.9811242245959488 1.0918217856535326
Ni 2.2462907454209873 7.09690858601408 8.539337700940836 -2.053878709205385 1.1462551249017485 0.7184765235888981
Ni 0.40946609618827146 7.731174981405539 5.8563161237594965 -1.2039308823466621 -0.13953505411456615 -0.5047808270005177
Ni 7.769868032536537 8.97984943377731 4.363216606544766 0.6287288253101043 0.8493017086342922 -0.28747890111811786
Ni 5.912313101917452 3.6273572224297745 5.461083077524294 0.3258235623345872 -0.4165395380639213 -0.10078827236367156
Ni 1.9573491298323662 0.8640070844083678 9.321837193826525 -0.8043223157101244 0.1388773659259092 0.7230386890382838
Ni 1.3296060218008945 0.6293567143484788 7.009764539207599 -0.23616945221086424 0.02639185972996745 0.03922912070395179
Ni 4.913319567029038 0.6950083439129787 5.949585174475168 0.31777240989533656 -0.9808676285004525 0.8758393499135045
Ni 3.228766683927121 2.0764247147944275 12.991056054186263 -0.3322420642664214 -1.3938150783377414 -1.1886834692692883
Ni 3.1848903645229227 0.8823876795488073 2.3222056183939475 -0.027124109910301675 1.175326074125776 -0.6692589242136667
Ni 3.3731351291523013 5.890454040564226 11.038533784772765 0.07766634163422753 1.1583971595809213 0.3532153240839788
Ni 5.839896237102294 6.544448494733395 8.571494436748502 -0.11689494811754707 -3.326689445242897 0.6774484020029946
Ni 2.826742346514573 5.520013208572219 6.786699750835564 0.43535769921168893 1.1074150121060993 -1.254065337109208
Ni 0.41202422984770176 1.6874376464137526 4.212105259720373 -0.20998199518221902 -0.3654954270029125 2.1532572457057237
Ni 3.7257555684276515 5.345885172794625 8.84940695079781 1.6645044187023463 -1.3586583279309503 0.027304087131591687
Ni 9.058063742280448 1.173242544611342 2.194520410799275 -1.0844686877225709 -0.4683097286576774 -1.9010628788215134
Ni 4.1641279235693185 7.8282984481333475 9.722341912371903 -1.927783325535493 0.3564932235043022 -0.04067562334249124
Ni 6.4564073795938155 1.9855081420311156 11.863090335038576 0.6052975908703575 1.7754611469585875 -2.037220274713098
Ni 5.61780668484342 9.212221771389661 12.411151627553117 -1.7648545750873346 -1.3441413652616978 -0.5636866001977905
Ni 5.9718043659579685 7.310055372006265 10.986219997965856 -0.5780701226129722 -0.5209885471086317 0.6576575925293126
Ni 8.350040462987042 5.566913876609791 8.80503370764893 -0.6696119366777112 -0.23864413900360193 -0.17523096485427886
Ni 6.221159584357734 0.9450112382046908 2.374151830520801 0.6312233095971838 -0.005844631706235096 1.7042624153265746
Ni 5.231378680690986 6.249160399858737 6.382258726222746 -0.6395649966936597 -0.008856164839049264 -0.8987494217424586
Ni 2.236631441170392 7.327326729124863 4.536951011715615 0.2104082840863602 -2.251007245463704 1.348694274739703
P 0.207982129095191 4.011430887492227 0.7343397652478214 -0.6733181818847048 -1.125747748977016 -0.12550120172931933
Ni 3.65401801884399 4.6566314664043515 4.6797821572662315 0.4577790043296826 -1.0422187779144245 1.4701506169756875
P 0.24638577332619524 8.282974368830931 7.860104359499542 -0.4362881814457583 -0.1348672163252516 2.0781627785637307
Ni 8.044469582758909 5.363156529913224 2.001635830081893 0.5075208516395002 0.40189993377387556 0.5816431846762112
P 7.689178410998085 9.472818261017478 11.894701757523425 1.8134967615750701 -0.8647396404559172 -0.8767929720760254
P 3.6477273736865694 8.260864053898933 11.842592695854773 -1.773220687663843 -0.6646713048429843 -0.2640119283444292
P 4.89124647484945 9.108630851430481 1.1929259360861586 -0.822356547504016 -1.0460576920445404 -0.564317291803254
Ni 5.644402341440918 5.506361764125568 12.449804664225272 -0.12999754693777613 -1.5368208646097274 0.6962259397208139
Ni -0.08230508899307948 2.84044962508984 8.932256422544897 1.248064896551399 2.2919672328158334 -2.59023294013681
Ni 6.36976211766964 7.150211567466306 4.464943597176976 0.6803190386825703 -0.03142967926419104 -0.6910978744656291
Ni 7.172368410838818 6.5041641709368365 0.05084627979311516 0.5845372183945546 1.2004565506448164 0.451137587753765
Ni 5.6191187868659 7.057405940018147 1.979190510378197 0.10481616257614207 -0.13347804928720883 0.7107899535779177
Ni 8.159906643672816 4.227127432024551 4.620835275979722 0.15465725446798526 -0.5030365906159014 -1.430300574858285
Ni 1.3768510002982675 5.094845624848273 9.222521306981722 -0.38013425996200984 -1.3465394331802294 0.6592079677355679
Ni 4.088119063146521 0.7997066407563789 10.923336810611907 -0.8049126409959556 1.047242713491577 -0.9769829487340658
Ni 7.102091854287279 0.3018932722899494 0.32134029928695745 3.4270519429230593 -0.984665147869672 1.6727016098011582
Ni 8.171259583158102 0.7894862035131911 8.257163181740493 0.8053286454874516 -0.6920630665923758 0.8972849213817901
Ni 6.215911176267815 2.2445878044981944 7.305315054486753 -1.524669573959174 -2.171398435391125 1.6187377539901926
Ni 8.770601731100154 1.5828231007632765 10.573852388227163 0.176003067133613 -1.5799279802118467 2.8690186843563037
Ni 0.6036609177905123 3.426037966016112 5.968638570865433 -0.32556542357719415 -1.2404919693001475 -0.4822970440757049
Ni 7.74434253007085 5.93625663740568 6.093464140506147 -0.27319359484369726 0.8041531371221118 0.7726167570767274
Ni 0.8223296991028362 3.5458393946501827 11.742950179357566 0.14798421332318384 0.16420993115342686 -0.2088658792999048
Ni -0.009343841423914152 7.953646066876623 13.732587255199846 -2.1203208999890193 0.8210897649764504 -0.7766078805139915
Ni 7.817801631953509 3.6244259306774267 6.899416759117054 1.5445146337095592 1.5194494632108155 1.327697874993694
Ni 4.593399315746551 7.223698586413273 13.413203011552074 -0.6242157679310991 0.5445259681089396 1.1666221185938745
Ni 2.8878528002849584 4.942641790240624 13.046175505956136 -0.9522034277965408 -0.7550872328333963 1.302512376867002
Ni 2.1880929720267446 3.4588219052018996 7.625748049183699 -1.8904609349359507 -1.410313590213397 1.7704775777010668
Ni 7.397956901824304 7.882541304083945 9.211312605662028 4.02555205125561 -0.9028271913562581 -1.0165262582443266
Ni 7.014115878964419 2.732243083831724 9.555280616139495 -0.5218789201333851 1.0952097282891589 -0.2321312775857486
Ni 7.55018865349626 3.7988331370981006 13.263003622161747 0.07119050410189676 0.4192273693087296 0.4926063964215129
Ni 6.851573424874678 3.1998073825515396 2.3694524580289413 1.9335364259691858 -2.7227905344922783 -2.646885912744164
Ni 2.0343350875059465 7.139556554588722 13.275778470789124 1.8523726127046616 0.06878909374925572 -0.8141531857576172
P 8.592602529071842 6.513153465644037 4.015665906147763 -0.28783345624405915 0.21836661970148846 0.06688236364484611
Ni 5.481729607717739 1.826632129053836 0.19655567467389418 -1.1225845207576859 0.8665707801273851 1.1620512113937407
P 5.923312425254835 4.587397146920314 7.586264014563971 0.4192831622473295 -0.7531861591559416 0.5541552636685876
Ni 3.9095801312082514 0.9532188551112661 8.208431154284309 -0.061008678472888475 -2.7084034125326713 -2.173226746849115
P 4.473383856286119 3.656214161236226 12.537257659876763 0.8910109154476203 -0.7088683110751728 0.05311050667173434
P 5.805753667453513 4.861542718425653 1.4226173049561222 0.13474611736635503 1.3035505883235294 -1.3659690026597509
P 5.450741666335771 8.52346126646883 8.229677901360377 -0.4733899713940622 2.6723573175423914 -2.381637797999789
Ni 5.24745890973244 4.2251174033943695 10.690587592631399 0.6610501631506293 -0.07153554614614131 -1.5096913553827873
