# total energy = -340890.0045285315 ev
CRYSTAL
PRIMVEC
9.07454414479873 0.00000000000000 0.00000000000000

0.00000000000000 9.07454414479873 0.00000000000000

0.00000000000000 0.00000000000000 13.28151262489140

PRIMCOORD
 96 1
Ni 6.362480426553986 2.122263611655645 11.19870603352764 0.5356266087367807 0.2285715852589483 0.759091468896783
Ni 4.642763587947661 0.4724851913218268 5.928933196198736 -0.09654106705154342 -1.5473801281828126 0.693708829725915
Ni 2.7161834436958827 1.4012275668815288 4.782739337022572 -0.3068519063280909 -0.21229650224800856 -0.2044698071147382
Ni 3.558437247586158 4.486345672549755 5.048050873293214 -0.2510034318999032 0.3421976328172365 -0.6915989824717637
Ni 4.9853004013447 4.66771858402263 2.7517438593755124 0.8374509799432933 -1.4040609244354658 -1.1813385988684428
Ni 7.666410732375217 6.165717088410875 2.7632322321140252 -1.584859356075193 1.3512324677805245 -0.6415653149531403
Ni 5.449082197489981 4.562154413353498 11.834664598228569 0.41028558673440957 1.7677424381580908 -0.5608478451974148
Ni 5.582332801986289 7.961233593276916 12.555027311835865 -0.09083578913665001 -1.6748713637589674 -0.022098631671252266
Ni 1.9024237080512083 6.331409187804643 0.23226567674096607 0.039850556338034596 0.897942352460131 0.9732903303738271
Ni 3.079047235713988 1.5143871309014796 0.6700470893393368 0.08840506820797032 0.2591335172062053 -1.176231873769497
Ni 0.4368304003843137 8.72668045652045 4.280644815994194 1.02871740099388 -0.29803405092614477 1.012191635424715
Ni 8.468818213441788 2.048414972361791 1.40985927316026 1.121918605038913 1.9164758709424734 -0.890470469563118
Ni 7.219008488199144 0.4350454375741514 4.796910144975544 -1.9171122189748917 -0.7214386915410156 0.2845735545458648
Ni 0.9301407627943029 7.24128649378607 2.0976951911562374 -1.5248210119353738 -0.25056660147280074 1.7288156791859064
Ni 7.816285901529469 3.8894947627887118 3.6897631412942835 -0.7234588072948379 -0.6814572660520716 0.6937132006012892
Ni 7.524321521996357 3.7009801851663813 12.89118199841853 0.14318936303770177 0.09666499422391739 -0.44308746375577884
Ni 8.068612672751502 8.910267556735977 7.033543864824376 -0.6979380373159141 0.2923406000857933 -0.060732541993366376
Ni 6.69237640012105 0.6893087164916021 0.15698325949080474 -0.1104237385709066 1.0171680055933836 1.5637855661240294
Ni 1.7720588085555697 6.758094247966478 9.192453207625311 0.04705967249196412 -0.4592723010457574 0.5540917574205038
Ni -0.041483370566223185 4.844581447113957 1.426394907286736 0.7677324324012327 -1.037287144940762 -0.3082791256929207
Ni 6.283150762667667 1.8708987421005017 6.935566012962035 1.100400271351163 0.20619861688038682 0.2014364196050531
Ni 3.426565973781994 4.284019638917933 0.17843820393445908 -0.6267063955634369 -0.04886381558023843 -0.04634516292344276
Ni 5.860739812742671 5.57868483528733 4.653231074483108 0.7629926037234022 -0.0007821295816631691 1.6755905013131787
Ni 5.273852752323561 2.977466789872823 9.08934914584197 -0.14222674201411636 -0.34763962976841417 -0.22350471225900218
P -0.010984735545000035 5.756037723756128 12.675556313060353 -0.02752957287883646 -0.14557380410947832 -0.8165299135199099
P 3.969768179253867 6.167477549952164 12.622563698304354 0.6428768346757122 -0.2567565323335965 -0.9327841427296645
P 2.4248089095245433 8.469997904165332 1.2723971727809003 0.3619128518579767 0.4219565953144346 -0.03281164721338221
P 6.412326896895734 7.43785926650461 6.0458768450780545 -1.363126133894317 1.4402486872099325 -1.142619327921374
P 4.752247961636571 1.0764042634257036 12.474594183395826 0.10046637024787859 0.3932620555932195 1.3292644481498654
P 3.81573686893513 6.357380532810665 8.40290707780858 -0.38295013214425017 -0.0700615327037761 -1.4228055520328204
P 4.823038479593238 0.7798554242500199 3.8160172723455723 -0.6353177913815317 2.0061194395432356 -0.30091137247393984
P 0.42528576547283164 5.462213062697428 3.7293154488915055 0.1690811432027991 0.2836021917715309 -0.2581541840120715
Ni 1.5470645639436482 1.033590564705084 2.5283612537828324 -0.8591004398922689 0.6945981743094037 -0.44283035343965027
Ni 1.9098194614334265 6.37022101260924 5.184132735526027 0.005418342802093894 -0.06043146581317979 -2.2637324063398565
Ni 5.875749108563761 5.795865897491779 9.133032185880401 0.6208949310879822 -0.6312605905930224 1.6775010880723304
Ni 8.83457678500459 2.4652178540779386 10.42460568509971 -0.17640081679266392 0.043534947168157284 -0.43020418003520744
Ni 2.4036470728529697 4.98341289618703 7.193067996642815 0.3823176407665738 0.6097725959225756 0.7665965190245765
Ni 0.742353963602959 0.058866567104845294 9.252299825485101 -0.8337347074339705 0.1088885328733028 -0.30063934975947576
Ni 1.8600546619879244 1.4850672791493977 11.767712612395433 -0.29771266303098404 0.18417120476670218 -0.0934994520117422
Ni 4.119588901143954 6.650515528523293 1.4432889859022886 0.5286146961953219 1.3434181139424284 -0.01728346967079604
Ni 5.427938509906461 7.838318894427659 8.042035148204457 0.4638925734265882 1.4589015264244294 -0.13785920907404
Ni 5.133088425372681 2.7789339156443957 4.940536583112622 0.10204759869206942 -0.6684158594870812 -0.9721240779798677
Ni 0.7517669881224375 7.412269052347732 6.8842195204925805 -0.6842849653088537 -0.06586266413108012 1.3684143788764498
Ni 5.017360765393015 4.7224290099629895 7.190026209484876 -0.3072450280014515 -0.16022677813596276 -0.48274184492260735
Ni 8.183686965561204 7.372822009461227 9.06155109512326 -0.4338541180829689 -0.0886925175414021 0.8413775686912089
Ni 4.7344709298871654 0.25863448677538253 10.477997579792907 -0.35155953364811066 1.1083359812584719 -1.2703586749525928
Ni 8.159920734753806 6.8394838333469865 4.950537638085066 0.42843371839834604 0.4406791114246023 0.3866854308169663
Ni 7.387631665313717 5.976639889058855 7.209391286439053 -0.6154650183216626 -0.5125681842554205 -0.2831645900134801
Ni 2.6831067307165144 4.962777383069037 2.346285065147844 -2.3766089773266295 -0.31698668076924763 0.44281389837941804
Ni 2.158280476899846 5.4972317280986305 11.45909009239148 0.11851628577105393 -0.4560753913750145 -1.5062373353959155
Ni 1.1512783261946384 3.3633617746321174 3.611774695015193 0.18597766184782163 -0.41257463987890236 0.47662853293601787
Ni 3.470423245065749 2.62973933729219 2.8338367219181335 0.9543287016696596 -0.05350414256572721 -0.062290630509105625
Ni 1.1462510288035355 3.135953701308945 8.225532410434115 -1.0503144104383653 1.961734999890589 -0.07793656457647868
Ni 3.731960678475452 2.5923249922677902 7.213561039419579 -0.6661897983700398 0.9805914920209305 -0.9446114743818959
Ni 4.0574645727333225 6.922470538476293 6.041560991938689 0.6071035337308447 0.4688038946852765 0.19343797478060878
Ni 0.6799192857865947 7.596055792531859 11.424916267039215 -0.08191611804951698 -0.0317711217640098 -0.2881417315130973
P 0.2574275724197567 5.548557349116821 8.117142426754892 0.4485420591124469 -0.10418289986751733 0.7953931315412948
P 8.583847133531355 1.643291028808729 8.180349348267978 0.39132987156751314 -0.4823407528294467 -0.6800873822877385
P 2.0273620302185447 3.4327185146324775 10.574208617933143 -1.194723247705465 1.1222801021433897 0.5607748258676342
P 3.7497830829449934 6.288976619933168 3.6336888113866266 0.9854789020202189 -0.77396144403008 2.1994519990942316
P 6.796724581890531 4.045486174617337 10.13267851119711 1.2300748877318815 0.14310863039843744 0.8400002287277082
P 6.162740637969933 7.670603171715812 10.261761177621697 0.4603295386656782 -0.3378442409445472 -1.2046029687130222
P 2.210586148672981 8.511858775763088 5.764535126783255 0.7502592153171337 0.27300898963671694 -0.10885150898778029
P 6.82579034640985 3.7889125167905453 1.7044298617380007 0.3070812487300776 0.6209304123116081 0.24835673830567548
Ni 5.257427827634218 2.9742997740073087 0.4019859662284351 0.6532070129571267 -1.2273232931286733 0.7509446714199325
Ni 1.4582429270048127 1.140688333314824 6.992397159841564 -0.043701297542692474 -0.5550268676402635 -0.11764108225495222
Ni 6.8771885637802574 0.8285321858666533 9.156075175528827 -0.6140691664154005 -0.4828837698171103 -0.3325742507948595
Ni 2.589829492660294 1.8568876461224102 9.37034603146373 2.0684280677744695 -1.7576313178660183 -0.30266255083709165
Ni 6.374594942830381 1.81284888395811 2.5487354200328403 -0.6320902855831695 0.05301589007539902 0.7882621769234683
Ni 4.0314387804631355 7.069224064485166 10.625170349735841 -0.4914794819059212 -0.8091706449413614 -0.8665795218781333
Ni 8.074819660866147 7.593814380157125 0.19671524305976645 0.01661421151791332 -0.8856884747934425 0.133346408805351
Ni 7.7713669085945245 3.628710516533271 7.965746364021673 -0.5157980040466278 0.8175383001797661 0.5207566336034839
Ni 3.304803742024199 8.378644469442891 12.522858960713624 -1.864906226395298 0.8289285442945789 0.2893550350949081
Ni -0.13005455008990627 5.212726623755928 10.325658671935255 0.279049539403842 -1.0857470402143623 -0.649013029480437
Ni 8.733713228141578 2.1545417647606144 5.635332676377509 0.048383790620026346 1.1669573904461064 0.4469325485334819
Ni 4.01121162182637 2.901785092685462 11.55693454845662 -1.533746853670094 -1.1762401012996129 -0.9659696283426975
Ni 0.8093903426955479 3.6637201073904455 12.438999284448895 0.43449020900507107 -0.20079312959409934 0.6879210193995443
Ni 2.9533738754804433 8.520452368956905 7.997861175334151 0.7361852537225708 0.10797270592725276 -0.0011490260027786662
Ni 5.49564368289386 7.857702120469889 3.891336895226246 0.25488374079091586 -0.7229702976941936 -0.3806672496473444
Ni 2.8389529498407033 8.201482146398664 3.478269095831719 0.5122377974991952 0.5907654586924536 0.36151021710291936
Ni 3.6353258591291446 4.65118476480496 9.700457979178646 0.08137464372375018 -0.46404246874089117 -0.36611814818857596
Ni 7.254979980723208 6.291136361411657 11.528778053248834 -0.4155746030474907 -0.4132133019041658 -0.02581773239405231
Ni 0.6613173779851113 0.0735110662560399 13.32919299698079 0.7792090655822644 0.32387672302086157 0.6442575170733228
Ni 4.672119737875851 0.02223807759320701 1.7411926545012424 -0.42049235206408225 0.4540033393373342 -0.1948644228144902
Ni 6.349730692195684 5.679031143140787 0.6859366159310717 -0.2550968852429865 0.3601817280994829 -0.3554316150090073
Ni 7.46757839819389 8.934578260185011 11.25808712727883 2.111100666942332 0.26525917048796893 0.5908778159006017
Ni 0.20255652705011468 4.843819185415666 6.087129722225986 -0.0873203197842238 -1.3703650748449174 -1.181049349762798
Ni 8.110382798908985 8.995105468846845 2.2898786069287893 -0.4290322712142933 -2.3647119687787272 -0.6009022900161393
P 8.534409017670834 1.5155123743608598 3.557227610867324 1.0180041283414338 1.6987720816359646 0.6313210115173127
P 1.7577573271686056 3.205346739485413 1.2078326994813373 -0.40499708464196055 -0.5353404449549296 1.0977587199632577
P 4.619750544294526 1.005858758157773 8.21840072628309 1.0373329105770328 -0.8715206679334926 0.46665008156706733
P 8.381575547163695 1.582555105634268 12.473625022093715 0.8799153197550911 1.001726474227333 -1.1415204384302404
P 6.363288060972412 7.83254748442632 1.4634099723739356 0.24591496163340226 -1.2039691917837652 0.8803192400617291
P 2.022797534572832 3.146380352396268 5.966148808708938 -1.4707666532931314 0.11574335101160711 -0.3934980828634255
P 6.640932810030505 3.911464233878712 5.991091100422269 1.4760479562967288 0.11960000575353595 -0.16544611755337313
P 2.4912345718040974 9.017728307106808 10.418150961933119 -0.17110408717009887 -1.9482773317237867 0.40809063596561973
