# total energy = -381169.6648867264 ev
CRYSTAL
PRIMVEC
9.25346835472691 0.00000000000000 0.00000000000000

0.00000000000000 9.25346835472691 0.00000000000000

0.00000000000000 0.00000000000000 13.54338629205590

PRIMCOORD
 96 1
Ni 3.498255209054724 8.589606039039275 9.409687270254114 -1.022301727275523 -0.6906173352847849 -0.23504022370242747
Ni 5.892997301519459 4.544517116860586 13.421319352206542 -0.2398723549837482 -0.4316812788013662 1.444006611590468
Ni 0.33421491977102563 6.341448138969781 6.945129609657089 -0.6319668726314277 0.21204556257946705 0.7431789114315847
Ni 6.753569859612847 3.175753329542135 5.61224429523644 -0.03159988629346816 0.37708673138493765 1.6305496590234565
Ni 4.308220548651201 1.217266003220548 6.8659550836188235 0.04998738766172037 0.018637669705845322 1.5882758379559099
Ni 4.234322350275569 3.478573081838975 5.799508585264907 0.507492569504726 -0.25585073268987546 -0.14396120820671982
Ni 8.05910469758235 1.364479431464717 0.26436788984628895 -0.5431113471496002 0.13397735752113057 -1.05510643251037
Ni 1.2735270908894492 0.2000701649009996 9.728051924059999 -0.7594159421157373 -0.7046295904034768 0.8723925290154847
Ni 5.6143383551278 0.49486623477716474 13.30190796966981 -0.8924430199084565 1.2434736776362907 0.5580502278476196
Ni 4.652810457154854 7.50127786403887 11.546373263645417 -0.1267834108758526 -0.17627226163459964 0.4821582045049954
Ni 2.3741068580072273 0.44424513607770366 2.223322516320389 -1.5805090495262974 -0.49871790863588955 -0.4989274535435343
Ni 1.6495140175609606 0.8631579771550153 6.7767581259927 2.342790229004972 1.3006295580219922 -0.5269180252191893
Ni 4.431041834281024 2.4777457037130977 9.620015830186322 0.29409486377273863 0.09600884869715723 0.0037918629422644375
Ni 5.345395550521066 2.096456539667527 4.153512736376927 0.7351547555755275 0.04023750736380812 -0.4240422741988697
Ni 2.66441592107243 6.683678413039951 7.721707510040053 -0.8696350208750055 -1.10588083484976 2.0036735491059043
Ni 9.10045301368555 8.942015128312702 5.948512559638012 -2.3482849335709557 -1.1815658843879004 0.4464324689686118
Ni 7.0966421993043785 5.434219593372017 7.652027042545915 1.5335532496020492 -1.1202175631874063 0.8020276061386767
Ni 6.551242773777235 1.8953786720614052 1.8177522512808715 -0.39008957140250883 1.3941251533789925 0.768569069369915
Ni 2.2642219211539047 4.051621870845506 9.906350528588073 1.2752838801683521 0.44529552715069115 0.17898117592533047
Ni 0.20455717171196178 2.671911230449372 9.905497358804674 -0.041464952013006005 0.4658298996586171 -0.7911302424998826
Ni 4.462253783081551 0.5795808123265106 11.165614323337252 -0.4254101010806738 -0.26102250669880206 -0.20495240317811156
Ni 5.7183288326316015 7.137505515611265 7.689826535476621 -2.908689777693681 1.1417384679783174 -0.2594250803046952
Ni 2.271236050175784 1.9670282776239547 8.94578591667209 0.910193144803026 0.3955166559553511 -1.2706412391900181
Ni 2.369961304178992 8.608982801798925 11.950439840075362 0.5350807635356397 1.133863436105615 0.8652314924906711
P 5.80566306707553 6.7557814385524635 0.29873156997247824 0.48023424800940523 1.781309121098932 -1.4162366405660511
Ni 2.073498684650003 4.1244281599538795 7.316760003421607 -1.3562296638847997 -0.7201587963873274 -0.21695585539689086
P 3.322152452570043 3.8468796297662124 12.908783619583362 -0.8363788299250369 -0.16812417860616852 0.29843642857088604
Ni 5.068170891726229 2.5448611097760154 12.080551933431225 -0.9091119959237053 0.7417023268860581 0.33706442535572917
P 6.701796704101745 1.5420627428880527 7.788814587981441 0.20379489253490063 -0.1004817968668463 -0.25239054205541694
P 5.61607800718072 5.383732669963871 6.215940571473134 -1.3313938357880424 -0.5579023894158457 -1.704155457435065
P 5.846165498116119 4.08061298723805 2.218799420982797 1.1428288728290188 0.2065680844046636 0.5700829906424375
Ni 7.683358361088371 0.9747140903953448 9.940276519660522 -0.1894082847959254 -0.5103935452016048 0.32107833434011795
Ni 3.6721648935365208 0.5074879656292012 4.746943214807721 -1.0708891492659236 -0.6125319038352677 -0.26189771021490377
Ni -0.0828962710153098 3.115568771285797 12.077721297457884 0.1983968614477809 -0.40241852528150696 1.4029270679413388
Ni 8.769835842415457 8.057133708820267 10.457566684330457 -0.7633466446287112 -0.6667230451656905 -0.3406673122156391
Ni 2.01710804842397 1.941479451463784 11.486660632275775 -0.4355962975850562 0.31774104243676893 -1.1240539062143609
Ni 6.453507640889253 0.1232848843949895 6.065365358171381 -0.15722450097452925 0.5728813793231811 0.29855778464009874
Ni 6.958765520642105 3.176993294303259 9.198897887597251 -0.38072381391689264 0.2598313146041783 0.2354893954247041
Ni 4.519181120472847 7.258985048327931 4.893618091192954 0.6216446647698132 0.2503580850064205 1.3926254289050146
Ni 3.841873503379884 4.451482745902834 3.463721265110589 1.5481907970095659 -0.40044520360522 0.7896654850288981
Ni 2.4942538912791044 6.432696590532779 3.482167128952561 -0.16495606529083204 0.845230623888712 0.19712056583851859
Ni 4.2989763337529725 7.74299696471108 2.624220705181612 0.26923743840942665 0.05101197227149278 0.13179886181257303
Ni 0.8085042169413917 6.105808567014424 1.7308853169894556 -1.1960597071287014 2.153037159275118 -1.0708608671311493
Ni 2.2182506903086576 4.520698689284969 1.8970896383623885 0.2186792658459008 -1.7451817792487558 0.739936493234887
Ni 4.156223077261503 3.179991418054036 1.3043651995679655 -0.08921547992440763 -0.7668250900956148 0.014916769210832372
Ni 3.170932272523139 1.5654277505137064 13.324281005486563 1.3819705202943298 -1.0824940804947034 1.014475546362885
Ni 8.352772769664629 5.779605300155198 9.74392439834922 -1.2806965665434913 -0.5060226698274188 0.305116668804539
Ni 1.3390509003933124 4.468462860355537 4.266274576545424 1.1140307176504038 -1.0540376249262233 -0.269825963923045
Ni 4.141519316026982 5.719559543924358 1.1179189161431047 -0.4952770012751405 -0.07045054061207867 0.7291879964691313
Ni 9.192034590109747 2.642827579373163 5.096660470133305 1.314803278419213 -1.5464581305891751 1.9562246115953215
Ni 0.3411383648029125 7.121580296552353 12.730011237474919 -0.024017188850203798 -0.4856515623702346 -0.5592951559983143
Ni 8.754697168167707 3.492009117907272 1.545679923672555 0.12401407566083159 1.3494807751967404 -1.5283699056288969
Ni 6.141045774554421 5.654794518826556 3.796956242581593 -0.7337172517980525 -1.1602817781981438 0.37686201696864124
Ni 8.628914772660572 4.736831949923541 5.438915728568064 -1.4679718641568138 1.2217861653605282 1.5177983007606377
Ni 5.590927080160314 0.025079675313983987 9.003588632170866 0.6157624949574234 0.6458418308413071 -0.6139336692788007
Ni 1.6517533569056766 7.122015209565584 10.42523876724492 1.6269516572595528 0.4360776080968489 -1.907593480851179
P 0.010590594545568635 6.743280002789193 4.62250627360109 0.558813074155573 0.5029787407947724 1.2781460322074956
Ni 7.477024523450023 5.836171752280196 1.251212351923404 0.29411646103929345 0.03456333979716628 -0.0512827094343762
P 0.8498635191527274 8.411337970956811 7.84572434378284 -0.4481448236740282 -1.022159288160388 0.6266290053582821
Ni 7.248926528213442 7.17154902573197 5.792181689012237 0.2939030594769067 -1.4171905198388883 0.2195102463876284
P 6.9738764344847555 1.1803724248429317 11.937871779339853 0.74602100886607 0.810146121480753 -1.0122330301856115
P 2.331503889647421 2.5753235276388478 5.444034747268465 -0.3638164966385928 -0.15092375556748203 0.41827606113905386
P 5.664177535750285 8.994417519672732 4.002761707176208 0.18582648098193805 0.42686071748427135 -0.9728411586515504
Ni 9.049457149517242 1.2011001939841057 8.022966202223449 -1.3403271337219305 0.3067529188563814 -0.21061422944957922
Ni 7.420458071325024 5.877941908487008 12.076678431572969 0.4041547912463233 -0.48206924433561493 -0.21520827657816485
Ni 7.887989560547266 0.6340208174208657 4.0872042327555755 -1.75743128604007 0.44064183042876365 0.6967031364675484
Ni 7.851558655587979 3.131096091204945 3.4730256275532008 -2.5749215065907203 -0.38283109006788263 0.5734516500043544
Ni 0.05013991834439812 0.20894053967721812 12.239550578987089 0.7342960071196579 0.9230131793858297 -0.18213746216612503
Ni 7.654718876493758 8.21696886791647 8.043281266675473 1.9879003454320472 0.6832974045846039 0.22891919840635414
Ni 4.489912400029305 5.013362598590883 11.534021734069682 -0.28459566603305186 -0.5481016012753399 0.29604273152772886
Ni 4.21170687358761 4.514776469530347 8.034654258117296 1.1589985406103458 -0.45529197624177076 -0.5363256916863344
Ni 1.1505114824239275 4.498527379078606 13.536302950129858 -0.2755469255672222 -0.39286482015480084 -1.8249317428848892
Ni 7.174611923761313 8.105890233643859 12.325632819161019 -0.4561453253810015 0.9547472772643171 0.7445220557230403
Ni 6.532985680689942 7.310545374066602 10.016783270768697 -0.4911611793345541 -0.32664708667714715 0.09626827300613097
Ni 3.1872091233799806 5.518259593077438 5.667270970225236 -0.20327013037968217 0.1929162979491839 0.035857118907925346
Ni 0.4765193830467157 8.161068665513868 3.1010565568464656 0.48413332595349523 0.06736573103916786 0.10858205737647753
Ni 0.853993342084739 5.367770437031494 11.281667622203745 -1.435592419384844 -2.819850707272086 0.9447284595757343
Ni 1.9568031950788665 7.774727107740136 5.781875175945523 0.7185127761434723 0.26532499072889787 -1.7538525675498764
Ni 2.6072294865668693 6.226806919376028 12.72968644073525 0.481159588037152 0.17554746765343315 -0.04979249804209489
Ni 4.303001592492442 6.141055028022787 9.55175762078013 -0.30766128960326367 1.336559439149382 0.24848040836773336
Ni 8.484283062090684 5.312397682325787 3.2793681162302524 0.20417567291308708 0.5856913866036558 -1.4492496051569623
Ni 7.006476403540272 3.618605818630666 11.63909116598503 0.6436877606127818 -0.8459333063826915 -1.3719277913463468
Ni 6.588034564002819 8.754317775964676 1.5127958731381843 -0.8483686552970615 -0.763030656050189 1.112041455134517
Ni 8.427883172396283 3.5698122799336076 7.503279389246565 1.5226728552441195 -0.634500694796875 -0.39609001196031784
Ni 4.511981922083636 0.8812198220597732 2.318166865690647 0.8038050097540738 -0.3556553009840391 -0.8926129698274174
Ni 9.038954462921156 1.2349493812691121 2.3419769651447337 0.9108161230990057 -0.11431073233013862 0.31798761122993624
Ni 1.0776589259737206 0.7665119774937811 4.4631689511030075 2.0336670101442005 0.553116280881112 -1.6220722176800644
Ni 4.082482187848102 8.192585978770492 0.31238506254739007 -1.399062699889926 -0.4559249818400793 0.20973954015410973
P 3.8833753090040655 8.214664754293189 7.049129340629257 0.8047977126846462 1.9296779714550443 -0.5811063383361347
Ni 1.016771104121522 2.0130180154059345 0.589894728167918 1.3006673532384634 0.140546526098216 -1.0273801702396952
P 0.9201130749514111 5.374016528178946 8.89707010710931 1.2825313057593848 -0.49097837389978666 -0.556297506822571
Ni 7.365251879049915 7.614059136490937 3.5291220034851767 0.3497173382330493 0.09295797768597538 -1.2692955237954011
P 1.9126456440334723 2.5479702751471915 2.7933509732520627 -0.5230168903925703 -0.4311668010587929 -0.6855939139282644
P 1.6104181137120943 8.318488669366392 0.5564101275365553 0.40550102086157264 0.15125028566896534 -0.09702520577681355
P 6.102079419262687 4.9679095619741656 10.039359882889517 0.3864329484865281 0.8748615593812675 -0.15653493110667233
Ni 8.640861000321848 8.135473572011865 0.9812942317508311 0.6623760810509044 0.39232951647662107 0.41821589732507974
