# total energy = -381177.9515415633 ev
CRYSTAL
PRIMVEC
9.14837459233025 0.00000000000000 0.00000000000000
0.00000000000000 9.14837459233025 0.00000000000000
0.00000000000000 0.00000000000000 13.38957094775040
PRIMCOORD
 96 1
Ni 6.365557768332353 8.85676072293704 7.116851540826272 0.5739908103372761 0.5868650951967828 1.532029613868671
Ni 4.06286621459867 6.049389952448537 11.856879506435895 -0.4540298216998955 0.5936186118705324 -0.5120663049183375
Ni 4.777775072817905 4.42750211753551 8.129344207371847 -0.2836268743618793 -2.172256926736678 -0.7951342214529532
Ni 2.574297638391513 1.5300747504162102 12.002076099498304 0.06411482820203797 0.8934429219278807 0.23057498884222227
Ni 8.447617979020029 5.836479837313581 0.06374770181254662 0.004010663821289867 0.6726404390913899 -0.40601498438351363
Ni 3.1701678501906025 6.47684774171854 9.499659067673987 -0.8785384940122224 0.09543652113345498 -0.05495141653521504
Ni 3.4196165722885197 4.008652948483871 13.065087918615452 -0.596036734393722 0.02138283655115027 0.46670073229934467
Ni 8.76388642702117 0.30687123791792736 8.955158807256575 -0.6155251821356367 1.7421306511272578 -0.6203976797365897
Ni 1.9056246638955663 4.913884585685944 11.221384026184285 -0.6394102162833505 0.05698593046674056 0.5069359256703075
Ni 7.43685984424215 1.7389046906123873 11.118230616902467 0.22040473317743975 -1.7674519035008658 0.13758924324210497
Ni 3.7115137511486167 8.779896082050008 8.475116162497562 -0.06232662595336363 0.10612999629155916 -0.13951808483370165
Ni 4.652140448525878 4.954073393995481 2.6276500424844773 0.18631756168574362 -0.8998480541232761 -0.6898688871545344
Ni 3.5752578642917423 1.0048848784758702 0.7806911584765888 0.3352368852286872 0.48612593090349177 0.1213612114190168
Ni 8.767692150730882 5.646559586800038 2.4999799049102123 0.6847089402201497 -1.595590369339452 0.25106796658925146
Ni 0.5952673339325745 0.3003639992767769 11.399438835227881 -0.6867761071618237 -0.6727731080145123 0.2919117400784908
Ni 8.746531960969907 4.325204996088379 4.74802181507488 -0.21603745734767954 -0.006407960408872836 0.4520665273259375
Ni 7.491301819714505 6.247854784560328 6.3009574380348425 -1.5561033669884232 0.013454325732692958 0.6568317541939075
Ni 5.191080327042415 2.9972452791305355 0.993278335998677 0.34586531147681077 1.5327945170591537 -0.2841418663250848
Ni 8.863658597160894 2.847943810518734 2.6652471163542026 -1.6410672707253287 0.2234314358189055 -0.026225509355432254
Ni 7.383588860680475 8.506460322531739 10.555520517436541 0.14071441913464797 0.5600171217660033 1.7876147516019858
Ni 2.988664104035078 8.457845861489881 11.254898180602941 -0.29239125081807066 -0.651993966485632 -0.04856659605479378
Ni 0.7168702696696246 2.017591616980116 4.7459872166300725 -1.4704727762017966 0.33343814145705153 -0.44536546115667813
Ni 0.9095478401978485 7.746587204617222 9.7710254649251 0.7006217547956642 0.4265938369761298 1.6314873403463772
Ni 1.668645175971539 0.5140279404542333 6.248189615059789 0.8339671351597508 -0.779921775378573 0.724374634240888
P 7.175628016043007 3.023629190618063 4.064256767492604 0.3041054539312053 -0.26756210758953275 0.20679485570348902
Ni 7.234159314828442 5.125577967038708 8.544192792341137 -0.6406201774310515 -1.77481477162384 -0.0183479063795684
P 2.9368477119874523 3.5292232448031036 1.8770570354621061 2.042091743872786 -0.8646339681159884 -1.2461723075143765
Ni 0.8982550869592204 7.563528234830325 1.697221952779302 0.07562514283448267 -0.18917945661457095 0.6975282034720051
P 6.255255819370803 0.7445285496974471 9.27786130690445 0.11414026819054535 -0.7623220600189387 1.184033629202103
P 4.028120688998938 3.0428865185241807 6.320399563101864 0.6483347724664899 1.4439981269500357 1.216973060242601
P 6.679520826009341 5.23580672900584 1.8349068157021784 -0.21404742350084427 -0.03504156498516546 -1.4062736158160685
Ni 4.384706022549847 0.9213327759739345 6.518363979139326 -0.9534650681177838 -0.43363480298331125 -0.3539599155594872
Ni 9.011331655146906 8.10891771722991 6.982151792438201 0.08426996299367422 0.22608609983293323 -0.6600662019708051
Ni 8.40308369291695 8.641042056891312 0.05264980894655536 0.3693112012045769 -0.35810119142137037 0.32437834524762843
Ni 6.743449665633071 8.47397444538465 3.8901256961872175 -1.1405853282104808 -0.10403994653174985 0.8148283574477709
Ni 8.79887895872706 5.408985454546368 10.35268184757087 1.6567348020592563 -0.11687849305731482 0.6937242563448827
Ni 8.208168430034409 2.890456305901028 8.973007285520156 -0.8153770308623892 -0.4248316028693845 0.5648546523639626
Ni 0.9642935416970364 4.04660040508937 1.059163098048216 -0.08962942753337468 -0.014019968428175855 -2.1789957881224087
Ni 4.14001445508907 7.169837095109718 0.6264468232293112 -0.2509059870900905 0.45278695043172984 0.021531703424188725
Ni 7.698174007810013 3.5934814259017123 0.3019887505528465 -1.0306704109551927 -0.6906085935340364 2.284036922225163
Ni 8.543008077869002 7.159783031751608 4.444895921596271 1.349779537384082 -0.37322262044384114 -0.5446984891310619
Ni 5.125001619457668 3.383992802755777 4.444922451881747 0.13998088340273313 1.1011705738582842 0.6349971748173193
Ni 5.772679074930081 2.9659395422684285 9.7797017831133 0.7158897366983284 1.387100128211411 1.1761732526174196
Ni 6.851071140924079 3.7566884234528493 6.408020862493416 0.45246222010245946 0.17451645528575752 -1.1911154757495486
Ni 5.232979881346462 5.501722524847707 5.807860063146597 -1.4953374006539604 0.3223888256214254 0.8099306630358375
Ni 1.9522996695853592 8.751435489595883 0.009695447085464957 -0.5596867350097781 0.6820635321775027 -0.03688478884149131
Ni 4.262474593498236 1.2454871226235662 10.345504947930799 0.5053513547920071 -1.829056306576224 -0.9002704863726755
Ni 1.7147346857059913 6.485337433070977 12.956779400414351 0.2749727982313071 -0.4186344729197371 0.17731098731175915
Ni 3.508456435137124 3.398465530901848 10.456022798525881 0.36159043552155146 0.5481437673671851 0.9288655244015487
Ni 4.1435548759440195 0.03384989975554716 4.323532673265938 0.9203389749877763 0.4919646490724559 0.23010730517718433
Ni 4.287111165494044 7.016062071464144 3.6670416739907923 0.8869025497062016 -0.4940133040713686 -0.6117142930299788
Ni 6.482300172802648 7.468714483562389 12.987066923216624 -0.548049664991482 0.8661018109107664 0.3005586171202114
Ni 0.012928482563860236 1.647347760596032 -0.1593381500587391 0.1948824205366192 1.1553948824194875 0.4788569080459043
Ni 2.166060583530419 4.319359184909277 8.954181760881102 -1.7718744580485937 0.641576884917366 -0.9656937489734916
Ni 8.720120604359474 9.308470852482161 2.6192811096728303 1.0058060436133454 0.1601198202444533 -0.8317667850743222
Ni 6.9513464716504245 1.4781668746255625 2.320372616747533 -1.1329362963056553 1.0094323275120227 0.5025349683891346
P 5.518884875038622 7.6925752027370695 5.701720624492546 -0.9588217044440068 -1.1902274167176405 -1.7253940550988673
Ni 5.026473628223043 7.793527513161778 10.235255144702771 1.0301307364016385 0.5346642448235115 0.24164538772377095
P 8.808310932632622 4.033170591613749 7.277526268370562 1.0719523004231153 0.8971584231062549 -0.6913688687388286
Ni 3.1126520209527104 2.4227090762041628 8.237960110949503 2.431703861418244 -0.8898297506553257 -0.4081785676937357
P 9.097765495554034 7.242008619979725 11.838120764929247 -0.1299021590104924 0.21719959597658078 -0.6700582801865105
P 3.1322112452108004 8.440985407650938 2.297409282411596 0.47949145630610973 -0.29710151180954636 -1.2804412559995755
P 1.3055827934146773 6.0938053096856875 3.914052354337175 0.2663881418860896 0.23962115820489055 0.19189171333941146
Ni 5.118167783853931 0.16262150159579644 12.491786746219876 0.07289411705656479 0.2661089200827739 -0.020919266651170425
Ni 6.5977801016192394 5.706938857194517 4.017554316679905 0.48463571951121054 -0.47970408653754804 -0.882044707393268
Ni 5.372492589454917 8.937696390388549 1.9355965677844136 -0.2497057961344022 -0.5612515083937367 -0.4344318449633099
Ni 5.143499632296705 6.620678482497631 7.996064286675477 0.9178324065158386 1.9543572193692793 -0.3350489375875972
Ni 7.343903212957559 7.38264657812735 2.0405705035523662 -0.45621397383540785 -0.36298448765560065 -1.7142609213001834
Ni 5.187686280176301 2.668406964838181 11.987695769932685 0.3872780700956427 -0.16855638104758067 1.5382707096823764
Ni 7.385107490814639 3.894023818477382 11.484086912971222 -0.4820355628842021 1.3947689576105784 -1.336575637099298
Ni 3.109477535069849 5.094253933427996 4.706139642682007 0.4704167476983512 0.20168813060454296 0.3449991068217736
Ni 4.425873706909719 1.9719503775864713 2.813469991635777 -0.7451370635992199 -0.8199937036987942 0.009617468485106017
Ni 0.9812454792790014 2.226897272640007 7.713651227454465 -1.795944868734236 -0.40415993345264584 1.0507607539471646
Ni 6.877189749556842 6.319276142737555 10.983357964240085 -1.4498486721935417 -0.9490918787507524 -0.2158860193714798
Ni 1.5837482624471808 3.947971781737419 3.3837183515267117 -0.2535177136813247 -0.21118527146170082 1.2106864559029407
Ni 6.364386776421672 1.1951527672128963 5.040610611032222 -0.10330306836572531 1.4951461105787605 0.29863131819051153
Ni 3.0532241814856595 5.691514698121018 7.159871770982339 -1.1394386162005474 0.8094958894912639 -0.8560894209800869
Ni 2.5301933258806373 5.779448871913705 1.845243563826227 -0.029686728431155326 0.07707807323092532 0.7457052773978641
Ni 3.02953904041728 2.1690338051786315 4.716489198530079 -0.11670108693918611 -0.5496267796706147 -0.60091154598752
Ni 1.4727418886643617 1.613535369175124 1.9350339427648289 1.0824740258900454 -0.0213920925225309 -0.39110952802659094
Ni 2.574142116028376 7.538205534761853 5.304800108643264 -0.5376706357500031 -0.9840642810608793 0.8422905674237817
Ni 7.409652579067426 7.2854816946637495 8.603455046233318 0.5392472362085036 1.132117914169418 0.04696736988847395
Ni 0.6061191355298367 6.112092909915773 8.392769815728656 -0.23464504514653786 -1.8093554857131868 -0.357898588492261
Ni 5.959104646460186 5.321682518580533 12.958011686432855 -0.3090465999865645 -1.9198267896925771 1.7015252189010694
Ni 0.8726808065974379 2.654830777373725 10.565669723887396 -0.19985647671244292 0.508096521637312 -0.1467814512643343
Ni 5.980026978489303 2.18775137900092 7.7643707294232565 -0.3013320049511262 -0.9424712881104415 -1.6259499554679162
Ni 1.8498836192722998 0.09131083874762623 3.794510547330409 -0.8024590372491406 0.08072929683026742 -0.1828990229224979
Ni 8.13531992546604 1.2767654143627667 6.722943584634704 0.5719961485047503 0.428139841307011 -0.9582974565094206
P 5.0018370562272345 5.309478587261406 10.042552873563933 0.7488751904854135 0.2211794065599352 0.47800407312730586
Ni 1.7718754315974936 3.598595367136639 6.134753433062306 0.1000663065959825 1.732746124588564 0.1293758541933772
P 0.27090897853600365 3.739535221636236 12.288693751548605 0.44377549096173896 0.5875217549441754 0.5496902859186985
Ni 1.8896607507382384 0.8963567992915152 9.523225279876439 0.7346973563231346 -0.9454262569737074 -0.10694992108969321
P 6.49769688675324 1.4993087676379324 13.64477557111139 0.4529790118378779 -0.7752727066423357 -1.5444043333839401
P 1.9524460435741942 7.753238072734917 7.723344844865069 0.41323618472230117 -0.16063326954576204 -0.8311103824372461
P 8.862185708898242 0.08171327926719475 4.689134644529089 -0.3259562312577096 0.8020828848566445 2.5583324918837875
Ni 0.5984665204260515 5.924569533469405 6.209600857415705 1.76415754902031 -0.44823918316004746 -1.691738828938267
