# total energy = -340867.6647323236 ev
CRYSTAL
PRIMVEC
9.32154030978501 0.00000000000000 0.00000000000000
0.00000000000000 9.32154030978501 0.00000000000000
0.00000000000000 0.00000000000000 13.64301647909981
PRIMCOORD
 96 1
Ni 7.186021897885151 4.324383648716242 8.119668289975444 -0.08220948092021972 -0.05511082493121477 -1.181192817319198
Ni 9.11442483488373 4.40027030695647 10.998276402960387 0.02473838328694449 0.3094088684219897 -0.6360554408785046
Ni 9.054571225675954 9.255963100295794 1.9056015176739958 1.4890309988199582 -0.21869057869981046 -0.8690904612254452
Ni 3.202135467225543 6.294733516322979 4.237916110268609 -0.5477395899502308 -1.2736514867712516 -0.10784440787950461
Ni 6.096072852962736 6.152132595335507 4.395712073830383 -0.5886967490888829 -0.4054827660291275 0.5609967120704532
Ni 4.1566145693638745 1.6122629033150826 4.567831515963824 1.5830564985384994 -0.19173333338467627 0.0009559361553660955
Ni 4.415128841931893 3.949583162962269 13.340181928200053 -0.16232556964652042 -0.6850377843144783 -0.9091245943291956
Ni 8.465310066032664 7.872777045801938 11.604749786463225 -0.6019631271804858 1.450572951954076 0.2833098573420927
Ni 0.4045883994098468 6.679741088524937 1.1064351208054362 -0.71662481509214 1.0383621231724955 0.6473199580487303
Ni 4.276685327844697 3.0550881715936065 1.8153121477709528 1.2749912886285977 -0.5196937395566081 2.290419685823055
Ni 1.5775494878517968 4.221613668726251 4.702051440215786 0.36175472901355765 1.3419196750200308 -1.0866914064055029
Ni 8.109003515906823 1.001030873573253 3.759578481771523 1.1125230227566258 1.6963297907430592 -0.3244369663997058
Ni 6.273126186289709 3.8826078970912414 3.4322013314551088 1.2836605342678216 -0.39166077254437065 -0.06525665511596503
Ni 4.97172732494163 8.056849498850678 0.2417606684831204 -0.9403177321025483 1.6032702544822133 -0.2632007452970435
Ni 7.9947866846308715 7.827493003825397 3.577212802721529 0.6668731975903096 -0.4826513420913301 1.054114758021062
Ni 1.1168789743728542 1.9683550580178157 12.668809185814284 -0.8868547271874018 0.4370777672265892 1.0431839700411711
Ni 8.604806914155132 8.826156206204322 9.364920718627497 0.44641575679806345 0.6281333578179504 0.0877599784248037
Ni 7.529669796507465 2.826924833705624 9.928691194617212 1.7320964068197073 -0.750125775063063 -0.14204830745472308
Ni 3.568434708376262 8.413911093727465 4.4850870006461685 1.0570100772909858 1.318181965083459 0.9027883676985226
Ni 7.767797860799917 6.665684206001137 8.625059824406765 -0.08912677686534329 -2.157093845842995 1.8563056292104803
Ni 1.6670176300689332 2.3779528530962906 9.666649651262054 -1.73712034239686 1.2030762476558508 -1.6849408321798274
Ni 4.982381845316102 8.535081793944236 8.88798877838279 0.8817410601099201 -0.16230294393870112 0.3424372596318683
Ni 2.1527910511318256 2.9952252408456954 1.1440447387887118 -0.2726595767170982 0.9924797588180843 -0.691469655982751
Ni 0.32527327870791184 4.08131516815216 6.73536644712741 0.056741161445786156 -0.7700852489041253 1.4540295430441088
P 1.5455766051882442 0.11837889894629362 8.148810220899952 0.16425826789285905 1.392016591676422 0.9479019722077096
P 0.6623513558429732 2.2440582505950455 5.004858875043981 -2.4857327661391895 -0.06654297802755636 0.9805500972600338
P 2.6188214501884772 4.426454513196096 2.7418778979745877 0.4759433339435352 0.3764953776578419 0.35175673726058126
P 8.42047345798261 5.546894315900577 2.5526086863005046 0.1033452344575704 -0.3869217151974885 -0.05247492997026447
P 3.6718385530954425 6.986279935869231 9.859398593868587 0.05550394660457538 -0.8702585133916174 0.5194746815672666
P 6.934703854301466 5.67084283507762 10.52036197238544 0.1752942139920465 -1.411597599132143 -0.28675102181315776
P 4.931980277805364 8.319549142939378 6.4818103017572755 -0.01205410295105666 -0.7426145542876823 -0.5467373739379616
P 1.700509923774515 4.094943259829744 12.231741744111547 0.8683924067171561 -0.8735600669610245 0.6381699161183461
Ni 0.4303708472696487 7.593289307929839 7.6953704261038425 0.43247677811946805 -0.18186466812071259 -0.840193832795753
Ni 8.986868879674384 1.4964614102161569 7.845130289915107 1.2330920772916505 1.0543554132769584 1.0779411710166984
Ni 6.319351703819901 0.10710822476888793 4.721343299679485 -1.936111385785214 -0.36618988196677577 0.8606428446787242
Ni 8.106486700070333 1.423641538680392 13.367796058696412 1.2490218611480295 -1.0219224895592336 2.1844902355780764
Ni 3.8190909226103527 0.6838188627742158 6.935127052223601 -0.5475647549352635 0.5821093256793524 0.14192129495855557
Ni 0.8342508096292243 6.012467959490606 12.427505272797786 0.1428270946022766 1.0367112178326339 0.5981733211207505
Ni 8.623384743644479 1.184283031090099 11.273360645272644 0.20925591564947188 -0.6496660896834037 -2.0333602775370596
Ni 3.097361356106496 2.317250983736216 11.572961470294349 1.5813171472498897 -0.6837290928053837 1.1155700371130657
Ni 4.481777853898191 0.26043917060592703 11.333962774153273 0.06797148294396681 -0.3784100781820515 -0.08981557540225177
Ni 3.8670036389050058 0.30979486131350104 2.5165632227519064 0.9944178563810616 0.2644181626439124 0.2310215894613376
Ni 2.562444775451111 7.611820529718511 2.1501940700501736 -0.4615114747889213 0.5470397356697289 0.6107652988531481
Ni 6.595809941148078 4.458865508246001 1.0180417521658818 -0.07318799414789977 1.6245839283583245 -0.04166446961832179
Ni 4.194301556130272 4.210856611410292 4.357511470202539 -0.33026771414886996 -1.1338469810453828 1.035411268074288
Ni 7.679532197260215 3.5299460691582416 12.75814403000749 -0.1355156485425279 0.7196726007795283 -1.001400972567114
Ni 7.864732556665308 2.751177998567423 5.809537098594452 -0.2248712535892256 -0.40286975388631263 -0.69793366644054
Ni 5.087994895047312 5.177043567958367 9.195365632185235 -0.6363398048881428 0.7882182110594103 -0.07604757508388194
Ni 4.568924932621676 5.461770011386418 2.153317718149461 0.7340548376431294 0.8726118441151425 0.6777368797776909
Ni 1.6700005229121804 5.870575475553405 9.067489948149253 0.18823226220995323 -0.3090910800712548 -0.8294887876734232
Ni 0.7725506033206757 6.837116650626616 4.080285137967227 0.32349722819425575 -0.40897201012930856 0.6310194211164939
Ni 2.403848091591728 2.6411745034325587 6.32565306495126 0.10263175333031356 -0.9290706984338194 -0.13522665654719937
Ni 8.327742776718171 4.961436344632427 4.890680262082584 -0.12891254140371347 1.3270851811103594 -0.7597368157902658
Ni 3.212967096862583 7.422761052697468 12.065010152176221 -0.23035490241161619 0.42502880648185504 0.09020689730339948
Ni 5.069500959419181 1.084234940819571 0.6935682616015656 -1.399581034287241 1.2133112951202973 -1.3962260017720791
Ni 2.1992123210048553 1.9350491951149373 3.626791278238333 -0.784018828266082 0.06953728476918992 -1.5681392151070348
P 1.4178435407163308 9.081174901221662 3.7922262439408603 -0.017807460495066103 -0.8191781497760344 -2.426041006705512
P 7.764218389388022 8.156291689012422 -0.01592957993695194 1.9847186052699561 0.38592952648754825 0.8438370859752952
P 3.8004291992597894 3.373101834844266 7.890138414303649 0.7128154686483787 -1.3803923771739324 2.1978846546071114
P 5.00264687356991 6.0642491149413456 0.07023127984023465 0.17607814334592256 -2.110684919561152 0.4826827095498978
P 3.091143888836353 0.22165783502766334 12.994440411663385 -0.652833688778108 -0.17843713049640236 0.22907320748571516
P 0.1228746777534748 2.1721332469122547 1.21297473162608 0.5753879477951187 -1.0967220511686273 0.4046566705834064
P 5.955559956965536 2.2623750769606086 12.816467974479087 -0.2279833168556461 0.9996315393715172 -0.9328103679819097
P 1.2341346277328629 5.968507576213255 6.362762116229279 0.854508192535896 0.6288473531658396 -0.6801976826133576
Ni 1.7096450331069584 0.4936641047872937 10.79543223238749 -0.0008664617653533465 -2.0040409597476514 0.2350019142653243
Ni 6.637645013274615 0.10820537004279467 12.36929039034577 -1.5306242488807122 0.6803257235507897 -0.11022987739254565
Ni 4.81398822277468 5.632102514275951 11.643277576149812 -0.046475774964036085 -0.3278974141444804 -1.1105232187177778
Ni 1.6018227783637182 9.068497606637862 5.872459358814719 0.9728424442031309 0.26332415824878525 0.976009529077203
Ni 6.860700147168537 6.986205363548151 1.4864062648723744 0.44388476284609363 -3.0819008839044537 -0.5312889005933754
Ni 3.683387941322889 1.1669915741394021 9.349654832348167 -1.6196492100608688 0.5112808329025647 -0.3962393930539886
Ni 1.98451860861216 0.6895068665646822 1.2314854460264542 -0.19344620231072493 -0.7995143527985199 -0.3174335384986791
Ni 8.60815334706365 0.04197303092053789 5.963157944329694 -0.17787045935965495 -0.7024276976561517 -0.7955761940863783
Ni 6.699689184414151 9.260745050385124 1.6751581310689567 0.5268501480957314 0.3061307118913502 0.9859823240191986
Ni 6.127561015539261 7.580006113237255 11.092467769564003 -0.9266741731771847 0.22589429553710128 -1.0862149809897164
Ni 7.242128247958598 2.3767410528787214 1.7039989762471004 1.259976046166688 0.14857325305743446 -1.2796807236844672
Ni 5.197662814737312 6.291955697362705 7.136579516854321 0.5774013786807217 -0.2546613403674647 -0.8401508953729595
Ni 3.1022924508379885 4.93108540995239 6.72686613467817 0.23068580338847366 1.5358086212951292 -0.608869624492332
Ni 2.5884425508880344 5.620683627610397 0.8874404497943841 -0.7595136440358662 -0.6959780853760659 -1.2585678529652518
Ni 2.981932724612976 7.7699511365711365 7.812400498192581 -0.21423357136972138 -0.7165520528726756 -0.46245069877373907
Ni 5.464557151886827 3.390523793356855 10.52588684922354 -1.203992845932849 -0.47845710150432436 2.1975103019868287
Ni 5.657755392727875 1.9535897384437437 8.604473203018294 0.8862646590118867 -0.1748231878928989 -0.008030326503644233
Ni 2.9967912595884 4.170773988829161 10.385513776328368 0.5420913905255179 1.5445326314316885 -0.5673776758961325
Ni 6.997913217957894 8.237855165194953 7.370175448333066 -0.8306164735199631 1.3912941116881006 -1.4686886877181802
Ni 1.0067449776760977 8.627952298310701 12.873768413843846 0.290352623121487 0.036670358837840075 0.930705662934081
Ni 0.1998389060333258 4.304733842111353 0.6672488930299794 -0.6844335750715761 0.4604940892680004 -0.5328950687382306
Ni 5.304002944599063 2.6708729303031356 6.347781469078084 -0.18784762517702489 -0.7035512697376335 0.025813104408362
Ni 7.368817299935375 6.077252663429875 12.782182417708006 -0.45569563943809266 -0.7315881212701917 -0.18985797073883431
Ni 9.01272683200928 3.3696621865343968 3.0283950092626006 0.34983406631657166 0.24217940585037 0.5632189165327527
P 8.382199214187697 6.950559794071349 6.017238723731774 -0.7396801542497067 0.9599103095224951 -0.44568530638994214
P 5.935621182616458 7.806640718543074 3.1437462719729985 -2.7601432641091237 1.879096401852751 0.7680209101759289
P 6.228830227567493 4.458315537378027 5.793848014392987 0.618958890407534 0.9004620335581912 0.0882906541172931
P 5.802285872523322 1.758396688013775 2.908391365870751 -2.3726898447778817 -1.4279367026117988 2.5192283267934745
P 0.030360256220172313 3.782718273003011 8.894660204657514 -0.21050727155806975 -0.7138207699844417 -0.4714575302580397
P 0.42242889507450376 6.842765503948515 10.449772745404013 0.6149096600388249 -0.5837574028057366 -1.4666117505844936
P 6.664565621184919 0.26411651818924237 10.125464246100089 0.022322831866916394 0.5639511667130869 -0.239618072881097
P 7.016621549009133 1.1743369477658976 7.030655127682596 -0.8868015053519631 -0.11357513971569473 -0.12124448333549441
