# total energy = -340855.52562636015 ev
CRYSTAL
PRIMVEC
9.40892262866814 0.00000000000000 0.00000000000000
0.00000000000000 9.40892262866814 0.00000000000000
0.00000000000000 0.00000000000000 13.77090933552863
PRIMCOORD
 96 1
Ni 0.721858190170462 0.5445122300363391 0.028400832983964404 -0.9395451156025818 0.14081212105477686 2.3374215084938905
Ni 5.316492918974033 3.972597680688261 11.030540105295474 -0.7934365220355561 0.0008312376520437297 -0.766611174312596
Ni 0.7990198238355916 2.6638729952247706 1.7392384088131596 1.480430915855773 -2.0280733181065074 -2.2303947114196747
Ni 6.733128538177159 8.506644593054217 8.965123516269694 0.5398105649111413 1.4251750807062618 -0.730279172650781
Ni 6.2735120762147005 5.315222714417851 13.208532571905 -1.5110602107058555 0.08302297796045056 -0.19129110364093507
Ni 7.599389227647967 5.882147939071087 1.2673583570838316 -0.53160206095842 -1.8167116689679421 0.16002571786875022
Ni 0.7513824485174495 7.69630113082333 5.261630431961875 0.4630983596600669 -0.9278460819980989 1.4091041432863283
Ni 4.04046423967893 3.7365466295364635 13.064998516164176 -1.0844702303844678 0.6714618454022565 0.8946569968406399
Ni 6.939597936553873 7.878646051555226 4.20695794844194 -0.26244972606363187 -0.3622434957245181 0.35673876385620495
Ni 8.518481017733306 6.52987699134277 3.211238010605068 -1.1491676705628533 -1.4516335320081064 0.8798929511575878
Ni 3.9239065060346197 2.4292897360045616 5.422708364854231 -0.47107777832111775 -1.957630747914228 -2.116449589959071
Ni 0.7986124174853495 7.813028225075131 12.559922844474364 0.2801923947590335 -0.2809552410669871 1.1321824488587662
Ni 1.9240494081685768 5.009395092979793 1.5812447207616664 -0.9822277420727729 0.2873801707567244 -0.020232267886474836
Ni 5.254563390168185 2.1683144487836836 3.4055454355794073 -3.084043127058437 -0.21529543697533243 -0.629583974221548
Ni 4.441209072693014 5.893608006844639 11.542541684939401 0.3252988001793688 -0.45165797903360927 -0.6890772444911746
Ni 1.8871382046581935 3.9171508995802595 8.904999559718151 -3.285096709402775 0.8699674645137598 0.9308424456222614
Ni 1.2783244564188692 4.262392497950511 5.726068025884241 0.9162308663566737 -0.4874135393666639 -0.14805286177759017
Ni 6.699670409275062 3.079474517084864 7.021896841979561 -2.30490065304805 1.2985379656002864 -0.060160471539980255
Ni 1.2808272298406793 3.3405062578415725 13.334702460916683 0.39168339825218995 0.01682787019061618 -1.1102848774547265
Ni 1.0534888410520267 7.3612776224383625 3.095384064374109 1.1638463556209504 0.832539658684605 -1.4494046426775875
Ni 5.287005355425336 7.213962120689174 1.2033776831428151 0.22323937441275749 1.2790171219585391 1.0776578354483246
Ni 8.516401645830221 7.856732670730429 0.9429725766338231 -0.06693429992870409 2.879945358571137 0.5177402153746632
Ni 5.024665774421891 0.36738173423063525 12.985031141768282 0.04523264658555436 -0.2926450187000896 0.11745030640038483
Ni 8.985427030431063 8.131887204367352 7.606829803670402 -0.1915746963196249 -0.5399010677424186 -1.7066573979213122
P 6.223174340099343 3.8772664765161466 2.099967093846193 1.8494572388300794 1.2482338180290955 0.4849396239048745
P 6.431619612230119 9.681122770313232 2.0678676133730796 -0.6324258145457173 -0.9687896142899961 0.5100904121388893
P 4.287232053715847 2.00115552919014 11.623501700673646 0.4502181612632892 0.1402513634553004 -0.5193677236757571
P 4.175378781390729 3.812871809979041 6.79262491958872 0.660003724163986 2.1527461103972603 2.5844255894264134
P 0.6508001246208527 0.22689428764012085 2.425525226056944 -0.3986372038622038 -0.8668962817876038 -0.867704379511196
P 8.559503920436663 2.253832146643963 12.75738414031709 0.6289555966089297 0.527583169607014 0.06826124627024373
P 1.5208206195779594 0.1986289431421492 8.21697773713985 0.8866420969559633 -0.2833630791775314 0.20988095082798047
P 3.9311701943114525 5.681323894277402 0.8754249801205951 -0.9955190598650404 -0.5913169603205493 -0.587899192888252
Ni 4.3907960651965485 0.5116957896581807 9.90717778205401 -1.3899375976602062 -1.4266262113304913 2.4537677831968194
Ni 1.709008481268293 7.347465324005215 8.559556610403437 -0.3359927895581052 0.8257043809303263 -0.6239602002768673
Ni 8.539547595520649 4.4997513893490435 12.368617806713932 0.44530041224669764 -0.9290768690814064 -0.3306536367333789
Ni 6.049871394022934 7.455263350673189 6.901235877172651 0.6561105597571667 0.18088404937499816 -0.6734400521745499
Ni 8.5192149136991 4.960732145094067 9.98432247965839 0.7411174009168656 -0.7249621313132417 1.11861345192508
Ni 4.148911482008953 9.573484695330112 1.8350842810535937 2.0028487392117635 -0.267212694669914 -0.3417579741766566
Ni 3.323645468473587 6.743412490620913 2.7934423279857037 0.3963808037278593 -0.2618614576603297 0.03602501194435732
Ni 8.288668082290757 3.620026531582707 0.7417138396142453 -0.5945673489370471 -0.3414399287156055 0.9693395732561952
Ni 7.779005560814731 0.9273556468386321 0.5589351675487192 0.1321603589170498 0.4221149752691698 -0.4957639682138882
Ni 2.3476296964260204 2.4520216930988994 7.30711986373182 -1.1578957944644706 0.22756371281972423 -1.2767689493543108
Ni 3.9799648671141163 2.9410410383063095 9.152173839213047 1.250624429748459 0.5013558604793688 -0.10651720442764881
Ni 1.9947386439507615 1.9745470959687879 10.05638541814578 -0.9835747430189705 -1.5459480237219763 0.5478881997129531
Ni 5.195437720308575 6.865606168925615 9.06387486382086 -0.6752920177816241 -0.7389885274993208 -0.5116896383052091
Ni 2.231975219354995 8.49870346234742 1.3218764775274243 -0.6253303411515166 -0.6155218397015271 -0.992956955564819
Ni 3.743104648615418 0.8119702649550643 7.733233033963518 0.33256936569885304 -0.15469042169876585 -0.4098256163788555
Ni 8.87827821942514 3.6181071113644765 7.683740219101086 1.1530132695611885 0.3771224697188795 -0.10411939361943359
Ni 8.028991226393977 6.702935305430581 12.486523838972323 0.5009491119592533 -0.08570823810209754 -0.6065628307360263
Ni 6.686385010509663 0.8322831880390733 4.252911126607811 3.041822527826329 -1.2302162984057523 0.4268679165731229
Ni 2.6178727724457076 0.13611417934819317 5.722170850127422 0.6290463565505231 -0.1752062822639305 -0.6536626124373065
Ni 3.172030089078655 5.56011815284973 9.519843486476416 1.1374987188653571 -0.9096370151892399 0.6485391751678121
Ni 2.5001201056263223 1.060856027477882 12.514548315050753 1.329805151144684 0.2313504335556661 0.04996450484358492
Ni 0.45272442612984043 0.8631463360775029 6.431730637517251 -0.6278981018786929 0.8326985528599723 -0.8746574137902615
Ni 7.278836642280837 1.0445315467002845 7.011967605919273 0.6120760472447716 -2.93862796001401 -0.08697862017408892
Ni 5.508472576487636 7.992635149319257 11.001606727290177 0.5737056749966893 0.7553695399605056 1.4738632899405844
P 8.537957487594761 8.970118713298412 5.243136253623867 -1.6063311527957238 0.4553901923825318 0.5437777770890053
P -0.44051823079106384 2.8627399841096706 9.722716794620741 0.8230412322758663 -0.47468889271114373 0.15982362916027315
P 0.47506685382694885 6.396900687694479 0.4982974838211209 0.7042069010437614 -1.0491502149269352 -0.23427917716668684
P 2.677628840122089 6.596473345777258 5.143021553182398 -0.15340435589749063 -0.06316711957678799 -0.33528650751969996
P 6.484055538093836 5.7217916705450955 10.382095034011009 0.5217855890886304 -0.24639035860792402 0.05240576729522588
P 3.036485149550084 2.2335182826676903 0.79742124787933 -0.9880448629751822 -1.6355936492052672 -1.0010402467935857
P 2.156365117032935 4.733403165228053 11.443556996106802 -0.17771747872155846 -0.3042625483343599 -0.09047069248774742
P 8.300758547881081 2.618333809654988 5.6887484751313515 1.2638663823600296 -0.35136798646259493 -0.9055379054192018
Ni 4.137761908682467 4.8428853890482975 4.604936558200339 -0.20270988700083797 0.18693616910634903 0.1900358910775953
Ni 4.553617471453797 7.556070547820843 4.784206643014011 0.28940748559939833 0.07804300824735591 0.47345707718657165
Ni 7.867759928062615 1.9374853496961901 2.621430286095281 0.24476619274093972 1.3170151984688672 0.26846045103408606
Ni 5.5403500063864835 2.1582280837153354 1.1932311009695808 0.017194766611731676 -1.588739922076522 -2.5339250095737005
Ni 3.410094649675066 7.150084944897179 12.8650589100985 -1.2506277721825687 2.1516832163503845 2.068934575097243
Ni 7.730916557209947 6.06503857731601 8.258566116093773 -0.7084880449176185 1.4759643954439872 -1.2966487189973734
Ni 8.922876512731083 8.145341963740243 9.934416613092136 -0.1875655751602318 -0.19996934814122336 0.4314686485699279
Ni 2.478225542646801 1.2848542487299082 2.910894850172924 3.111446201661738 0.315687759452166 -0.3718126274701919
Ni 2.648273001490329 5.437209396424509 7.292839941843544 0.9416243667291138 0.6636788590227279 -1.8291828048517595
Ni 9.652519645492543 0.5376634752478588 11.607857485002805 -1.8282646639128644 2.1105090561049202 -0.6067955155721227
Ni 7.568885500454322 8.972602668874945 12.46228739514811 0.3660615839190276 0.2499510793759889 1.7998809705638485
Ni 6.358794551009021 2.9840868593769194 12.908988229004857 1.2164009897892147 -1.3021045999056218 -0.09800093942652154
Ni 3.7993041435344903 7.971690887526213 7.64591164563346 -0.19208428896619179 -0.6370124054751352 -1.0886729556119057
Ni 5.35687601493798 0.3410950861635159 5.887435753593858 -1.4668614047014543 -1.1968960869870677 2.51813149418487
Ni 3.9357429307137073 3.7039635304397374 2.0092170941067082 -0.30324156326901325 1.602226643709047 1.1029130104706877
Ni 8.878485215723183 0.8599331889964946 8.663926025661985 0.12155815792117129 1.2117642623481517 2.027833691291875
Ni 1.80508299032884 8.832767260623271 10.581731672767729 0.9535887381798416 1.1538470783163937 -1.0920426434150872
Ni 6.681398281511319 2.387457665954303 10.522516618143055 2.0361612373209645 -2.0793172038831482 -1.150353463340838
Ni 6.438045906392135 3.485648298461296 4.643578062583921 1.4710412471107568 1.367189505330413 0.3002112610831217
Ni 0.6955781283491894 1.8639546192772134 3.887527847545569 -2.7795772044640197 -0.11086879652812519 3.641470376610077
Ni 5.8045995986855194 4.658733955169832 8.259199336587336 -1.4434455968806752 0.24427485492681802 0.8900570361747834
Ni 9.344527971847658 3.8788095398288416 3.225587558520869 -0.7250084111701449 2.999447148183912 1.458284461665721
Ni 0.9708502735190933 6.570354176533102 10.589526024281367 0.5284807417206189 -2.703086628305448 1.4075712515815695
Ni 8.55083830268671 4.762937773389942 5.3387337303066476 -1.4422238086584322 0.91519574022394 0.4017695788435984
P 5.613937190341291 1.5207077125062987 8.671348724731406 2.5791648552481066 0.8019977813420059 -2.133890668253654
P 4.311968111332161 0.21072505408605666 4.091447427887282 -1.4401864665134294 0.2846208628440324 -0.7303681328201614
P 2.3456067780587677 3.580706643876897 3.898599326814156 -0.2806762763739876 -0.4512746275522615 -0.9279954630917695
P 6.754420930107823 5.628492793662872 4.415725005726949 -0.4095021716011657 1.2615367057855889 0.0736541351510409
P 0.4457345375017844 5.716503856022324 7.683478651051739 -0.5916956838162067 -0.12521298106493922 -0.3500204712957649
P 7.5647455744934335 0.25251666576897025 10.62146084860831 -0.7640066468102132 1.4089912718575475 -2.5452170375477516
P 6.090762571809353 7.66059426941066 13.12725735726237 -0.637857784194566 -0.6960945563492722 -0.5836635575403496
P 3.2281449036939818 7.415557697139205 10.374314795881329 2.225012878282471 0.6188475616406505 0.6116497583406305
