# total energy = -340892.35587046994 ev
CRYSTAL
PRIMVEC
9.03821996213378 0.00000000000000 0.00000000000000
0.00000000000000 9.03821996213378 0.00000000000000
0.00000000000000 0.00000000000000 13.22834851186140
PRIMCOORD
 96 1
Ni 6.471943762824146 1.9092335328392052 11.431449010965466 -0.6963578373129877 0.280561090952362 -0.3622828336028857
Ni 4.471225370018085 0.6403569630671482 5.823145102542115 0.003112834597368833 -1.4160589773376064 1.2236684699849054
Ni 2.6894488116160065 1.7116128587456185 4.409974258823719 -0.1351675211744898 0.40590288428568155 1.677556109679982
Ni 3.3555294518172847 4.585730575601971 5.107901970016819 0.6716734471924303 -0.9073428198384245 -1.1015768081577673
Ni 4.869964509235409 4.455191568241638 2.766801511234692 1.819576649220563 0.025820560607529727 -0.5303162522674608
Ni 7.120987358860484 5.863282932479558 2.628843029309373 -0.4865074826126266 1.2060409867111295 -0.36028097268150855
Ni 5.349722249988286 4.345322969372138 11.616222759554518 -1.4172190590839786 0.4210487387881845 0.0157048123297665
Ni 5.61882620381689 8.009932420822553 12.373069721255218 -0.2671160211910496 -0.360777709812269 -0.20678791372495353
Ni 1.8609875159944045 6.426174218181569 0.6449773009860433 0.1904197567795753 0.5815367410053339 -1.848005079764585
Ni 2.7791260276396317 1.6025215467717062 0.6063569881389409 -0.08605353725665825 -1.1739279082266687 -1.6578388337567127
Ni 0.5568429090679646 9.291109103806315 4.821309964859438 0.24869586681264907 -0.8675693965952285 -0.4751174956081301
Ni 8.754482884599431 2.1074688058734896 1.4174043458334398 -0.4262606220064272 2.0648732605436764 -1.3403281621631948
Ni 7.045337459836322 0.8110835105733633 4.9545983986574225 -1.0495873024643536 -0.9005877605027781 -1.7410104214798854
Ni 0.8415495415925567 7.57287123000876 2.507870073696612 -0.07994459614544296 -0.89940813837238 0.8854141380861333
Ni 7.303975155233626 3.7529399727363337 3.724917876328387 1.0000218328314003 0.045902161848753203 0.9361751706890845
Ni 7.7170398727010445 3.6822430181166204 12.564125936368965 0.6332177143193933 0.44291802805745006 0.22782262290806568
Ni 8.140073746515373 8.77781052968681 7.026448484451543 -1.1895329617537773 -0.5212618553746765 -0.6461521629928743
Ni 6.84850311085804 0.6854974476174802 0.3554668546823184 0.20805906712789332 -0.13856703377434199 -0.11400759926742302
Ni 1.7384292566434312 6.68576092664907 9.105191116601198 0.3823780616908641 -1.079587962591502 -0.6014139395452353
Ni -0.07311015928392507 4.905891432607098 1.4450251452859895 0.9932228076316959 -0.5776541181214762 -0.20312691993359855
Ni 6.493635490142902 1.7948819769904945 6.884997634427904 -0.3725291939212423 1.2568151319402034 1.6889481535670074
Ni 3.3600033705767784 4.170677449797 0.39971436312469494 0.08735065880152698 1.6710597033223609 0.06344171339441332
Ni 6.047355315218638 5.714287880458851 4.939332845556848 -0.3138550771188014 -1.2419382148283709 -1.0969503651293495
Ni 5.3575041571638895 2.8774166670527466 9.055902089201155 0.2969729566514821 0.2013279190516468 0.5871605149500145
P 0.19202059315746095 5.482457544739642 12.414341847767037 0.39459285858950105 0.7688822297349597 0.5480941450761723
P 3.9760303499900265 6.163749508723199 12.674688670512667 0.33173298584048677 -0.8066314234592753 -0.34891643959830876
P 2.508702493732469 8.518404585613633 1.4515995463075158 0.6501003490073448 -0.5473133010460897 -0.07487206671854203
P 6.218512081983342 7.823012998872885 5.895900963613167 0.8760370677466073 0.5756383732430279 0.5284640295500705
P 4.699738679101468 1.068299494009318 12.411854529701154 0.1748599546681053 -1.7600093311798917 0.588186899332
P 3.970001857439356 6.064202556769539 8.336690274398496 -0.16226977670792053 1.1051334151607741 0.7073709005940398
P 4.909533835152707 1.065732639609932 3.7154196112286866 0.23103907296283432 0.5032474210751269 0.6647389248561262
P 0.008962298670532835 5.6835308187647975 3.693473909935906 0.11085542679168649 -0.03252188388710528 -0.7615173047294562
Ni 1.3731044157167096 1.0263711927461052 2.53584788282795 0.7930606267533762 0.018239148715846008 0.8443536206003975
Ni 1.7996903098794854 6.487191239485289 4.673853217834419 1.5903144656524935 0.4331498929270927 -0.8044038196803373
Ni 6.0042791600514756 5.5990686555173905 9.13864518305855 -0.49718296004860185 0.18740668098486435 0.6778620925016455
Ni 8.68561165036238 2.174875848516525 10.430525829652147 -0.18062668194855344 2.0799355541934372 -2.1708294502615324
Ni 2.386822100860207 5.0936785236495155 7.133333566992743 -1.0680897321439153 0.7502173063356048 0.33297328600549103
Ni 0.4195984465002216 0.005945340929282471 9.119451619669336 0.9558639073672635 0.6799660262185258 0.5224756731771195
Ni 1.4181418645622772 1.1311512739154148 11.487788753566077 2.2325886337472003 -0.8852909822447076 -0.28823351989595525
Ni 4.317412946888671 6.656016145563226 1.5585108396858929 -0.41128934540857554 0.723059000753258 0.28850811371358054
Ni 5.709145133440362 7.978813830339853 8.17501369629406 -1.073343781454003 0.09344031663903261 -0.5592799864896626
Ni 5.16289321023578 2.8778505015991214 4.9638454012490145 0.38709166511644943 0.4228577669724653 -0.3570840630107657
Ni 0.6599509195897865 7.136966931318635 6.464878586472032 0.25718127857584094 0.516318138216156 1.722420317182524
Ni 4.997340139695089 4.514870933027367 6.958336460670648 1.0367760096322984 -1.439605911419611 0.8025425981018823
Ni 8.133367387485992 7.283928383903209 9.101473696831945 -0.490792997361858 -0.9772955948784783 -0.04617958387985595
Ni 4.388046633970371 0.3496381067873743 10.278730737163377 0.9487614919945273 -0.3722880244447137 0.26841082874307326
Ni 8.097964680857839 7.496290394353834 4.609828277009165 -0.045459417884379766 -1.1233388824252075 0.06380372471952238
Ni 7.122731735265701 6.047807226204446 6.95438043190089 0.5150151031340163 0.5286895152973153 0.6395202594986534
Ni 2.40455508794329 5.302018526326454 2.5752418672827546 -0.09974389025955725 -0.6002960238907081 0.5733125533233288
Ni 2.2878264803092327 5.45639131907827 11.397346000332496 -0.39283293847560086 -1.4308032255263166 0.47214684301558035
Ni 1.0088008936179127 3.5945451722108315 3.733767197252468 -0.4973583092842015 -0.3536354423405329 -0.0034882156589165735
Ni 3.8057141376589247 2.549130450522801 2.4677223017174805 -0.08038091235191318 -0.6639315984634824 0.3882142087566669
Ni 0.8798173638707294 3.389305278896532 8.205054930986595 0.569624048728148 -0.34809600057954243 0.03512461161727499
Ni 3.3513628325281406 2.651813664717964 7.318900871272874 0.40700845864503454 0.7613902922332888 -1.045540643198806
Ni 4.320847470380807 6.631432187935301 6.355546857853671 -0.5038441741188613 2.0293946080210925 -1.3254499594997817
Ni 0.7585289743898748 7.315010821507044 11.16463353436899 -0.7979413518844451 0.3256669821520649 1.1895669003155063
P -0.02855354372725628 5.705520807334187 7.961322163723191 1.4964000375905198 -1.2080546747070486 -0.009601270535189915
P 8.459041558517969 1.6274037656502631 7.916226870271439 0.3145947834983034 1.1356881480191796 0.9222153660748826
P 1.8208035911364082 3.203777742783152 10.381977936268827 -1.0359730541150287 0.2731028349021038 -0.20162025348108503
P 4.122476624050781 6.090594158340693 3.80535893562408 -0.6000312002650956 1.8063097569083277 0.4197223066672772
P 6.998691207881279 3.941585694651785 10.417641847446777 0.26774439880366796 -0.21039594279118604 -0.8011025232212461
P 6.455991305025144 7.8226876229631035 10.25996016245688 -1.7240066878330373 -0.10670103830368075 0.5494699423777764
P 2.3878976490064283 8.591315904063803 5.700320215709515 0.07376314992507942 -0.39827982052278504 -0.7332269424251953
P 6.846668352255661 4.033712268218486 1.3540934243657627 -0.6344706128898879 -1.1038337225127441 1.2243523834258074
Ni 5.099743169079051 2.7223931224813676 0.40298077573011104 1.9562685774593795 0.06717264119175528 0.5547638437868639
Ni 1.424649382757904 1.054651782237934 7.06465213536973 0.12829907618943068 0.27274879399679475 -0.7620132705292683
Ni 6.977948493632718 0.7381260972026412 9.25124513192627 -0.9275951423295573 0.30780758537314085 -0.10844090381292291
Ni 2.441837744272403 1.3949769074297889 9.132865241550073 0.526311759093758 0.630867726029978 1.0639155461615677
Ni 6.540914417478074 1.9025000591506744 2.4679997750627662 -1.0095801659437968 0.33142651034366144 -0.12157358454013903
Ni 4.037381785423243 6.768912548037636 10.54611562160197 1.0188032272039615 0.5795341087530084 -1.116482521625006
Ni 8.167730698846789 7.295018279494923 0.31819323657292214 -0.5020904246525483 -0.6000965062853924 0.14638858670128985
Ni 7.553583669134499 3.8805596351283502 8.255811765268541 0.09005571643751588 -0.4320638589517656 -0.3325439117775563
Ni 3.076411150543188 8.258998641540456 12.366970730590761 -0.16180929213173423 0.5065525741889598 0.45491865206275206
Ni 9.14044198113812 5.015190623634482 10.095280183940769 -0.0911242669113463 -1.056851697336251 0.2657335390212262
Ni 8.9230456823056 2.2761762150951173 5.792137682161925 -1.4020652341616757 1.6457304805289528 -0.4494679133608259
Ni 3.5397645225112555 2.656856991319575 11.598258394046702 -0.1267309603713624 0.6404880227285614 -0.7551731076789834
Ni 1.2730422852392298 3.4307545545147886 12.673101559130512 -1.0334592865542396 0.09130321569137179 -0.02550071537426576
Ni 2.8527242507882287 8.28015711389596 7.7279345427468895 1.4456325772296652 -0.02629750024394826 0.6309024359226554
Ni 5.866645150213966 7.7203568993368705 3.7115964442887557 -1.3760302435504947 1.0841866377057778 -0.5749176930269195
Ni 3.415000937549542 8.473665398018698 3.7380269102046886 -0.7239460313439017 -1.0561878385000067 -0.2054594247215171
Ni 3.364748435927756 4.269537497052232 9.27005637862149 0.05208052274532322 -0.488425782681262 0.8737852955979534
Ni 7.265734447614602 6.119597805409813 11.401274914443103 0.7184256157463047 -0.13104115771094205 -0.9006314692565199
Ni 0.6382582884490586 -0.03700608680579834 0.3501334012278192 0.48397854554318587 0.16768940506159508 -0.31732786615875025
Ni 4.719785450431885 0.17844247567789107 1.7516711523495603 -0.8274475888736781 0.5160391735231564 -1.3074347538692839
Ni 6.235097215162475 5.722069787634455 0.1569513968368332 -1.2050940494168279 0.4341107141784652 1.4683369608057164
Ni 8.01263484851768 8.926127715228807 11.352276917717921 0.12034254034651531 -0.43507564919489583 0.5608661000298598
Ni 9.17867365053743 4.837038274809479 5.7729441187727115 -0.5139056721199213 -0.27544228166855794 0.4140854200964739
Ni 7.978614989506098 8.905285580563369 2.494165421141016 -0.4437652065490938 -0.4712526133360852 -0.08703467022300496
P 8.52329426248007 1.7154631403446978 3.5484385019728433 -0.3109114211094452 0.44532843727115556 0.9634844000269986
P 1.8436612487985478 3.28072914544644 1.7210080881405547 -0.5113654221965709 -0.05103511219994437 -0.22219242120548183
P 4.545953370631201 1.0896477689788608 8.192911178975978 0.8660295629119343 -0.9072512885658827 -0.6531687035200235
P 8.710141378672008 1.6565249095756935 12.482057997524366 -1.5760998647150082 -0.270615806814192 1.3796259313215529
P 6.2466751746188605 7.747326946969857 1.542729204239526 2.112718405051413 -0.5792782839884604 -1.5687506234387887
P 1.815172780253248 3.2564705637282976 5.885794426326569 -0.08706938011568231 -0.3410982291054706 0.2858274815576239
P 7.054420870651051 3.9395701716550837 6.027099761012778 -1.1813856500562945 -0.461730789888579 -0.43282696237003515
P 2.3300711192625103 8.487945785170213 10.16421287807189 0.15859027097380426 -0.005778554354990048 0.4151053767205561
