# total energy = -340892.9451539403 ev
CRYSTAL
PRIMVEC
9.06505569961981 0.00000000000000 0.00000000000000
0.00000000000000 9.06505569961981 0.00000000000000
0.00000000000000 0.00000000000000 13.26762532627079
PRIMCOORD
 96 1
Ni 6.431357999956161 1.941698709254426 11.167387379362246 -0.3537737676906101 0.15149171225581007 2.4603120120732407
Ni 4.673743380455183 0.19234688818799156 6.00255275516292 -0.5022842858309092 -0.021295933264298808 1.3145397403451813
Ni 2.848340273084196 1.5675657229785447 4.9266675045607125 0.2692963166718201 -0.7820987284252338 0.15645651246025313
Ni 3.3905393953737146 4.225911489875587 5.000515075780857 0.018330937098703915 0.1911826030875288 -0.2947119285314473
Ni 5.028096414801089 4.139757198792869 2.701660416902456 0.4020698836928366 1.4159913573244645 -0.047364091106260366
Ni 7.381529962121286 6.281820838161072 2.632495853549875 -0.13308338495195146 -0.995848418180001 -1.4972235619330796
Ni 5.069686891178142 4.651298302096512 11.473192506943262 -0.5994395894276837 -0.050708067877828805 -0.39784093321315356
Ni 5.642172365162459 7.992677899433444 12.411279843114873 -0.7739606726991315 -0.383565654241062 0.7565170233013875
Ni 1.7874114581782605 6.449560632163031 0.3709656557514388 -0.2720096018379251 0.1995973095137853 -0.11298327176796671
Ni 2.997813979488126 1.678105014378237 0.4955974830220479 -0.3946134274147914 -0.6364902144230781 -0.07823558387413622
Ni 0.7792748092001903 0.21235074699820156 4.757545289537064 -0.4489899452831429 -0.7810723440432484 0.939835136039175
Ni 8.5479035070224 2.505681160823382 1.2895749063538735 1.0206353953166938 -0.7211378724711452 1.084300537575823
Ni 6.8158795402704255 0.814482579732195 4.968673160497064 0.352899849726089 -0.850087180650065 -1.2770983076692717
Ni 0.896634648643931 7.445211979677694 2.5663300106823703 -0.19727920290356993 0.6683091587058877 -0.2624530684977415
Ni 7.616759097149219 3.9229210621452846 3.727459420756954 1.008203340200928 -0.8064576168855724 -0.42696921803767757
Ni 7.670678049522958 3.7980589824553257 12.684977449274815 0.8249032251852697 0.6058912585902985 -1.4301751050240143
Ni 8.111792733695536 9.13540071354386 6.813430162171673 0.05987250798591625 -0.6181309951895999 0.4705177920525897
Ni 6.951655947239803 0.7997699940390918 0.28093514677446785 -0.5160047207407952 0.4348095400177028 -0.20128986672485977
Ni 1.754432784887127 6.46484431637657 9.143224763273816 1.604159856176018 1.198930343808277 0.27437681651852097
Ni 9.148363743452139 5.057575976522574 1.3428429877154342 -0.26851033043541495 -0.6521747150378704 0.1237047719505289
Ni 6.166585847815583 1.9953275798400074 6.943877222789247 0.9013390368465057 0.7276941855324242 0.9810144384909621
Ni 3.3332663723244074 4.306427316200999 0.6683484399144257 1.3889940028000143 0.030689972884689082 0.41852288704253726
Ni 6.254979207700641 5.55488494209475 4.693873243542124 -1.7986411846194765 0.18473736168281732 -0.5647098992559823
Ni 5.24408950125184 2.896403199359509 9.478153195880237 -0.5691267973767554 0.08835261770348009 -1.6280688015831315
P 0.12631067561956955 5.753790398211861 12.158107336478233 -0.0015444616689844369 -0.5131394833778582 2.1732989948479475
P 3.8433480016313846 6.010050462881198 12.686610065838787 -0.4320941979690687 1.2331224163089538 -0.6133513144127695
P 2.394271624059218 8.6643532148558 1.4271452878818864 0.4036156309134017 -0.41794156061777055 -0.6454420242997271
P 6.465161593332367 7.766640731067745 5.945143756275414 0.0825187846305224 0.5629924023442433 -0.7604816643760903
P 4.933729183091166 1.0796753504656011 12.756304934960344 -0.45696833550292915 -0.1157906593097748 -0.2984539120723828
P 4.012456619071212 6.133888191256728 8.103401211467498 -0.07948745400336633 0.21564356434337054 -0.04089416711120054
P 4.840413497863314 0.8376392649774396 3.995572045989281 -0.2969796415197014 0.2244976722998908 -1.975125562264882
P 0.26182419596842954 5.799460149734877 3.7662016565765377 -0.13143582204619944 -2.0438238960725448 -0.030574787463063472
Ni 1.5275797614922364 1.1083843824372943 2.7696700921359354 -0.9439473584353355 0.5971477080697134 -1.4512830906472232
Ni 2.032167966935985 6.471180790436631 4.950177726985273 -0.5786198244688551 -0.45644820133340097 -0.018558222618161587
Ni 5.961951276382365 5.53668230988788 9.051094787355055 -0.047722502886943616 -0.16683502748109977 0.6306761788444623
Ni 8.50716514589806 2.2107495677703244 10.285275856743526 1.0200550973331917 1.17792185987741 0.6029005513930906
Ni 2.321288859170017 5.054421337076364 7.159993593999966 0.49248324058008736 0.2067226077046569 -0.23962218664615506
Ni 0.4220345545565319 0.14637617680976298 9.374904022419171 0.5896526852442491 -0.7791285900533163 -0.3153337185468569
Ni 1.5379864456423797 1.0644732517549824 11.489763429091747 -0.24659553264019468 0.8928410266778235 0.34697011450521537
Ni 3.9392744229526526 6.726570609741497 1.6110344789339166 0.41038663108864804 1.3444236723888072 0.2678359300762097
Ni 5.672902904595373 7.686723198430409 7.998454153040126 -0.8118134818808471 0.5401787468838374 -0.1443946961997126
Ni 5.274339592723119 2.7887284656178704 4.803358268942982 0.003113091707684961 0.532591678565199 0.12066264269009543
Ni 0.7993729445915514 7.482741311020545 7.157552374451504 -0.11834145075608653 0.7178987967085572 -1.0367829516108338
Ni 5.070602461822014 4.522710484439908 6.902283120389843 -0.15054194674803104 -0.20640764756739938 -0.0931613519460331
Ni 7.924934736842834 7.315282533750863 8.853314304672642 0.6093501636731764 -0.4496769440478384 0.16667896151920972
Ni 4.744206059809768 0.3778986104883983 10.520364483405322 -0.9913932106221247 -0.5359922196063156 -0.5639403680798095
Ni 8.134963016524601 7.419122748855297 4.510315833535299 0.03852746665123687 1.1427735941110513 1.4109905616757634
Ni 7.2384471201126965 5.932861512063716 6.716443129312454 0.6105472693050711 0.05614003752667751 2.2684868903057063
Ni 2.3141727903042826 5.332219974516381 2.7626782145357565 -1.2478844051094766 -0.6133425726620212 -0.9252803781534517
Ni 2.1429429497885546 5.695919081474479 11.257261969378082 0.5214793707021212 -1.1111523676613442 1.179456808464698
Ni 1.1187004160286382 3.475678400197883 3.7862617187332033 -0.8591158665112365 -0.23998805462600603 1.2638481275275846
Ni 3.5841599239128343 2.3148617345511564 2.804032999459932 0.44265526131436667 0.4463455656817603 -0.4053683519384502
Ni 1.248095023658555 3.184708236564348 8.48505819412371 -1.1690147871957672 0.7433858852360681 -1.3184951254485036
Ni 3.4440141600093375 2.733984593159059 7.420343811882321 0.6937311983234182 0.5117482594572864 -0.6421371282962103
Ni 4.321756325693936 6.907599775663413 5.817376326175942 0.00841779175005002 -0.9682771934299517 0.4845909823162042
Ni 0.6347868835302137 7.647018253676378 11.278171427270696 -0.2176287130941994 -0.28816538566218114 -0.07963837775893381
P 0.22494482913216846 5.646478266705419 8.051113969152144 -1.710203720511674 -1.5301156846754098 0.30180097416774476
P 8.577319613352728 1.7607239336677887 8.237762563214021 -0.06895210168968124 -0.7954350405228237 -2.1337171187902673
P 1.9499479101051493 3.2868079609398393 10.43827768289592 -0.3467541418396673 0.5152534443970674 2.5911379684495826
P 3.9961757787108834 5.9880948975400425 3.7642372589673596 1.945918601683623 0.6739617290059748 0.7531851307146771
P 6.852837773092842 4.004488434952766 10.451399351282099 0.9429407715476922 -0.01251895840261715 -0.2817180873749406
P 6.359753123560706 7.905898119495011 10.311147526224808 -0.707359073519498 -1.0319014551488166 -0.9857195572761153
P 2.418312152252754 8.330242450289745 5.927842190623006 0.31636704490737777 1.0261717517538909 -0.26024371955124853
P 6.948057120055476 3.9963752099402416 1.515149756869696 -0.12562692867390624 0.7931799259400597 0.9508589979535044
Ni 5.464343163966152 3.1535425744491983 0.17386867828237135 -0.7151358892514393 -1.3312850781243202 0.25929575381568243
Ni 1.433321310452873 1.0127752380718231 7.170474611608325 -0.0031382885186655627 0.3772178576461632 -0.3949931793517133
Ni 6.844751743247958 0.5842102172594 8.948058642707169 -0.41518790913203335 0.5613489532035495 0.7156508812146449
Ni 2.7413363534776707 1.5853422975590596 9.460361210704725 0.7826386600891038 -1.743437285753823 -0.7173673496851194
Ni 6.363895854097828 1.9507184398549422 2.6367283281402076 0.5808224885471288 0.11408601791384224 -0.3027458545795173
Ni 4.171222007752056 6.897519433524947 10.42861886585587 0.4839538629528375 0.10353035388518299 -0.3312300780621392
Ni 7.86075414121303 7.198062296167672 0.09208737015612378 0.447278619018991 -0.15194782595662218 0.24860793508453313
Ni 7.747450007769964 3.834654613042545 8.364096807978878 -0.1422192858149486 0.028154350947028936 -1.0379818570149415
Ni 2.8978989335796954 8.199841621457157 12.319600400473345 1.18432802051407 0.019284816371540982 1.3889466945018467
Ni 9.118811661283614 4.717545730466936 10.265042652019554 0.025963513943297222 -0.2986472590301115 -0.3605229134889856
Ni 8.634420400340316 2.284548187688718 5.824766159729249 0.5410578070546812 0.6405736404638323 -0.10386331174456952
Ni 3.8285085051559626 2.534653079415593 11.534090645838948 -0.6024968881967688 0.41242217346143806 0.0648758747377786
Ni 1.5215243041644528 3.5680241244465845 12.75444750501055 -1.7649363361678636 -0.39725754990585777 -1.0594698516853882
Ni 3.1974990304109094 8.47931729423496 7.954352656184336 0.38318307409066266 -0.500218404440816 1.224097329992208
Ni 5.687733336014915 7.782794660645755 3.6631782030068836 -0.8143552744660943 0.2883649032674969 0.06556801570879675
Ni 3.0875036423640125 8.352633138313136 3.6240389177397594 0.5588120457143086 -0.026672109974547612 0.0972532626272196
Ni 3.4604763014872644 4.472870807212131 9.475061105319597 0.2719612650984929 0.20743891704539114 -0.32609584215936743
Ni 7.148993148689688 6.043736210530966 11.294318104804 0.09827450480288236 0.4291870516246028 -0.02588123864213607
Ni 0.5109328380541013 8.90184861385371 0.15480939829484855 0.6712391878684891 0.5116405302348286 0.4491138724555168
Ni 4.819373503166029 0.28644035521034067 1.6746929273450366 -1.1120486542233687 -0.15992055974945363 -0.025327937241827348
Ni 5.73026657820348 5.561946620625204 0.4019373256707588 1.1709161179835383 0.8776028695718305 0.4844449436566431
Ni 7.805448235289665 8.971259746726226 11.439479564125856 0.6771133872610791 0.20282584375341198 -0.22860629515162564
Ni 0.2181768584122234 4.936630000972739 6.029671776333276 -0.2784525292497914 -1.3476902589552209 -1.5716747390641193
Ni 8.05757463447776 8.871924864394108 2.076237736096195 0.083125822086902 -0.07755861241176965 1.4693633451877017
P 8.414801291537598 1.4427217734003455 3.5384620707165912 0.18332376916474236 0.6722254630411585 0.028504535197596072
P 1.7658910155193408 3.3246455041826075 1.7799844578958457 -0.2160801376601569 -0.7916910000993591 -1.0688523213415528
P 4.681956321082388 1.1689208256033714 8.23640915037115 -0.09605152900963458 -1.4408228145458475 0.4005313355611231
P 8.659095482445448 1.7508883480380804 12.441609707077895 0.41406433705055146 -0.37542862695622436 0.6139133575638266
P 6.198920902139243 7.749480580287066 1.4240939900727065 0.5385507243621112 -1.0397628601747642 -0.09634772009381472
P 1.8041274212208251 2.993526208056926 6.034062889401507 -1.3717012771578376 1.3759291991962561 0.3735604633992341
P 6.971725980957936 3.7731391438414374 5.921049744252186 0.026723017817141075 1.0970881762587947 0.046784564453706524
P 2.4335777063545327 8.33180163990109 10.260783888767172 -0.006249323343821495 1.2859480447504175 -1.2941874019410744
