# total energy = -340872.6539727532 ev
CRYSTAL
PRIMVEC
9.21736887446820 0.00000000000000 0.00000000000000

0.00000000000000 9.21736887446820 0.00000000000000

0.00000000000000 0.00000000000000 13.49055105370905

PRIMCOORD
 96 1
Ni 1.5981996032454882 -0.12347495279494917 4.135366129859658 1.1324423873883722 2.4826808666867435 2.8976826279499
Ni 8.249443824379009 8.434215202466898 9.833303045003069 0.2553812492526247 0.2263378108324231 0.17592696248003895
Ni 5.159265577734627 3.6863945401810985 -0.05793208562407416 0.6396896951969822 0.30281013215854946 1.6716687976612694
Ni -0.1538406530829239 1.4958499383603283 9.248393697964428 0.9851760260678195 -1.826772138527738 -0.04863704428141301
Ni 5.924832591096184 5.571493969544696 1.5559057057918178 -1.1072635741298995 0.2536704372091051 -0.1869225422595942
Ni 6.7031011388788295 2.5552943261395336 4.55755296708957 -1.1680367395532143 -1.3557429540563684 -0.5711050041490487
Ni 2.0200693629833206 7.615095275472164 8.67210443437325 -1.0271449143004374 -0.21953878563271867 -0.6038593157619342
Ni 3.615955406620904 6.878959321186463 1.5569988857499752 0.6407443617137417 -0.15247618765626642 -1.087135950142089
Ni 4.786736394017171 6.3538642465126705 10.263408523902907 -0.46517735367628277 -0.2605147138244481 -0.08222156510507775
Ni 7.729482824213595 5.56389885752512 10.529199653375347 -1.1673330286179702 0.9510723995158911 1.4243487281502245
Ni 7.994242530099882 5.640873105674975 2.9091297638777394 1.034262499181825 -1.015677022870154 0.78624643204502
Ni 8.310250807380395 3.5091353177921834 11.973093126405644 1.139418047375257 0.7804984738176494 -2.1127477156274517
Ni 0.9115885723592799 7.2433219160090845 6.506614484848123 0.3716200518434116 0.9777465663729678 -1.387259536607411
Ni 0.975778329767444 4.997611360987874 5.568643037326669 -0.08976518178029057 -0.6922576991016852 -0.21875665605105551
Ni 4.392103959543716 6.028518774479935 12.820570288992883 -0.6044540119231395 0.38843943739359554 0.19430495076659438
Ni 6.33695959184774 3.243665874496299 2.072715287511246 0.6784501037946316 0.7183412835626144 0.3085935716095459
Ni 2.008630608109178 8.209928963665512 2.2093203823837264 -0.15030360548497987 1.498971654972438 -2.249821452685719
Ni 8.947447523294581 8.378118295001922 2.8866403053624925 -1.8582789508867672 -2.494974596452432 -0.3808469697583183
Ni 7.239422968940782 4.923835539865682 8.449253339918279 0.012723361103939377 -2.199714765837315 -1.1678562481112917
Ni 4.258995934453064 3.2677600769467503 3.5090007442054283 0.10852215067281955 -0.6164428088538997 -0.3561798060289414
Ni 6.566121818826743 7.598006273428118 12.650265571481116 0.13234136457960435 -0.4637534767455626 -0.047838202529201485
Ni 0.5552985492681458 6.530201732006006 1.2702363984293066 -0.7489492382564585 0.034441469507321326 -0.12036799426781206
Ni 4.472820459489623 4.008348020438101 11.216557291146975 -0.11097703997121533 -0.22943187637671453 -1.5392675263780071
Ni 1.8385240640299605 2.7784560459283134 1.5264967684014548 1.5573629504271371 -0.5164626342138202 -0.7569908776140125
P 2.7500757669134175 7.280689129755881 10.949700633823243 0.2680359619021578 -2.4358153124834563 -0.428871577266713
P 8.253536336195383 3.3748382521062337 3.1173833111174143 0.46430394993239393 0.05665965747557338 -0.024718328682286465
P 8.244844357270066 9.201008125899577 7.45964066108508 0.24195134899996396 0.5780001886069852 -0.004918520347539916
P 7.543771274492214 6.9487532389197515 1.2439125144284486 1.9382454014090813 0.1753104119419626 -0.23306870179835346
P 8.65862126706471 8.048726397997592 11.865438865686423 0.8319891854977737 -0.8375545954006929 1.0695879139559965
P 6.780932602341572 0.251044260880063 3.6654775648097098 -0.11278246861107029 -0.18160524381173884 -0.08488857041427961
P 6.538635624600559 3.681103770400471 6.406824483321988 0.6376490106178696 0.6155766041988624 0.6113502248223406
P 4.143622127233364 4.8601896072259105 8.33300572612157 0.017977924634659363 -0.5636971417207518 0.5539801715433039
Ni 3.178489858609865 8.414342554998202 6.04531835113877 -0.28644403209570024 -0.13216318713052722 -0.7367061592230474
Ni 1.8137109068009574 3.037712982547991 8.532598633490379 0.6935676761623604 -0.6640858646531596 -1.8225629855423968
Ni 1.4892503021879782 9.014642142982336 10.831321042587058 -1.2124939414253246 0.011053429600684188 0.2498724036192535
Ni 6.092367489236735 2.0245213521889704 11.360649654822248 0.21572018321757688 0.8389918420678519 -1.0755361611196317
Ni 4.729395141743163 7.986131245418782 3.448212195941953 -0.8586057596440374 -0.09961096422611877 -0.2816867199163729
Ni 5.597450080524219 5.743904855862862 6.79802344785941 0.0013652557786428103 -0.28029086801011077 -0.2062667511141609
Ni 9.0567286496345 3.8535238740875934 1.0442320420545597 -1.014498943401653 0.60105964152961 0.1353374710934508
Ni 4.632990679834491 0.7995118180150683 4.4572643059029255 1.6585721123783115 0.4549644176990229 -0.20559003676211046
Ni 2.881644491388451 6.048538899851924 6.734266906792167 1.0097056357780676 -0.6978465060433724 0.5301010509328612
Ni 0.15031040077285399 4.11444915448827 9.585872914490574 -0.9104165736677418 0.4057614736118109 0.09772326028510266
Ni 6.118848990246737 9.096759683009523 8.992747204764736 -0.35407227276763537 -0.4821700315795374 0.20347221908815927
Ni 1.8789975311148612 7.101070260914282 12.98122902989241 0.02793220763389383 0.6716276815561594 -0.5546237186645738
Ni 8.567350879664417 1.0186851822566751 11.713265634647604 0.3175068149387758 0.09732139686099368 0.34761134763364004
Ni 5.972514040704517 8.279879576671048 1.4939705168302415 -0.07574469913148245 0.12007437428679321 0.3046153036880883
Ni 2.5685120332221456 4.716380216777579 10.125724075125701 0.09795800200372806 1.0734000886132353 -0.7340391539138456
Ni 5.069248752512322 1.2899062637809757 2.0033333861702816 -1.7067574138342865 -0.18726886985541943 1.0319821877880808
Ni 8.742785063000085 2.663367977146243 7.319689661281646 -0.6118796149632494 1.0465253757095783 -0.7354977407372429
Ni 6.411878366720451 8.360642163461733 6.356950221639071 0.01394232111270502 0.31300095664862226 0.9448701273599212
Ni 5.6447904874811865 0.7645890505153479 13.287774756202905 -1.205798274572704 -0.78746179250936 -0.3613158417039261
Ni 7.403989874277566 1.097438382614997 1.6744198706147575 0.7975047785676588 -1.1337600777585313 1.2330185437412378
Ni 8.155703182098563 5.700878177577206 13.015305642921989 -0.09288290147366585 0.3170977524258151 -0.41650637083314074
Ni 4.442310968245938 7.436435013001968 7.765633345258227 0.850806832424909 0.705853435508249 1.0815602558265245
Ni 6.090182972794211 4.837321314846579 4.501108564814961 -0.4531517899703163 0.6195096207046814 -0.5365177530924824
Ni 2.267223894164038 0.6319013374490806 13.007036741231744 -1.2273181509223507 1.7858229498088856 0.9386004923011254
P 3.8101469357816167 4.888883276785303 2.0417412408721884 -0.32072249366259603 -1.9715244751771852 0.19405169710520775
P 6.08768506580719 5.158113406615152 11.922759839748728 1.5780492751318953 0.4983088461229289 0.800608357193647
P 0.04605919267211318 1.7691080584238599 0.40666847485593344 0.44453962282127313 0.20585383194645837 -0.48576109136490536
P 1.0058177351943836 4.546577845873903 11.709582374012868 0.12096423309091424 0.049914111221623716 1.097733008931645
P -0.04491163023711657 6.765825334623021 4.65285042298665 -0.9277753766611634 0.33005456969679936 -1.244555854956876
P 4.615459244080568 6.598668348609659 4.986755143831737 0.12547523358739038 -0.2923344294382062 0.5728793224406521
P 3.5361606435705775 2.711077078861444 12.553713631669153 -2.107503179399061 -1.0389671037463464 0.9837902014638863
P 1.3527410679526377 2.9608493428256066 6.253558072325011 0.4841456672486694 -0.07307255161595802 -0.10301998990766775
Ni 7.143525462324679 2.3529546428218975 13.345622042032584 0.5839659192721168 1.0507491839829386 2.045448319049845
Ni 7.924900263445427 5.590859661720824 6.266266980641261 0.1322914851782754 0.08860021493791193 -1.240314563182019
Ni 1.094811432462595 0.5543113690529801 6.618342822645806 -0.5635125365137714 0.23514795292488538 1.1097446886805402
Ni 8.95784471547672 2.1701649990595047 4.905110454831982 0.6577028439449513 0.31742453963761463 0.08051898059167424
Ni 4.202198506947449 3.777867709698419 6.231582021260602 0.713427648311081 -0.41871289156615626 1.0989601964705267
Ni 8.615640675623833 7.061140618597774 8.062371790999753 -0.9418444531597199 -0.9453884617572362 1.1167704851790703
Ni 3.7738950236784707 8.665008903751076 9.62911067052532 1.950985988904201 0.14021999599673268 0.8413220328629253
Ni 2.3803670980964347 4.818490230069888 0.2143932367011309 -0.15494598935299767 -0.5781071464984947 -0.18987982511570525
Ni 3.73567981198774 1.3770196177822047 10.918308118633593 0.6551582231462265 0.21792438995774727 -0.10917263977262487
Ni 3.8848537111683443 1.9413530321008219 8.14177665934325 0.2381630856021253 -0.8681931462221564 -0.48305449106701964
Ni 6.876793239481851 7.274578014138188 4.338790697503391 0.18210275227344766 -0.19689430876032543 -0.14582577221928433
Ni 1.7328469289517578 3.06479361254012 3.899092702731258 0.44051764614607364 -0.3681274653091208 1.1536807279418584
Ni 1.56394786020575 2.336252770273995 10.843880629526227 -0.16846639243693565 0.6785426635084378 1.038126867233238
Ni 3.1320251017036966 5.006607513088731 4.605836310890716 0.9388786856631766 -0.9441795290507996 -1.1425684200787807
Ni 0.030356482919018924 8.851863407222975 0.5335132977411217 -0.15501129537329433 -0.6024066424758077 -0.8789696680123701
Ni 3.003876021111263 1.7228184315278516 5.691785243102313 -0.6199577639856936 0.38100560682336965 0.4100068791517261
Ni 1.416552913233614 5.000210659033409 2.6920533510735765 0.5186138762288681 0.08135613178098892 0.3621943876541375
Ni 6.567670336811318 1.6783538436850913 7.417105268564768 -0.6368529970791355 -0.19515495747171552 -0.5423539001582853
Ni 2.258218524694225 7.000951199316424 4.152175845624344 -0.29275377636381195 -0.6234045848837134 0.3698490759859179
Ni 0.6642312590615355 6.441189599999883 10.534771552909126 0.7597671548075688 0.7869326594787673 0.4278228242872245
Ni 0.5065829108629721 1.2799330705708043 2.7351961682080757 -0.7958371610572488 1.195642931306257 -1.3187764041343482
Ni 3.9053254876191676 8.418407414707708 12.397304097858248 1.9267096328553397 -0.9309473466312418 -2.251567231732232
Ni 5.5400258719296085 3.048211565788643 9.252953530386861 -0.1585092812242238 1.022987440488638 -0.5429858773153293
Ni 8.570420263526696 9.058479949736101 5.087151648235165 -0.8766523327331031 -0.4959339181328491 0.9646272553821904
P 7.578474668610786 2.7800229986507987 9.830105539712303 -0.5394814637064967 1.093180356563956 0.5390564603539362
P 5.840235578819887 -0.08804615173955566 11.288838976761433 -0.6472731639711949 -0.11345301231553365 -1.7097825738138552
P 6.584971338341346 6.806805757000491 9.076416027987184 -0.3900687454669024 1.4732837632880305 -0.7694545572986619
P 4.7324737429744 0.5582232204378199 6.639725275149462 0.20983312830918058 0.006014838735512222 0.7012555317249213
P 1.2585303398554457 5.515894800003334 8.134775145884428 -0.7374399520652783 0.13113114632158707 0.3056026073020221
P 3.8402232106843797 8.98829890250667 0.8508479544143747 -0.3063477129981627 0.4047970528160125 2.2390053359068216
P 3.004419845879655 1.3842736871504164 3.041525286348108 -0.7149222305787364 0.16370933736792453 0.17791365389276456
P 2.2089240355186273 0.750585101860807 9.052415842700084 -0.7577506385981725 1.5284879192639997 -0.9042513253972942
