# total energy = -381172.458959513 ev
CRYSTAL
PRIMVEC
9.20912799652902 0.00000000000000 0.00000000000000

0.00000000000000 9.20912799652902 0.00000000000000

0.00000000000000 0.00000000000000 13.47848969584180

PRIMCOORD
 96 1
Ni 8.92206113864777 5.614289678673387 13.006419030366255 -0.253174471409293 0.878661392743332 -0.12939796568056425
Ni 6.369963101462592 4.167719840003581 8.754723914147506 -1.840317224202024 0.9117059819031267 1.4680669949737815
Ni 8.313448282154198 3.985093621066345 11.105359381822394 0.8477382208019142 0.6142666271381872 -0.5154889574466412
Ni 0.9336582411745588 7.139938300158687 6.524963777988052 -1.0326259920196668 0.09913325325875184 0.0586553477493635
Ni 2.557936624387345 2.0206760922508766 11.667587702007001 2.150658374630296 0.44609308335132203 -0.623423611047107
Ni 6.318594585037204 4.2268792787839145 12.233346801897149 -0.6692638093096732 -0.4808240590746041 1.5306928973351186
Ni 5.548518085932238 7.6386494221559165 5.029997208523992 0.7035024187775691 -0.963323191858786 -1.0597349324213168
Ni 3.6350086171382023 1.1984206734495584 0.2410194582613856 0.7393309984404041 -0.737419126129672 -0.04254712933359124
Ni 4.661301477660734 2.8095944674057427 4.864548776192758 1.9401639585880326 -1.0898780316636003 -0.5580954792632582
Ni 6.812259104847068 5.123903608459693 1.2870530057343412 2.2976563127808105 0.6380195065834109 -0.7970615203826531
Ni 3.960763104681283 3.6587129128138836 8.073399465992352 2.39278507286586 0.5757250194195633 -0.2445977854838755
Ni 8.448113362055322 0.03377723996863457 9.888669640089457 -2.3469870406951383 0.7542284843775269 1.9365872969803681
Ni 6.652213667959861 2.421982266555143 10.496171875736684 1.072059772535257 -0.12973349464311204 -2.71348802614443
Ni 1.5774683851865667 0.1901242910192634 5.846604669074378 1.514512173810198 1.1918065882793023 0.7906936691830962
Ni 6.271047856764653 2.8309320171650874 7.113623216672572 -0.2600210620174812 -0.5569071153821119 -2.646481478216894
Ni 8.768894920435672 8.082685950747347 2.3173030285924754 1.4089424208974832 0.31501541597548977 0.7071335877722531
Ni 8.737316820252333 1.19988492481414 1.15619037481709 -0.3183624780708517 -0.046952971710770744 0.3296987290192773
Ni 2.724014040166383 6.783673971289447 0.3658519521124222 0.13197421104817272 -0.20280578914875394 0.24837345047622386
Ni 3.744302549181322 4.865937512707092 4.0684684621307525 -0.5294341067728237 0.09404735409541223 -0.45225781740113724
Ni 0.1280851578885855 0.29385038422574106 7.852393284872533 0.2641813640427579 -0.5530813138781184 -0.8807347303325929
Ni 1.9456953714305965 5.80055350320188 10.008304502052631 0.8331253559847459 0.3731354600466735 -1.274697668647579
Ni 3.7736980860099063 3.769406632325032 13.006189723077084 -0.04775078502171776 0.660077771935031 -0.4003084209170396
Ni 7.773903886254105 6.468675745342792 5.641556986002885 0.9755534153763911 0.9267999001217716 1.0654728633463584
Ni 2.9815841434115824 3.288017880244647 6.1478757687062835 -2.0234530457256765 0.5637863590004484 -0.5075054250205324
P 7.449411049257865 0.09536604673624301 3.4553458956168313 -0.9618229531641758 0.7512958841117642 -0.5916766576528133
Ni 2.4183630792200446 2.471490539108548 8.953922879975945 -0.7537366323427728 -1.7963660154320547 1.7251438867612743
P 8.09218977092501 1.5612326923830595 6.392268530583054 -0.2254063001570892 0.2404505960847214 0.4720455415510258
Ni 6.202863472466771 9.130012459802613 11.158356072092174 0.23073696834138324 0.2196781394240604 0.3475288152221627
P 0.7834518367270941 2.3044369557531224 12.935414811050544 1.0484166791950202 1.2354078699090207 1.369414795116506
P 5.226861660384371 6.348533460422456 3.0510854330247796 0.4562538259344078 -0.07906039376827674 0.7218804070641245
P 3.433632613431857 6.416459989134122 11.839828787209402 -2.492924913012255 -1.6985378541379712 1.3106933700158976
Ni 3.808048133745063 3.045744138738884 1.8138409174192232 0.9039875302129463 0.4082443879346646 0.7547283068320809
Ni 1.7539705339511802 9.060511170189416 1.1235384902997252 0.9175400720864004 -0.8987339951234908 0.7819879138789823
Ni 0.6258845762059805 3.1671572833341397 4.801119064722132 -2.1638393920969445 -0.9538131954858219 0.6947313574531584
Ni 5.77047649089544 0.8003561122291459 6.053109236207992 1.849676039709105 0.8735312706056182 -1.1674674973133055
Ni 1.620364503779156 4.879834086978499 7.739833796012554 0.31012312088019495 -0.838102497484363 0.6190923306616047
Ni 6.355523188634516 0.5042504125368259 0.19883980983335242 -0.43061529943069704 0.9224542215585663 0.3848640613375114
Ni 4.645572286901579 5.791712740245914 8.625074125398276 0.9628848187697868 1.603462315888361 0.37923488807619204
Ni 6.431535331799658 4.556538436632546 5.257581469830734 -0.4352373715837407 -0.21432793085574053 0.03202463253571258
Ni 4.870035574702305 8.02558935665674 13.269545921494398 -0.7203187190039594 -0.6425333352933643 0.04157345256641227
Ni 7.468915982529464 6.244774214354893 3.45859395509034 -1.6090850613917773 -0.23857651899046006 -0.858305197684483
Ni 2.964547256465191 7.173873937130283 4.958952469044732 1.0693498298032613 -0.21870343421561692 1.617730395771601
Ni 4.841579368937791 7.125866752453776 10.731478911850587 1.4666256345415645 0.9831970479645776 -1.288984003363264
Ni 4.070268846670222 0.23897411091501072 4.762826589256299 -1.352617006832877 -0.1782836356376736 -0.9638296991815594
Ni 4.645756469463161 5.446305973381969 1.1931779168341095 -1.9863360862687207 0.5947031031839629 -0.7180569195529762
Ni 1.7393924842019168 4.430695701431229 0.8021832032400454 0.1833548795129939 -0.026016992889051967 0.11538571056187226
Ni 3.9848449746082086 9.187422164247913 9.478653472447949 0.7622438984828356 0.39654715410239444 -0.17169261268371722
Ni 8.751922497385834 4.663170930660797 6.657390118853139 -0.48976095655291785 -1.4382627671281552 -0.7979074133227162
Ni 7.250005798960455 8.55223176411797 6.923388416116359 1.0187919143500517 -0.7903869365759549 0.5937559087793451
Ni 1.3104773439164175 7.081119599117282 11.840785615616824 -1.0434652487270157 0.618418958743664 -0.02001603811061069
Ni 8.481735888672228 3.560184451495268 0.48403545549032667 0.4911434387227412 0.016801644938371066 -1.2005226279960615
Ni 0.1319262852103908 5.604592466806063 2.3079355035103837 -0.09105844667041738 -0.8673359404281836 -0.9268137840788425
Ni 0.8803530451141283 2.365014600257642 7.160797896170726 -0.07811602757713643 0.8683235011524336 -0.8166594971192387
Ni 8.032919822607727 1.7241053315905603 12.378119820777924 -1.877944804746811 -0.49380941559067854 -0.36509279224785507
Ni 1.8265845088551236 2.0397942421431514 1.5726299092937914 -1.894208060683209 0.8987136834085167 0.38370063715702957
Ni 0.29145140636112754 7.422400676601776 9.03647810864131 0.2488539896570682 -1.4651521353198314 0.04880699420037401
P 0.6404175012276562 7.365479055944671 0.6446656720105591 -0.036876304201059064 -2.0424118462163663 -0.8841100745627289
Ni 7.28404273634092 2.4047611970471694 4.3888521861780845 -0.28521221657112816 -1.0659729429112286 3.110118741099566
P 0.6664019770157307 3.6822698624402994 9.243966210653774 0.3521254334539097 1.3918810945398221 1.392930104629627
Ni 4.906761577481877 8.163827578252565 7.2622640693465845 -1.21200877425879 -0.6193237299461205 0.8875715507487683
P 0.41935330260093834 6.791989813944902 4.339292342507436 0.5659615122748962 -0.5579401846323166 -0.498926939322902
P 2.5479907660618846 8.96769236827986 7.856342158992864 -1.0248620318035317 0.7306244718053417 -0.5651505863378267
P 6.494111357097349 2.594460026349177 0.7833735591384215 -0.02337801260430812 0.6648394549897324 0.38363635957799735
Ni 8.131521956950976 2.8254617950860843 8.603737496551739 0.20007759158431349 -2.0099339281933193 -0.38533405899539447
Ni 2.6293902491533183 6.879835686691728 8.03952829291731 1.1784463649223125 0.9087556410255512 0.1462667164114449
Ni 4.13659298709612 5.4909702445657524 6.345201597883427 -0.8154587919429183 -0.2353281872564915 -0.20027325253488734
Ni 0.166469724635209 1.2315735345344279 3.4631764172225155 -0.06860680253512055 0.1590024188105584 -0.08606767832404533
Ni 8.334408257662298 8.563291926941005 13.132847466113404 -0.3858014855501162 -1.5011164692295824 -0.836390914109895
Ni 1.5414330670129293 5.052910440097675 5.468559831385187 0.9372758599524309 1.811031073643397 -1.473984646009797
Ni 8.018397027626937 3.40257022442095 2.677650684852001 1.0553249762790793 0.9041639078898105 -0.6355437913494086
Ni 5.347326264787476 2.126848129875171 12.106972700005665 -2.3701601363774922 -1.1907478079974847 2.4793196635239947
Ni 3.8721989199442857 1.3596080422185781 7.083283744215877 -0.729275156866299 -0.30348993183439343 0.8377479423584218
Ni 5.829764857468881 1.3789287929285938 2.8854749200393535 -0.9942787597000359 0.013600878612886254 -0.9801847435008152
Ni 3.9207310249213028 8.057001692534653 2.314297169187447 0.7780507836081052 -2.4844562134196115 -0.6297019878566511
Ni 8.239351637629515 5.397810704917269 8.697898989335233 1.2217213735608636 0.7573035237584248 0.5354718283264714
Ni 1.5265603251651336 0.06365625602137322 9.896540681858689 1.5089477923485433 -0.23827415725869286 -0.3482867764341098
Ni 2.5059142598683377 2.049961119542511 4.110036624454331 0.4132793792554108 -0.6329063537265616 -0.8217381971937268
Ni 6.579166864036198 6.436756907420525 12.76248580398063 0.016875692709416096 1.2145173996132568 0.06915007663310026
Ni 8.718456525946275 8.703915312709327 5.030630796535836 -0.45687988955418085 -0.05558930722953006 0.4642748964666714
Ni 6.617338699924193 7.801991726895452 1.5449988414051687 -1.1710618995327833 -0.5575604326953947 0.5274983232026915
Ni 6.590770365415903 7.6866658159605015 9.188205861047447 0.4050089117165025 0.3855659725005424 -1.0182612386575625
Ni 5.654855887861957 4.023624612949427 2.8661606157189934 0.7008261574969866 -0.7077699358046714 1.4475611617109456
Ni 2.2556562043179684 6.417159882868136 2.9021213399551895 0.031499870380494135 -1.2662330828199935 -0.9132851534647883
Ni 1.1668425732662204 0.2707327100086999 12.327939281874745 -0.7297963194770914 -0.4466561549436437 0.1678686109519367
Ni 6.207946911166451 0.9004077633320504 8.513823253638341 -0.21629508188444038 -0.15491693588727512 0.8544230890212575
Ni 4.078041350769008 4.287622687593859 10.37632059926365 0.057544631183687994 -0.0007566756603664388 1.4969600238590477
Ni 6.645583095742887 5.730665430209358 10.432795577208916 0.19510070719501238 -0.8012637313894588 0.6506114843158085
Ni 1.5082709967999808 4.35052103237432 11.56445007208478 -0.15717076491845833 -1.3535253775797593 1.5666500321560182
P 1.543597212111525 3.802706839459167 3.0391163292603336 0.4438780779778742 0.9716121713404557 -1.282495824535759
Ni 1.7107705141319793 8.54991106384203 3.6953302478821226 -0.05055508723973228 1.2638365575633588 -1.1684182912623489
P 7.952211024122228 7.309211283381183 11.231261976356224 0.2743091965053792 0.6542701641143184 -0.6367673793438646
Ni 3.3004225757672354 8.831295972299861 11.738309201090683 0.2693999321292199 -0.12174430579004838 -0.040539097764626955
P 4.46467738404322 2.1040647470074028 10.020084818691457 0.3506534768940735 -0.037689801241289934 -0.3540288211242097
P 6.070776948427804 6.191729636619103 6.806408545778397 -0.3314013135326809 0.41895946035932363 1.236878026696644
P 3.655710737060087 0.7682751936526871 2.6372152452821553 -1.0979942330128316 3.29572102188584 -0.042638146385500765
Ni 0.42649498142630393 1.9821635186239532 10.775971893252096 -0.06351961782020028 0.7651191631481017 -2.2496628156206673
