# total energy = -340870.645454931 ev
CRYSTAL
PRIMVEC
9.27886431547418 0.00000000000000 0.00000000000000

0.00000000000000 9.27886431547418 0.00000000000000

0.00000000000000 0.00000000000000 13.58055584767677

PRIMCOORD
 96 1
Ni 1.3145181207357166 5.438444322377189 5.483135971363013 -1.2465685145115306 -0.03493589264523661 -0.040612374204723606
Ni 4.783421468259841 7.44357901995622 4.27631298692003 -1.6956296793522407 -0.7532396381016964 0.5167871074327745
Ni 7.252861247039245 2.416596647672945 0.91128281156173 -0.034107226096354165 -0.47938604107649696 -0.5452659315987577
Ni 5.4872325898675784 2.4151120294153445 5.490876399803575 0.16845019448701956 1.181906812667087 0.1337387591477632
Ni 2.809751398877826 5.196822700952746 7.501314896107884 0.9271040616257517 -0.3518654949243037 0.6824106311042764
Ni 4.635377191384764 6.266425203504968 13.217479332843066 -1.875893578644737 0.5979491209250863 -0.28179676313167595
Ni 5.343029762734042 5.321938904612009 6.581897304380915 0.3346763847395268 -0.8010364458700011 -0.01016382790687927
Ni 2.4076518226709034 3.0667573769966525 10.711011318946289 1.231515219722834 0.001621337653506885 -1.346914814241777
Ni 8.494623794288438 8.628731217270294 10.60183713171442 -1.6167595472178993 0.16115751748034826 0.1375704741890276
Ni 0.505189612241863 1.2386077334517929 10.491115229949004 2.074742182917956 1.1461584514228842 -1.2770484282679426
Ni 1.9323048931796278 8.970824379277836 -0.2785626352191822 0.7854095379660215 1.2891392979942058 1.3916414677251903
Ni 9.055475456553381 2.0162322190545927 5.42255241181599 -0.04091370749522631 -0.4328981819276028 -0.11660852722537982
Ni 3.3076088526999654 6.4690477590750755 5.722506540354369 1.478895710158169 1.9521013334555672 0.11484089380199577
Ni 5.71901861533542 8.965544705599244 2.9518284382437607 1.0574535925863078 1.7224208314031564 -0.021249653407395663
Ni 4.88817984406176 6.547157237153068 2.059002215283235 0.09323694237897491 -0.20046865637514508 0.2854371880977407
Ni 0.4298749280338014 3.8390094002797612 11.442514282603915 -0.3350877612453326 1.5633965582157268 -0.40011635951089153
Ni 3.2571596685338866 4.043357824574327 5.336764673686969 0.18922933601589992 -0.3352227441613001 -1.2543373598236722
Ni 6.5906194366443165 7.464140982823984 12.648019668343277 0.26669024650754064 -0.417126778025959 -0.461194971989767
Ni 6.099340697476167 1.5745768451467337 12.318514213387363 -0.1549804421353589 -0.25718564945121514 -0.15555482658159017
Ni 2.8589108209326146 5.164142541557319 1.4280765712595611 -0.26101376494805373 0.5611473787157045 -0.6564975107829404
Ni 3.132451734895464 8.617661532387062 2.925197170361644 -0.16636785803669413 -2.26877151142566 0.6244299408244343
Ni 0.977695353542656 0.46477088017869567 3.577158927209103 0.38981497758488354 -0.14133919720284044 0.08371280493862357
Ni 4.816370714714457 3.8174267623598976 13.270497834481205 1.0425908165418625 -0.2639625631637325 0.31665140891701593
Ni 7.895339076879871 3.294061711099363 3.22627868088939 0.17588119684376805 2.5156076993217518 1.0701496999967377
P 4.219312924692289 3.5166245456418634 7.094468253022284 0.2166558076579688 0.6227139865745921 1.7085828970787997
P 9.191633508503545 6.663003855566439 11.452102132888779 -0.3584660309599569 -0.17746036840542986 0.11757423357275881
P 0.8702089916923967 3.3473038333625524 9.228326776626545 0.44423777531013814 0.5465792510935426 -0.5784671009410748
P 3.650908267041807 6.820076467220548 10.85660875935556 -0.2178115185289668 -0.5557035819923138 0.3807616091333636
P 1.8022152183574045 7.8079043403713255 4.7048072199742625 -1.289314133009173 0.13532255869511534 -0.11699316425830819
P 6.826868595749069 7.413459827055154 3.9725294711634525 1.4801326678890638 0.8896220055198937 -0.6222473313508187
P 4.452147461804562 5.227183144320671 3.9459529485795852 0.8201238015187554 -0.1445870147161768 -0.5408965988864685
P 8.691929560723516 3.4300156280391074 13.160997959119076 1.6792134427777468 -1.5283153982418778 2.678016829821014
Ni 3.568020173947162 3.271077964698889 3.03974938723167 1.3324783271014728 -0.21165604045053227 0.36886768590925506
Ni 5.205934545508767 5.174275061165442 11.238887753937107 -0.731578608188495 0.8839745774261292 -0.7557739744877758
Ni 1.638109227707915 2.385679472458419 12.967488175991402 -1.1459208814907813 -0.6491942922533077 0.26048103237303527
Ni 7.406398611467444 1.8031894990889548 10.279285257522542 0.07871869415814185 -2.230222961728501 -0.5124720249971884
Ni 5.6953203963984755 4.144775809296646 2.0140507581023317 0.3159878071910881 -0.31201905235132715 0.8713062379298414
Ni 8.00135937820075 1.1773208360052319 3.0780738796652103 0.13032356281862717 -1.711731212899794 -1.4297357034937506
Ni 1.6188463058155516 3.2084641896845976 6.908768489815999 -0.10257236084728788 -0.835271198683155 -0.6997709767595949
Ni 4.031916985126696 0.9566230531488422 4.33396256963547 0.2548228056459934 0.2606160152890028 0.11788096617990021
Ni 6.984163900141818 0.40526738041407695 4.979813266580082 -0.4739787540179966 -0.5468103932677422 0.5207777166494063
Ni 7.21973570216654 4.351304766657063 12.158222763773496 -1.2316512310800658 0.7451581466451425 -0.5548355775650637
Ni 8.05443448090996 3.893439217149031 9.684782866676269 -0.6539107238923706 2.11581941257424 -0.895017208393536
Ni -0.37625608388774573 8.219802397078409 13.175556496907667 0.10010153070929212 0.6284246638061242 0.409316795063237
Ni 1.916530824192625 0.28116442871562664 5.996276642260735 2.80429193360188 1.2893056483687408 1.0136617922123383
Ni 8.707712908574628 5.818153999486677 0.008921627841766606 -0.018090538953123684 -0.17161136582382058 0.012063873143069545
Ni 8.794043460254082 6.72467118644151 4.0299888371646375 1.8917071486382258 -0.025687634574091244 -1.424737993168843
Ni 1.6128150441440503 7.318592720394498 7.159533503934438 -1.2861136237940045 0.3521100068349419 -0.48274570157734914
Ni 2.0253533424747245 5.433879121235068 9.599687331809855 -0.20650920614227014 0.33632086232148534 1.7251911950594416
Ni 8.712111090162768 2.1541996495062077 8.1035308066888 0.4960917838669521 -1.430844106066581 0.0893895436084267
Ni 4.339863927209431 1.1123316717787803 9.81715235841032 1.2899093433910107 1.2101082148019675 -0.08227967203652281
Ni 6.83272355900248 5.2954570264420635 4.62809049939918 -0.22497306927441255 -0.4912763647561797 -0.2431875353999102
Ni 5.293842504086923 8.792707303822242 8.500151213638768 1.9036802618397024 -0.8545408455460444 -0.17320673533539846
Ni 0.9651317715377137 7.492487912680039 1.6621646829130943 -0.32301488924119853 -0.07093082268260686 0.3036624528565157
Ni 9.109923831150871 7.017976080958664 8.856070811056622 -0.4686802246232186 -0.9784369075717729 0.2825266993191651
Ni 2.9032730702425322 7.9298007781844175 8.990694138882994 0.38108711079358243 0.11354377225712703 1.225663388927747
P 2.2244499296830305 2.05623340223281 4.727703745052103 -0.21241245900058256 0.33676874849218136 0.028355668324557617
P 8.936873015499339 4.119101192304272 5.209827029002914 -0.2937529070522876 1.6073279694913545 -1.7145393717725503
P 2.970869595283895 3.178873892037802 0.9399804824811432 0.02572311579771699 -0.9897914133526436 -1.7665535600563127
P 5.88986106132877 3.1661618482071 10.672645999510666 -1.0576811352160815 0.9451318656617399 -0.048208441384426655
P 5.600406895417269 1.865562023636386 2.183087537139876 -0.6967648429434193 -0.11672345553668931 1.252860003947197
P 0.8512782531351712 8.905426945030543 8.813305454260036 -0.6650808815765772 0.5786221384617002 0.1211542376145333
P 6.857832165284145 6.0994427649813785 8.257167454962975 2.317212123425551 -0.31234558245281047 -2.3288515074366924
P 6.4374346690522986 5.598003669612778 0.5515236201751562 0.3754563948703663 -0.5228037459404996 -0.4754769358300779
Ni 1.4778168502076359 8.304091598653665 11.120492231552719 1.3320021587960027 -0.59618097328107 -0.5038467452220226
Ni 0.4422427260060226 2.857973655657504 1.6180010012951302 -0.2343532249377319 -0.7350894495552308 -1.0132126204900613
Ni 5.99957435056543 2.973616139060455 8.377369572189581 0.3900024110053412 -0.9655744497868081 -0.28941468468824993
Ni 7.637525837583475 3.8402898835269412 6.794257099948058 -0.9070456003129798 0.8923311769209407 0.2546639114706259
Ni 7.854261545464894 8.791900042644674 7.735212791047162 -0.2907295468449315 0.6133420584413889 0.10342828108967993
Ni 6.270210980061849 7.509097079436942 5.997906938684863 0.1819060628816093 0.23268817853048313 2.5286308510542965
Ni 4.063279545818501 1.4801458450992464 7.348411278098399 0.7945372112989026 -1.1589774575644234 -0.7009002052680317
Ni 0.3864424209077056 5.015430186466323 7.755841561736517 -0.41140324527862054 -0.406055607813462 0.46908517337112116
Ni 4.915227732942415 6.303948929965815 8.794998255371002 -1.8822377756952102 0.845450453209002 0.7929364424706861
Ni 1.371351163409477 3.7645186792046674 3.6000285435810238 -1.4364295705741585 0.6570544117276749 0.6840083146086994
Ni 1.9191938581921955 6.527114890675465 13.036491376831838 -0.669955178949743 0.9789698972571075 -0.5308901224930599
Ni 9.170152938088892 8.921377312435636 5.793560370163117 -1.7389211430510243 -1.7926862525876224 -0.7108565451497951
Ni 3.83291318655949 1.593459333610587 13.065838568238954 -0.2541790014144074 0.4932699981474408 -0.42927344069082196
Ni 2.1077774923638692 1.4605210475065928 8.470165636380885 -1.1215352535575651 -0.5962082269745796 1.2989524274298854
Ni 3.104670815750119 1.1787776176705023 1.8448367527602862 -2.1401361349427335 2.2075311765579397 -0.4477373038229644
Ni 6.982076155717067 6.712061210116018 10.263817391051171 0.4450895817874722 0.014437258471252556 0.5794832009104149
Ni 4.372080143399358 8.661300030296399 12.171654847459134 -0.13058761511329123 -0.20926671428274926 -1.205160640988705
Ni 8.514879554640574 6.519663962795134 6.268539856635638 -0.7044110466347676 -0.11697722341870823 1.775941686139432
Ni 4.787559841652902 9.350404152289784 0.93879000421583 1.230705836447661 -1.4138033485342103 -1.186485176066389
Ni 4.199669569371416 4.1386981533045955 9.353078320926286 -0.49922595862055963 -1.0410990624876844 -0.12650830283759504
Ni 7.191064012066634 7.27924105770398 1.7417058897232616 1.0651743582693332 0.7816572700124408 -0.5344485292682796
Ni 2.4977031988584693 6.282987975941321 3.37911363530446 -0.31362264939302115 -0.5293286915432109 0.2765126319146012
Ni 8.589592968454307 1.316745048122117 12.39119741173383 -0.6377698524664499 -0.03622144422587955 1.309934894583318
Ni 2.727132392842371 4.533105551164326 12.480544522135446 0.462484637335468 -0.5405001347789982 -0.22134241450036074
P 0.5700646464397616 5.073515875794933 1.8451763591867123 0.36321922937422607 0.9820583063744441 0.5088997342648978
P 6.919304640012905 -0.029960524324784393 13.808980939036164 0.5533957597947438 0.4583184217729204 -0.013378735299751154
P 0.4757793245588016 0.5992745106580469 1.4204985229409226 0.5011936238698916 -0.77384188773308 -0.3595559215900259
P 7.062115637529941 1.622409389633792 6.73948674876595 0.5151912237005644 -0.6655639918605828 0.5278325666136587
P 3.1865382337926635 7.428751395108438 1.0744553484817534 -0.5938345845360806 0.7626377914871446 -0.9346715895603644
P 6.2985393521896835 8.950846984849 10.386341080078097 0.10825192773056841 0.132684606851636 1.3685534755574753
P 3.83469472846861 8.547995820649168 7.125853082987954 -1.4882308715161658 -1.123370249883775 -2.4672809871919057
P 2.845382237060232 1.0951379365829472 11.155299106602156 -1.9565915080164367 -2.0363599835953314 2.36399385966578
