# total energy = -340875.8332973737 ev
CRYSTAL
PRIMVEC
9.19055719140642 0.00000000000000 0.00000000000000

0.00000000000000 9.19055719140642 0.00000000000000

0.00000000000000 0.00000000000000 13.45130944537868

PRIMCOORD
 96 1
Ni 7.375697816893849 3.036817412732983 2.9933332107083217 0.5732189651682579 -1.6564956894652567 1.7471260474593202
Ni 8.382091394758012 4.710215674610294 4.728969006442589 -2.2419626187629325 0.04393989591605981 -1.2571977120906026
Ni 6.499038143535777 5.507156455386484 0.35203326235622173 0.11575389253456839 -0.47395535697922897 -1.1998754813303656
Ni 1.8035181697830378 7.472612241873782 12.089189006066764 0.2674564352496039 0.5612008576614593 -0.32419913935728684
Ni 0.5698503854920122 2.7492081177759395 12.970290475687786 0.6984851680686358 0.3803841711892868 -0.9410944623675729
Ni 2.5669317981337385 8.080540024628418 9.70176992704498 -1.2238484472061955 0.13139622705751564 -1.32182727514553
Ni 2.02688547037216 6.262215867302214 0.7534804742000781 0.2983646947926861 0.19945049952327587 1.044985284915968
Ni 2.431279174833235 7.853606787871233 6.083583603563716 -0.5709131998532168 0.499392566105411 -1.0224745054079618
Ni 0.7557560561465012 7.954151482919167 8.048604676698567 0.4498857176245349 -0.21512265884289403 -0.3821636316872128
Ni 4.783593082769591 2.278734307520107 6.026886137547243 0.47649689245416 -0.783966891982224 0.8664175423789723
Ni 0.6589261842922026 1.9111947371670963 1.8165990897521171 -0.3805240392012608 0.830384560014815 0.13464712989464553
Ni 1.0451869195275394 4.3961651467782135 5.730029304001787 3.3626594355796025 2.105003810015975 2.2039051497695787
Ni 3.842792511172073 7.8436258428235135 4.0169783833690555 -2.012065115603709 0.7331130425551503 0.003064754968252786
Ni 4.373078467257152 7.006605042385162 13.129903800492812 0.6437754352305817 0.4244703628752238 0.3090967364982096
Ni 1.7516374747605892 0.772888173700327 10.956347147871979 -0.3399191211957049 -1.6815598315227362 1.3721342509301981
Ni 5.341349614128735 2.037307562162321 1.4952880217840336 0.2688515158249176 1.5717896673754286 -1.5078087936480935
Ni 4.545943656393953 7.683443622531882 10.447847407473477 1.9509636203066978 -0.9535113479746868 0.9176231187185099
Ni 3.658843510131451 4.102655514141026 5.196859351088003 -0.7988420093218436 -0.43516409514364407 -0.4210978468585651
Ni 8.353490380956442 0.6016965850176609 10.73867799270605 0.05265644985345124 -0.7949488449150245 -0.3362725255820531
Ni 7.501663592974927 0.620251400815858 4.073877122586766 0.3732727569554862 -0.17444934949324795 0.7608213071036962
Ni 6.856615149955337 7.605048170177323 1.3448643350574752 -0.3831851309731917 0.4927994862689255 1.2590992999886896
Ni 5.981536252424344 0.5240850871866471 11.286913106874183 0.1264111151380984 -0.6348336526562616 -0.766307527029248
Ni 3.801940484710641 5.3724780311422045 2.955292575674235 -0.13471860656252926 -0.023048654289347402 -0.21157762180411305
Ni 8.181590200318732 7.081011792943487 4.134677253307937 -0.7364611330917769 -0.4519665114129635 -0.9937002614887468
P 0.021145633854322415 6.632503414238346 2.255892096818815 -0.14640786997499947 -0.9217895913913738 -1.1971272291612673
P 8.000848703717939 4.378500895966318 12.476910120830723 -0.22725080956499571 0.3187412015665091 -0.8000082617158027
P 3.5507074148906836 1.011503527630768 4.362582851009918 -0.024115404990964918 -0.5351157305386333 0.4654640316787661
P 2.4491180462306787 5.776357064403765 4.835288128537929 0.14949242243759417 2.339028962190327 -0.6151703698993793
P 5.142833580030437 2.113956808661386 12.689467488118622 -0.7037906394419493 -0.6856859594214384 1.5219568030137014
P 3.3552977891037385 3.5492093540778127 7.4530207312308505 -0.4696225339318299 -0.05412352131728098 0.2949736668332662
P 1.018240206010122 0.7336876903559071 6.813074885532157 -0.3369608098983293 -1.556982684269583 -0.6746160747605221
P 9.063139250072188 5.753968867224901 7.256134182912442 0.09907283233446162 -0.33111643530241036 0.8367850642245203
Ni 9.128355443496332 4.737484057627407 0.8715763762071569 0.9842643128868275 1.940018434149104 -0.7583872437409067
Ni 0.4084237637644128 1.190710201190153 8.803760589464206 -0.06178926539265488 0.3264018034355604 -0.3756564266963144
Ni 8.51194477650685 0.685589828649887 13.115631784319143 0.1274156451432128 -1.2994327095004137 1.48204094065537
Ni 1.2855383697006268 3.81664537612533 8.31935205648153 -1.2847553099938969 1.253649589728028 -0.49656460973831257
Ni 5.901514071457035 5.342893627727277 11.156004649166343 0.43833555089309023 0.5281544687294518 -0.10699594383628026
Ni 2.1740998145474624 2.29630665276066 6.058120245967756 2.0245732753730485 -0.48039905572204367 -0.3908321059954882
Ni 9.098081748296343 2.503618050036369 5.753206050982763 -2.5881207788898135 -2.8191171715401704 1.7213155141541192
Ni 2.8751187505142117 2.4580420772079683 2.8766434639427723 -0.7292561307029054 0.6620626635755437 -0.13896889719845099
Ni 5.7421773824217475 8.950656021306953 8.446212073771763 -1.391918889756293 0.6637557350072504 0.417882425245061
Ni 4.628906815644199 6.195878425907701 5.689782935255498 -0.6150580126912311 1.6765790904786935 0.79655167062577
Ni 7.055719379710222 5.694377294766874 6.208801268294072 0.4112068129970983 2.4637423779110277 0.6309823972309714
Ni 4.414748453303526 4.543260013710771 12.865464819126752 -0.5743070560261142 -0.5097949923856575 1.2295629810924693
Ni 7.599984173196389 7.693066135851369 7.933111540471889 0.7870763841454832 -0.48006506942139254 -1.1412031643001377
Ni 1.382048410166656 5.939921409720774 9.860764727354875 0.423820902216683 -0.18442497264872107 -0.7832495542002254
Ni 5.27719033477502 9.3522190341707 2.8527268771124947 0.2636833413604168 -0.7664437954967961 0.12487565233017849
Ni 8.8245891490974 6.140532890845666 11.334503649826397 -1.7071484786251183 -0.4780570378524283 0.3672134381352837
Ni 5.3366348583189005 0.10930697221966196 0.3428859008405719 0.23547011215099445 -1.321625443547369 -0.17997362174558681
Ni 2.395583050924078 6.043673609208537 7.548874565917498 -0.14947082517103935 -1.4411467735441696 0.17694691910412108
Ni 5.738979068539052 6.723425595966794 3.660195441085889 1.515423372770558 1.0003895005834642 -0.45935843300166046
Ni 1.3358750511245334 7.571805925022993 3.761214368881947 0.42248778522755626 -0.9380145378906685 0.7614486562750499
Ni 7.202124954857717 0.8434670572122659 6.475285148622487 -0.791079077546973 0.07821758615200722 0.5113312265245259
Ni 9.089277194561797 8.814295725107117 2.179972580556204 -0.13148390167531548 -0.32942979162860686 -0.34139287752775394
Ni 9.001645232287386 8.413146287314408 5.7558419027688466 0.705095731406618 0.721341503841519 0.723701005212631
Ni 3.077568343065939 0.5256906775179885 7.859559511727043 -0.13431468625589127 -1.0890069419125568 -1.0784829024527813
P 4.002561156392667 7.483815531020348 7.575683421077903 0.8018764252727931 0.4278904443003663 0.5621447096319673
P 6.705752154597764 7.988092210415696 5.485390458925605 -0.566528697632276 -0.20875917851871145 0.48467325761736524
P 1.3426944445180953 9.066328373397749 0.21837131373098156 -0.3605504242928113 -0.27123955644111997 -0.9505316965210725
P 4.047530552450211 7.73343106278469 1.8032553198490004 0.5601094243694934 -1.0240536769696233 -0.5912745371183882
P 7.39873854362924 1.1593152580197923 8.660437527179516 -0.21978484020525374 -0.1280990443634826 0.2882741433259035
P 0.2943864117877882 7.869772977870257 10.178686317851872 -0.057458242117468784 0.9749746600547854 0.4910565354358898
P 5.564992631431883 4.151393038623585 1.8133309276352023 -0.018888609374386824 0.9819351505330186 0.8594580803420038
P 4.062207872193498 0.6991532528685106 9.914960523719422 -0.3139136982708787 -0.19711825184567344 -0.09095868786775949
Ni 7.833929805046953 3.5683073318026395 7.467130993598958 -0.309047628427829 -0.05602690898758093 -0.34517599871927007
Ni 1.5883947989432758 4.970023534236441 12.137990864449264 -0.01316044864135798 0.03471554910431441 0.44579612093619353
Ni 7.238004889909558 2.283871828958114 12.066672141088024 0.12966844573313152 1.7922928738039454 -0.2432638971638004
Ni 5.763655714444328 6.389661323081896 8.588150119096333 -2.8677274763487066 0.43883305935479905 -0.6255092899315421
Ni 3.7986594558137385 9.29882189722111 12.0150055860468 -1.2048937604805636 0.1346566429763423 0.2052586215646207
Ni 5.855313140743509 4.524446943257104 4.33331276464898 0.540241996021605 0.34116713467019305 0.4856117102712347
Ni -0.3158114385789897 7.290712735074083 0.0067146210422322486 0.6902563524009403 0.004668352009946799 0.5792322612418734
Ni 3.4522857385407453 4.659924945972058 9.761830217916849 0.25563013203863716 -0.44621263964832186 -1.188138909619728
Ni 5.399700461373647 4.445702249731446 7.116616930337015 -0.944705833867915 -1.4525295614598146 0.32906958007571063
Ni 2.3474704843266427 9.022875419267343 2.129274710236924 0.6705341913816645 0.8827995832814216 0.5174615077919797
Ni 1.290225553839059 4.758080096165106 2.714016555453449 1.4868725577160589 0.24680610598910396 0.6035456411762573
Ni 7.848175168604933 2.972685705050672 9.83733248288557 0.2715737998520872 -0.32594311863158704 -0.0032604159188266424
Ni 2.8974977571359415 3.0963262701768017 11.71032023593445 -1.1521000137182997 -1.4884234471429463 0.7874435376769148
Ni 7.643565795126673 5.328629883055029 9.152782106247559 2.3868262841792633 0.581828818324456 0.1471455194719724
Ni 7.394777413504408 5.287465377651035 2.579746191945926 0.46337089659516323 1.21680773830933 -0.6855206374881677
Ni 4.9973194889249575 2.194300659128391 8.518082230561054 0.4883473640348428 0.41298164550933386 -0.29808058789336406
Ni 7.706420015367334 3.0807666569486343 0.774240104654765 -1.7265068285470717 -1.6082078009931464 0.2280085136666267
Ni 6.9038546136250245 7.5240425995966564 10.338501834913849 1.4996727948045205 0.5487865431575064 1.0594181725118463
Ni 2.5603881214542015 2.2272212347830256 9.289393304657157 1.5374081045717651 1.1446782673329319 1.0195725012698182
Ni 5.126299767746047 2.4627844046892053 3.7005759919663377 -0.42657069704767825 -0.7282924812380553 0.7012604168209278
Ni 4.963829098728004 3.0613470097241104 10.856579054901884 1.3508786839855316 -0.439084770354289 -1.1967271655093714
Ni 4.654309515563074 9.124155358886012 6.064051831542156 1.2019483046989945 -1.1057821044883664 -0.5395305717768772
Ni 2.867233252493085 1.524897239703223 0.38318097953967273 1.1115066656769697 -2.0225927546079103 -0.6391147965301187
Ni 0.8440754720945486 0.932418783491145 4.057345148413803 0.7662802733357383 0.025977397900368168 0.6069209854063935
P 5.840902347157114 4.204836128358845 9.204017624159187 0.34512817620047015 -0.16747497505794381 0.2795221081648863
P 3.512474697212493 5.978448225227259 11.387811638371783 -0.6883529647306403 0.265379241005601 0.608821544863216
P 2.3788470463827354 3.4035482140581865 0.8156352930428272 -1.4678870177524912 3.4868141505833568 0.3983813790976558
P 6.969181093734779 8.114342893767933 12.668187672130141 -0.24549844292127398 -0.13721489062182177 -1.2922559892463164
P 0.49497215935270367 3.24034230046941 3.9599978481928497 1.1439658146469396 -2.0328090330192796 -2.9596120184648447
P 7.3569123181115845 0.8648975983377479 2.000222745070189 -1.0479042583349758 1.006355231248596 -1.557356008448602
P 0.8741681133189958 2.6258156976924325 10.75913709194245 -1.0626868159607892 1.5103215327676183 -1.033162581249427
P 6.878994156577066 2.8059414269652354 5.340734765856458 -0.3643114339971403 -0.06541940594607443 0.09302842591259462
