# total energy = -340870.8134729813 ev
CRYSTAL
PRIMVEC
9.20954644239684 0.00000000000000 0.00000000000000
0.00000000000000 9.20954644239684 0.00000000000000
0.00000000000000 0.00000000000000 13.47910213366347
PRIMCOORD
 96 1
Ni 8.459604064370023 3.8568199972971002 10.074873820406978 0.25279420525173885 1.7950002454327796 0.4784825554256211
Ni 0.6983590021443925 7.00004748132231 0.9818647655189024 -0.08702772824446947 -1.117417631844766 0.23619490613216096
Ni 8.511370926136339 5.1700000457577575 7.9215740600000135 -1.0812224128711314 2.5989510367360986 0.572887292860452
Ni 6.515293783415914 7.151443218838141 8.237389675915846 0.17045231251871287 0.22067752722285222 -0.22554179729368898
Ni 1.6570276824950292 4.823656624578985 6.79276637277457 -0.4224163085596725 1.4831156617767878 0.8206197673185673
Ni 3.9902202806426077 5.78799746471647 7.898592557268887 1.0394800388270227 0.3891374919018847 -0.4100752704958164
Ni 7.329970280809329 6.268873943479721 2.0177269450047626 3.354619338883945 -0.44489829171227246 -0.7755838101248513
Ni 5.386148105828111 3.92213410219778 4.169301757322627 2.014996173207575 1.871942307306473 0.28141238320906375
Ni 0.8623147193928153 2.341877200646358 0.6306660713418736 0.6578576243552605 -0.582780383604448 -0.38259017770167014
Ni 1.0910273639690906 1.0433955886523514 3.589808531987609 -0.3379401430924632 -1.3111631105634645 2.2169218737442207
Ni 5.5921564550276734 3.711235483722658 12.136516488651854 -0.28456301302290343 -2.06714765840015 0.479238202644723
Ni 0.19052894317628824 5.236962659510272 2.92652869306469 0.4464970036579601 -1.9935989384787214 -0.23732002087553966
Ni 0.4614830154101982 8.851774189720507 13.144254554552592 -1.251016522980555 1.356527911851509 -0.5979794599423895
Ni 5.408085245968187 6.069118876461146 2.922943416550613 -1.6991780588251317 0.2007512206125704 0.9795453101446034
Ni 1.9398252317315159 4.662922406751637 0.9027188424921189 0.6526534544465018 -0.5580466283031937 0.6998928470494398
Ni 9.024563704123572 6.878076245379756 11.527260771381203 -2.1227814457143697 0.48691345980179374 0.8989746503793872
Ni 1.9438129654345606 2.429515246646762 5.87690182338239 -0.5911848056180592 -0.04565610727621815 -1.346988604902506
Ni 6.076173389201406 5.570910030886971 6.437390228233336 -1.223751259506699 1.4002459215647496 0.7112488954922073
Ni 1.5638546989529853 1.20760180556988 8.024096575309565 -0.38614189960867046 0.679878608711042 -0.43437836601755514
Ni 8.106712655517198 2.1484030444487447 1.9611149407415132 -0.299392107615936 0.17537134708688507 -0.22970184220864956
Ni -0.14699817898649106 7.222310680373776 9.321055849240956 0.3245920039203313 -0.6389857271514222 -0.7804856183018429
Ni 4.357432534549092 7.506406775689084 9.950112091826957 0.4077260535373494 -0.5456608530443313 -1.9810771518626267
Ni 8.83397213603001 8.801600579526076 2.5393547467763353 -3.3348395851538566 -0.05773026483193284 -1.5122755711701956
Ni 8.75937480809776 4.087509931540913 5.896230819908836 1.9307784036080748 0.11481158322595711 -1.1435320695436306
P 5.484892865098427 1.4233630646805848 11.140343771444615 0.6007099714996752 0.5369995778249074 0.2748810098484492
P 2.3794797796522063 1.6138809564008831 12.767796836755839 0.7694098201036556 -0.24912652659216453 0.5148829484315262
P 7.123925093423134 5.723309608988555 9.785989681784018 1.057195710939231 -0.47843653267903413 0.47903817081877503
P 4.536475331133147 7.118869052307725 4.555748149424976 -1.2347193284824283 0.1163987252074189 -0.4269098255546519
P 7.808258876961598 1.8015254695637912 6.888845889241974 1.6890558827894653 -0.9922748418961298 1.1170867308679084
P 1.9229717613468225 2.88426424154041 9.604534904930157 -0.6906646435829524 0.9698224264298846 0.16631849285599742
P 4.264010893247275 2.199875200721996 4.512884156413239 -1.6380176852657273 -0.725116397502919 2.449642962395168
P 7.625716452647389 7.972842685292116 13.542184330383177 0.5179782995273984 -0.5675897919069385 -0.20003413994088776
Ni 3.3984700696600565 6.677087099108968 0.5148532592497255 -0.9272539569400549 -1.853877736495278 0.8041348822896667
Ni 3.1270278914532565 3.6384708555754126 3.055914535021844 -0.5653161653814135 -0.36658403208140095 0.1595937725376542
Ni 5.750929039416804 3.1845599294276705 9.885142423971297 0.7082695011489092 0.35747281380875207 -1.2845511644028909
Ni 2.5947713518833373 8.476125991075017 4.330674196733396 0.6094026141776665 -1.258588421790542 -0.5865943580338995
Ni 8.780400203118663 4.6367304560554246 0.6311643078160877 1.4884535290499332 2.1106288695122357 2.983929769274603
Ni 5.722176834749583 1.7941025749571995 7.725156532690407 1.0870683301289472 0.175543096778059 0.37107369242163835
Ni 3.347661000746203 7.50007981713483 6.5088830179870705 -0.6919918470348082 0.8408692615962229 -0.34714597796144725
Ni 5.393764400914527 5.665565751441 11.174809578858643 1.1638476411725311 1.5866413876762802 -0.3269908431698111
Ni 3.476631492149067 4.512834424861285 5.307611854790107 0.2003611842630033 0.3509938909526278 0.5564643714177384
Ni 0.6157558153020822 7.367812308028293 6.7975783609035325 1.781256670594442 -0.3491434680074503 1.08775352912143
Ni 1.1193375103967116 3.646796285754518 12.023857946290176 -0.7403401564312089 -1.0371421347224654 -0.09920498703695173
Ni 3.428216905366373 2.8452526018958415 11.23395605036226 0.12713719467084555 -2.5148304548360945 0.5871018937979373
Ni 7.772203501794345 4.779441591072477 12.228672738242821 -1.689890977096251 0.8408414936820809 -2.531339508234711
Ni 8.290406273163695 2.3873723611383713 4.32421738357126 0.6215428490846263 0.5065263489367148 0.10098547597614221
Ni 8.020750747008606 1.8504834195993258 9.346989011676069 -0.867604620708538 -1.5076946366677324 -0.5975408297430741
Ni 5.6445035182334635 8.187286979230684 5.930198390848652 0.29256608583303806 0.00625755087393761 2.6581697131880992
Ni 6.521685208796776 1.0469965213957475 5.296100842421894 -0.7790794819829356 0.6386124029724034 -0.3119509181175531
Ni 4.793513778366362 0.15327632694345572 3.870820350127051 1.4114037379537823 1.4021976459744818 1.162223989526179
Ni 5.124035198386171 2.276277599799271 2.6117242853719396 2.9821492803354124 -0.4627057522073386 -1.9962785421934135
Ni 3.890490099879853 1.5128890677459408 9.117426325943232 -0.33368291047800597 -0.8843129346021544 1.8740231010949016
Ni 3.642053369225492 1.0719543928397466 6.826195185234876 0.16007225483596949 -1.1712624455793634 -1.9550892124392971
Ni 3.8012864309475374 4.622833250148046 9.889873368089669 -0.08932629447065905 -0.03799730517937972 -1.1331242439467453
Ni 5.7283472310106465 6.354780594708364 13.635729379610217 0.3153450314007666 0.6292646432089163 -1.2359897105544198
Ni 1.6292148515869564 5.306181612194073 10.311620873487955 -1.1822899070381188 0.5278986439649037 -0.9397469472007429
P 1.5860036586662023 -0.09560154099583798 5.949352405988588 -0.3435204653937181 2.4446149130529577 1.92463423838355
P 5.163231028963905 4.105790881657643 7.707296458855962 0.5145589894332041 -2.3759649159847274 0.6827901259308822
P 3.979408272865761 7.273359197500746 12.060534965856865 0.5944159109608472 -0.7190987305539293 0.10260321408522331
P 1.115174795307159 5.740632766252822 12.61501137864927 0.8761193430477686 -0.5208072843357612 0.5608475880870987
P 7.417166268570135 4.037723122306131 2.9282812697937652 -0.6766161359096863 1.1291097234707135 0.20981641613863222
P 8.064993409155088 2.942717234180654 13.382281734619072 -1.1810197820764434 -2.5277065394678147 -2.1697207905783857
P 1.1248448192983762 2.808073662036275 2.7012254226613184 -0.2646523901419055 2.527051422382319 -0.5874096548463432
P 8.827378100622663 9.138568682206696 10.470405430287741 -0.011574335101160712 -1.7207264744198687 -1.5238925865838335
Ni 6.107541105119582 8.205328481134298 1.555986983242798 0.2154723288728289 2.0102979964009573 0.4476565711837
Ni 3.763020764582292 0.12417415950322067 11.267451171558504 -1.327169770404366 1.9531503435453716 -0.20227845589037421
Ni 2.8506033485043147 8.749492964533403 0.07303446786433418 -0.09501177489121056 2.287498655521518 0.5296793900144103
Ni 1.941869751089659 7.813462270823538 11.454783481089695 0.021220342831357004 -0.3664210241409754 -0.8376101312289768
Ni 6.5598495701487805 8.941438335985737 9.93727950951328 0.4430769222328176 0.9325661131815874 -0.7389232214790242
Ni 8.01248057410945 1.3378800525982237 11.787960013411093 -1.260841993711409 0.6992734682978861 0.791356756688392
Ni 8.641409724951567 9.143937847908486 8.073928511322974 -0.3904248432547405 0.51433478923754 -0.7564396330962327
Ni 7.337899700482128 5.526243729594205 4.671641084573051 0.7624953523720094 -1.2330326848086248 -2.1664387773930045
Ni 5.789747278581547 8.548890619222263 12.105002340941809 1.4200863533294446 -0.34583471534919147 1.6707570844802773
Ni 0.12774470074264443 7.074083026908402 4.195370300093617 1.5202429056463882 0.5991320854895938 0.6801449749985512
Ni 2.263448701304256 8.481688557256632 8.871783771745001 0.46120525640241217 -0.0007505050127793527 1.0090821432614556
Ni 3.0569156127436012 3.2578402921877814 7.789492583735975 0.840523705331346 0.5745042596385848 -0.3312984694062294
Ni 4.008040753426423 2.931969693230415 0.49233407576084487 -0.962453130549007 0.19399230462218203 -0.5455988894581442
Ni 8.68213434027458 9.259646592123396 5.129606974114444 0.6095861909433823 -0.24180633878166743 1.5077362885389451
Ni 0.24130762058616925 3.1840994520947556 7.961499286673085 0.8587890792994372 -1.3825644451245866 0.027100969981850097
Ni 2.6589895207316787 6.053057427089067 3.0573438566632123 0.14811174003998365 0.5370458576818106 -0.23237887482018044
Ni 1.2426901783380115 1.2437308571103998 10.992720264240024 0.44231484725581244 -0.04917414773180564 -1.0581452193366936
Ni 3.081293282748127 1.3149298623257342 2.3177721332229178 -1.8443577128199846 -0.7648772223406247 -0.17956095968820043
Ni 7.041370717178112 7.773511257419823 4.138205723030869 -0.9132918383330078 1.132524148468901 -1.5411696284967265
Ni 3.902978245148511 8.026930352816326 2.412611123755448 -1.0801006405618625 -0.5559365239387265 -2.0084750842596057
Ni 3.1858400564131744 4.908476549301949 12.180660608649093 0.7887481154209514 1.6076416440770314 0.9334536579928634
Ni 6.671653466580569 3.3839926623132053 6.147238855990194 -1.4363627218919648 -0.03257947659791808 -0.3825431265138186
Ni 6.231934451833271 1.6307436363322345 0.19340232173367852 1.7388373250879667 0.5634032646294167 -1.3976354805250961
Ni 6.157585781660797 4.223415211577479 0.8097236032005806 0.7450239350601234 -0.8924268219585404 2.0291531814342476
P 1.5667188679637174 8.351106395188564 2.4428847455306193 3.0569326439948905 -0.6026807220728009 -0.7993315473637524
P 2.123951698070952 6.508543185715379 8.31238761912773 -2.0625947489221446 -0.9870663011119968 0.9650314327991444
P 7.979906407579034 7.073908045521894 6.054556741285038 -2.927045140272417 -0.09998994483209231 0.18946124952104787
P 4.138770268241023 4.963411495118722 1.6324943711519777 -0.11221451192274222 -0.9194128636290811 -1.3777019748259627
P 4.654633814759165 0.7286344658288951 1.009038453888889 -1.689603013542187 -1.889366416320191 0.9130295858105566
P 1.5517809832839513 5.4218443086756904 4.75205792503868 -1.0916531212861522 -0.47756492870735817 0.48885669957109357
P 4.944320104896061 8.86988015845073 8.041861790813432 -0.014673285741458602 -0.5112780046890871 0.3933566721895548
P 6.967593038898452 0.7292128253590365 3.08910021545037 -0.6566196381831013 -1.0395980524621258 1.0873015291856758
