# total energy = -381166.22351294186 ev
CRYSTAL
PRIMVEC
9.29446230067792 0.00000000000000 0.00000000000000
0.00000000000000 9.29446230067792 0.00000000000000
0.00000000000000 0.00000000000000 13.60338507568704
PRIMCOORD
 96 1
Ni 9.13743219958381 6.273594642423219 3.11944641929352 -0.3426113233158874 -1.306221450287473 0.41293485143179853
Ni 8.650876401153313 1.2577359108944421 13.322828880243906 0.9544168905080918 4.163834721020312 1.5583317420983096
Ni 7.560979887535952 7.178633598589929 6.759195899592204 -0.34036109382913 1.2474984825249678 0.40631194679864224
Ni 2.3954059598980146 0.7680673970941326 1.4709471545414308 -1.0713730308808773 -2.296764654204477 -0.4408125516786731
Ni 1.7315490017345694 1.2484972155298715 9.64433729341792 0.5972379537906747 -0.4113191702052465 -0.32093486678371824
Ni 4.144066066427528 6.0735964061507515 -0.10512687289743475 1.4794839785614713 -0.43833657933435477 1.9077094376037529
Ni 5.359196162884152 2.414069239869904 4.830901723333255 0.0314132242039588 -0.9063241487659229 -0.5869080326195764
Ni 5.166819385564348 8.332959323743713 12.388112706472494 0.7406983111015759 -0.7694141909790297 -0.10933359083052138
Ni 6.221917432939302 1.2177139569308189 12.5326899239121 0.8802302798923485 -1.6047185568929656 -0.0978027073727864
Ni 8.347653868382935 8.23431719707954 4.684284371454488 -0.4458457432272063 -1.350133321179075 0.6196908834775521
Ni 5.845194293586403 2.7907830847606645 7.228852506964489 0.5325739379533859 0.6886964641129881 0.021453541888085632
Ni 4.363629145499213 4.733381438249064 11.415416572069043 0.5451152649535064 -0.15781714025320562 0.6760132122183649
Ni 2.4561452699658917 3.176270901909126 4.497877427165534 -0.026438139586870593 -0.07924679874746997 -0.4983448415671869
Ni 0.8588203842960859 7.225059436966218 11.934113550016864 0.7451648315133618 -0.541451442948674 -1.3113888534210254
Ni 7.021612955240776 3.2598652943728577 12.053088242052805 1.341097693339368 1.358615647618473 -1.6405461081145358
Ni 1.640305266931762 1.0378382311858114 5.788933984822537 1.3252314157310725 -0.08575323240742005 -0.003568176967232564
Ni 4.8114084478924966 7.44220595588218 9.048849469290937 -0.4411532228475435 0.10642824425826831 -1.0691341142480297
Ni 1.221859287044097 4.410975135627103 8.620737248780381 0.3247583542948665 0.16088472343493582 0.5116664983767576
Ni 7.837462252737043 8.706671057364096 12.797016991529908 -2.581966072142327 -2.7063892103161193 0.0944517886226825
Ni 7.29998209625576 6.363351263284043 8.979498840052765 0.40314100526982827 1.2324855540559032 0.14961660672028426
Ni 0.5284208442359648 6.379532921865248 7.042812693929961 1.8029909769477401 0.7350994768575598 2.4134904237340113
Ni 1.590812256050133 5.811055734155752 13.486899373124272 0.11036203209503574 -0.7062411578649708 0.41351103565024266
Ni 7.966869049075996 2.0024268062668122 3.870476137843594 -0.27395309871754114 -0.6678425034821143 -0.5327983952593663
Ni 3.0723866985994612 2.6531785728165302 2.1255561228781676 -0.7452355368502972 2.708149644650652 0.597590452034087
P 6.507220242708782 2.189254789690591 2.1724875799947303 1.2836101406458602 1.4534911540421354 0.14302532665601173
Ni 5.058408779193772 3.8500543456353093 2.13197673732268 -0.5205429749307809 0.0728069566593972 0.27779972615714094
P 2.4048584278917455 8.890915180313678 11.04647940364864 0.42479072232911996 -0.8149258022575836 0.023857009123255685
Ni 7.031102601083057 4.254056731361462 3.3157296590496714 1.237901839975468 -0.3971017410542838 1.1456308610541883
P 1.2869669943165498 7.095754879710777 1.7124488820422226 0.9938725254005528 -0.9221261487951862 -0.3542239678541513
P 2.152876264884827 2.5114937919940794 7.716302432652602 -0.47967477596150937 -1.8698201187571477 1.8970535005518037
P 7.686919849497655 0.18752785642272474 7.696250560037386 -0.3534120134758172 -0.4204406728905404 0.9277193266122475
Ni 5.4032983857260914 3.860919571873924 13.427152711612669 0.3108047203282518 -0.6521004101565092 0.7702953080324024
Ni 2.9513356237220276 8.339019313057294 13.467841078511544 -0.20350667187052046 -0.5836836121450076 -0.6866676066084175
Ni 9.146122521682274 1.8297078163675993 8.208459073967092 0.4190764455531622 0.6909700906385132 0.19734630869607947
Ni 0.4421171160591826 2.757955044491385 11.152734624249556 -0.41588133565463214 -0.41210078556627744 0.24297181984467833
Ni 5.899055701672609 6.078922132955478 2.429292639404743 -0.3239029482731067 0.7344417886689029 -0.6268056401454625
Ni 4.3480237435705265 7.436229616727834 4.690624124078406 -0.34932550211126934 -0.5346629592719307 -0.3330455340043232
Ni 3.99088403594112 0.4686128392742548 6.350019286794164 -1.354833040647589 1.9012971063195063 -3.199215178947606
Ni 7.9409282052505255 7.017188791263377 11.318124930753433 0.2247452695343226 -1.125169764986359 -0.32395925543233883
Ni 5.162701938837482 4.509319839502881 5.377458851537919 0.7666253153799829 1.0352271770879398 -1.6568132207056758
Ni 6.418225767743224 0.4155330954538051 5.378315800946987 -0.03067737447919878 -0.8568286131389566 0.722069383146479
Ni 3.8132296866469497 7.466352968515132 2.0799574916321073 0.8837652896288006 0.15406461518930883 -0.6157303561679074
Ni 8.779660468529059 8.250470972274332 2.1825953075691475 -1.8873439865735238 1.4999211633699006 -0.2109358744550561
Ni 8.687859065998008 0.9919421771513546 6.0413994598606005 -0.5839718328093878 0.5695587427078515 -1.0977013843627612
Ni 2.334499349511664 5.376390917838333 5.516159180568053 -1.1785620645645702 0.1445440772933833 -1.7449588646046723
Ni 3.5255196111838845 6.82307394952388 11.593661119708937 -1.6521551531083738 1.3282344642234545 -2.189120535261236
Ni 0.7276690174139447 4.1398092027686015 2.1461377798352155 -0.27369084619508993 -0.21695919783100057 0.3141358415840138
Ni 8.427149403044075 4.435400982124178 9.985333449760883 1.066633202203047 0.31857973628798036 0.7646972451193346
Ni 7.698268387767414 4.076634743620727 0.9871676119513746 -0.5682012002386924 -0.6141308728912713 0.040863313873265104
Ni 6.6352607531135375 8.820416685001536 10.329090990804868 1.0409735926534136 -0.0223534279945357 -0.3370757382096388
Ni 3.830647508692428 4.682893919918734 8.795472207517195 1.009894868970738 -1.070014459970454 2.345768080686373
Ni 2.2616493552787618 1.379660665212791 12.70154799423944 -0.0739536686693307 0.2499767904076017 -0.2200262667920985
Ni 0.7102874437708022 8.764789329109227 7.536465743648571 -0.46601167665212007 -0.1305755309284332 -0.3893498650230069
Ni 6.5625687647369695 6.301952046404411 4.714620566424733 0.49760050720199456 0.46693547401797003 0.20916978369356876
Ni 5.38942175375496 0.42446693246026934 7.962850123647786 3.8872228445236865 -1.6147435452291352 0.9350595690274026
Ni 5.63950784648585 5.578266635462554 7.2486859597194755 0.37165861839083086 0.7377461704517875 1.2939279776321007
P 6.51578973679946 4.1758995992481065 9.29792711287992 -1.4711201799778084 1.0518521872391307 -1.3939050669483866
Ni 0.4333031776142908 0.29981518295080867 3.7002703705063325 -0.5918869738914064 2.8068491528060946 1.509219043732059
P 4.42054843162862 2.088289047492068 12.319034404974946 -2.652984312332418 2.029459399820756 -0.8424168085890007
Ni 2.787028122057157 3.1893760935228537 10.868900339497783 -0.11571584020778136 -0.27764237464367025 -0.3042977724476695
P 3.744729500694348 5.023219945541593 3.8511455154902396 -0.004009378269709224 0.5233555046789117 -0.6917157105552861
P 1.5527142557489506 5.078577762031919 11.1856686213872 -0.011406442064728742 0.026647427384199267 -0.5263192152929258
P 2.806267658681565 1.1351419553022009 3.7237360990646136 -0.513241041952729 0.10985141100720436 1.0594089165404657
Ni 0.28522938351859456 0.10014318229936349 11.495349875896855 0.907251802786515 0.8767369220271095 -1.2957537179869296
Ni 6.637695902193535 5.651823008817899 12.633042231609558 -0.8784099388541582 -0.4742386925476026 0.5163860153396139
Ni 8.863254860992791 4.5453544692095615 12.56805814068353 0.9439131627632906 1.6712749046569604 -0.3373043092806772
Ni 1.4815186757765042 7.678601305884686 5.315141341799112 -0.1883541324997982 0.23895627092738203 0.6119914579507653
Ni 9.325784474798121 7.870606304718994 9.657804969055002 -0.4221530275959568 0.22207029380532076 -0.9597424164860633
Ni 5.830081498150999 6.311330158701043 10.639832743444398 -0.8237043197811621 -0.09332358855551025 0.4311341480486446
Ni 7.707860272693206 3.3930921146502793 5.71547613276585 -1.0390871742639782 -0.38051915410525433 0.39216676564651165
Ni 6.482933813143769 8.367274477954977 3.2856797335132586 -0.7335825259924011 -0.2625435713290188 0.018377988286555447
Ni 4.746997825280348 1.1672171441383514 2.757337892205462 0.30452917173218524 -1.662409998067163 0.44979830011705113
Ni 4.09275134096697 2.0823498861862726 8.596482420386636 -2.814276812728734 0.3518639522624069 -0.797775258620226
Ni 6.95723021601504 1.9725079326465376 9.343689326659598 1.932506184932459 -1.3008522155557596 -1.3175728707445502
Ni 4.512396306470359 0.39758641851270893 10.283397556045005 -1.5425024883755372 -0.12404775711224443 0.585369998708495
Ni 0.22302154843300911 1.74036015184082 1.9502356130266978 -0.26810332480498344 0.3893385521690972 -0.9315631258383699
Ni 8.0128766366561 6.667419592108924 0.47588761478919395 1.0443731052532659 -0.02752571622409453 0.7476976252375446
Ni 8.787198277322487 5.539592378508853 5.36260351270372 -0.33631854832864017 -0.08523772622358224 -1.560401480143145
Ni 4.531626548632629 0.7466343674052994 0.35088825239579474 -2.0476388989432603 0.0949932629484493 0.8528989390672472
Ni 3.223217230165109 3.7875583822234646 13.637529144307752 -2.279631851178932 -0.8303637340792086 -0.9046552457039323
Ni 2.824243148455287 5.258323365307003 1.800789026873308 0.854462169789309 0.15664728831482055 1.760950354936922
Ni 2.143498152588195 6.75413692385082 9.61708964821593 0.01708009541073833 -0.4523838014560403 -0.38554488945461984
Ni 8.084025744317861 4.825136368469429 7.537336634750846 0.09025677670472844 -1.321545482239053 0.33024148889662475
Ni 6.542883093929967 0.24042821712392268 1.1939294283212247 1.6758697231164945 -0.4733300646904042 0.14188144285955567
Ni 5.218078344252081 2.7690619267455725 10.325077642053941 -1.0956964381175902 1.0842313749007844 2.3331709607476525
Ni 0.8387099565694041 3.4133540421098005 6.417043512159347 -0.8745214024330293 0.8643524323198276 0.44478824849696946
Ni 3.0324205114086626 8.77526418793807 8.175498122889248 -0.6050317388034806 -0.26374273384344255 0.8690377536106388
Ni 0.6166001948720733 8.632250299029973 0.260579540484009 0.858474890493128 0.0613578342821911 -0.014613121927484509
P 5.885615909421935 7.349084739727618 0.6114733695570862 0.050219558277184474 0.1489414350301306 0.40305435909329296
Ni 3.556014741456678 3.6094764876709746 6.654422216255991 0.0238310409813267 -0.3367985732888522 0.181939487222706
P 0.1771570955698193 3.693721492484324 4.482219976248878 -0.1750255337116921 0.022595111691696573 -3.278592332625353
Ni 2.099358751897706 8.442726921586349 3.2478893799088246 2.141399575036189 -1.7132057405627914 0.03528222024106181
P 4.813053567690815 7.872911331329068 6.74021846680007 0.1067005240830485 -1.548296983570127 0.8000558271242866
P 0.8189015988621876 3.1741331756175253 0.03144316541080762 0.3045433127995723 -0.8021029394613025 0.8416822444158213
P 7.862436472500224 1.4290793203973209 11.254583340351129 1.0017835527175134 -0.4369330141186088 -1.3000816559383221
Ni 3.1943858086149097 6.121667364325359 7.328034641878845 -0.021299532808724604 2.6618921563450093 0.08876013755454391
