# total energy = -340870.9722496374 ev
CRYSTAL
PRIMVEC
9.23011336337113 0.00000000000000 0.00000000000000
0.00000000000000 9.23011336337113 0.00000000000000
0.00000000000000 0.00000000000000 13.50920390144956
PRIMCOORD
 96 1
Ni 4.901153151845576 7.754624165914902 2.1296446193638197 0.5834298442629887 1.255838626959547 -1.1836189102621872
Ni 8.964608926305917 6.609896305356554 1.8383597861800332 1.942989086741654 0.08971581659959388 0.49828210665005146
Ni 4.291790313082773 7.53687656705316 7.341441843673102 1.140516165535442 -0.8997356969151279 0.2983281851277959
Ni 4.576511612819457 5.160454720020849 6.212747612633755 -0.034097198794025146 0.6144306635198773 0.738858943899992
Ni 1.3463227614417044 8.318491777057446 11.964426153093338 -1.3948941703345332 -0.9509083631342011 0.6633366451919608
Ni 0.08549576889392767 4.97473561372196 6.119290871164767 0.2221361140462497 0.14481661422847963 -1.8575513286921235
Ni 7.236547146012793 8.609314181573394 10.413812374722857 -2.3786504332366905 -0.8831883340794081 -0.01228344535304336
Ni 8.30140683765288 6.785222304270495 8.97708157817917 0.29829373234543466 -0.17088528629107344 -0.042645345474352364
Ni 2.255571975814611 6.13413012404468 11.963858501135812 -0.12940876431384163 -1.301446654606649 0.5678250478461964
Ni 5.74546852034538 8.204426038990666 12.721941537713876 0.5252195544708438 1.4134459651947915 -0.38870040436446607
Ni 1.4246956520328213 5.049554910757832 0.666518468300828 0.5224990702158872 0.7907785155874187 -0.9214666608343162
Ni 1.0223365604478523 6.177345513721703 3.9921725337647667 0.3755083311542243 -0.0980068529637925 0.10807117917833002
Ni 7.9024167373605465 2.2285000540028403 7.07595886873433 -0.01208675596120499 -0.04244968452377851 -0.7417424360953742
Ni 4.937593638484809 5.568001135185162 1.244559841166575 1.6122403191913075 1.4867401459032525 0.16199595422124358
Ni 5.725642237341056 3.553990450108995 12.572799523728552 -1.719234977476007 -0.05965936353384564 1.1040558658258792
Ni 1.9608083129919374 8.216619018436063 7.657110789725057 -0.9869161486873778 -0.7548211236562034 1.6772100391944726
Ni 2.39705114987899 4.626095780556529 5.355615309040932 0.0745139120481749 0.3589733096136785 -0.3285052229318084
Ni 2.1049919102035544 1.0806247248669907 12.70259614360365 -0.8060220720100505 1.3045358350549339 1.0524682235565743
Ni 3.7461706355992375 3.8945539342852338 1.8774825436949911 -0.6119312941367913 -0.6543051311173118 0.6238830671820287
Ni 6.070820778082547 5.639543742059706 8.399103893094022 -1.0328820738945308 -0.5500900924602784 -0.5157347549088601
Ni 4.786385925180877 8.556102579376033 9.487864962685554 0.4811325914539585 -0.6708679205719994 0.6977531749986177
Ni 3.4178185910946564 2.737946918127927 11.495967452346884 1.270612957055244 -1.1854207393576166 0.5884545511710898
Ni 1.520587297345637 3.5485723737013886 12.230949361781919 -1.8759956514402398 -0.12091615346179822 0.6464398694366221
Ni 3.251796546216265 8.035459588023643 3.90488889195746 -1.5226700270306421 2.3645399619772376 -1.4657193206772112
P 1.484589856136668 7.366553289455954 0.4410120363415846 0.19682154654086104 -0.7139953478890929 0.21774878361183145
P 6.469210921021399 7.762312850152612 8.049648117927855 1.070866523558104 -0.4481090853400863 -0.6667238164966388
P 6.770103378962728 3.0163825108227376 10.464688758298198 -0.5845493025794126 0.038313036647585626 -1.0879443049759974
P 5.664963473621116 6.529095895012115 10.357397923269211 -0.8408250386218487 0.6629545792621938 1.292621600115851
P 3.318077988606421 0.6056966378273658 8.367992873776343 1.955336038342781 -0.2354963374032396 -0.5942670440878088
P 8.764970809406227 2.2342504144831445 4.5677863868771915 -1.5977428969060805 1.1979782643076529 -0.5760713470153885
P 3.2812221468763143 6.912800927960334 5.592715686103403 -1.3990560150217066 -1.1071334763099383 1.0629228432309952
P 0.06529105125125245 2.143269189355758 0.17434299186554164 -0.513711039610612 0.15676530194992355 -0.2411910737951717
Ni 8.128425287474089 0.16721457549485272 5.451071293013987 -2.4775633429545203 -0.472118046660174 -0.6358227560424081
Ni 8.955231131365325 1.0626536946018976 11.78305166104498 0.46425509897232947 0.595994825412193 -0.29087532839417646
Ni 4.774165255396089 4.117811910685886 10.401600012039886 1.8624184269764377 3.161659075070703 -0.6665572090117875
Ni 1.337904898266684 1.3852646087393046 8.411721457743424 -0.7425453916126438 -0.4351928914990505 0.5296521363209007
Ni 3.8798319038420788 1.800222804747413 0.819900796258306 0.9442432924091997 -0.8626580753365402 -0.8642580728338083
Ni 6.993416736042163 4.308847562147946 4.908244647763742 -1.0956023357418874 -0.6409225391628188 1.011016127059375
Ni 7.913419032212108 1.4258955667397872 9.476774058747939 -0.04259675162460406 0.8186158495146612 -0.5643797696100732
Ni 1.3345266768609192 3.3217608037454918 7.173859909675656 -0.07986951993313342 0.15985962460453113 0.0613380367878492
Ni 5.389149233055369 3.011084425885828 6.607148500677603 -0.05828459467350607 -1.4748837607852987 0.3922438987413503
Ni 5.151750723338783 5.8713672634454666 12.524814934596996 -0.026148119150277545 0.6115248027269921 -1.7030707090113186
Ni 1.3354681484002309 5.481496514926071 8.002568079883089 -0.09561007059684179 1.249222664304926 1.0488730500061485
Ni 6.009477446217211 2.6276009156527413 1.6544857794959322 0.41974750347825773 1.4264398063512982 -0.7383341817447735
Ni 7.5009068161835835 5.144920439622209 10.521332116557481 -2.549673016436577 0.14441835034879644 -0.2804495050751622
Ni 0.43380793304322546 9.217218662461576 1.083466676699873 0.8658976653197604 0.2068264802723728 -0.3132200146379638
Ni 8.819539238233773 5.611216524862186 12.420794328650144 1.1790341191049825 3.5662198435061936 2.3720195581837342
Ni 3.4493948081141137 6.1506889470008055 9.250170166337478 0.5166528958477554 0.6830384944962624 0.7096026181380359
Ni 6.325830343652136 6.580498395035896 5.5922431043111205 0.8721603584000206 -0.2130158969125364 1.055476157144963
Ni 6.404932413180563 1.7084939404564554 3.7622051881295504 0.8792599455592793 0.011169129242942053 1.058685922331512
Ni 8.479132665980751 7.1656321868311235 6.576455605484735 0.2609669708705183 0.6568757200579655 -0.00043605909615408776
Ni 2.716957640869159 6.679057543043428 2.153880127410586 -0.3928473366533041 -1.2239579762008663 -1.0679557776692123
Ni 7.540808595246756 0.3819236211140314 0.12450314999475438 0.1200355506290578 1.02759768556714 1.1989619683771608
Ni 6.890224071243119 6.728881693721894 3.1213288971165785 0.12847751074882388 -2.0193115127534775 1.3966864863482658
Ni 7.553047725257805 9.044606316808006 2.622096076181708 1.4224450833696083 -0.6644818145399976 0.8016936198380258
Ni 6.308422350288003 1.4630467720900695 11.918089139155578 -0.2466220150027559 -1.2706039581941795 -0.6916326639231766
P 5.9308184221190485 0.518514527264495 1.5942482151836312 -1.9289542059151426 -0.42635446727181414 -0.5078157571720997
P 3.4489148422313276 4.633895226151806 13.154181274536228 0.1724369470489095 -1.1308405901188912 -0.3042800318358566
P 7.6001120721102495 4.679048939586236 7.159243102522188 -1.489018400414468 -0.5956266434394968 -0.5407739572656751
P 0.9705556257857199 2.501092985086041 10.21239007695504 -0.9834001651143193 -0.06386543119539323 0.9989131731482537
P 5.632750378795654 0.7375229595798629 5.657735372028618 0.5165613645752136 0.4348985001870833 0.5515929022580499
P 2.7956535854198434 0.6322747485866548 2.3379701187419415 -0.676449528424835 -0.4341503091671491 0.4663371783123388
P 4.119307189013028 4.247439619490697 8.095147037593367 0.292743749061483 -0.35574117582962606 0.9552080189508194
P 9.117874954837953 -0.13076208970854974 7.526315471609237 -0.3313285513132165 0.07331089287900923 -0.05603616495896155
Ni 3.9019564850158988 7.673085346520021 11.521121356650136 -0.3261398080234254 0.030228459867238267 -0.7960503055093194
Ni 3.3786829114213153 0.10999433516491373 6.173719925284042 0.6323625654079497 1.2497278860761185 -0.504139336761777
Ni 7.0588397779111824 7.2465341284199996 0.9211089867342921 -0.8739575595097594 -0.3914872230809839 -2.2151125884496237
Ni 0.7396200412831135 1.3235797626881405 5.930972565008328 2.6084764597280303 -0.15757648499730925 1.766587241507725
Ni 1.3116359962972672 8.223384691360723 5.372907002979619 -0.2898430304749202 -1.4376719276216918 0.34166078647716
Ni 0.16619834003918413 8.836965691824165 9.865879630888816 1.6486954766945476 -0.17803243885881598 -1.3238409631414492
Ni 2.0006639414894574 2.331775789820059 4.196093423157011 -1.4586912101858363 1.2349278449488086 -2.3149032727867165
Ni 4.69866292998856 2.1901397038324615 9.284659407060923 -0.3661112062100405 -0.9385634684156029 -0.7531139111571095
Ni 0.5097893013222287 5.005721103501065 10.620490298907184 2.148488106451855 0.0006926551916504201 -3.0869988672526514
Ni 2.4967179114621816 3.878973503320942 9.532256268775406 -0.30153100833580976 -0.19892728002995416 -0.5271738499837372
Ni 2.8049759996816537 0.24811559407241504 10.441614398483251 -1.0288289868710798 1.1381949736014334 -0.3553269711103429
Ni 3.4925732773386153 8.5878633986581 0.3564974284734296 -0.67678325761517 -0.2942069638705707 0.43659311428068676
Ni 8.421822893553449 4.280704947213037 0.9888626321687632 0.8455437842537568 -1.6835874034757263 1.742929235769153
Ni 5.454046158475949 8.205192138380498 4.301235487849218 1.1234347845731234 2.3522475177631295 1.0379666875062898
Ni 4.355284261307516 3.54055140539098 4.327213641255025 0.7547990121690161 0.47429114305209286 -0.29574834021576163
Ni 4.014610015773711 1.3024889541849367 4.170331254398459 0.6349976890379516 -1.576365459671569 -0.5468474171532646
Ni 8.71162075551191 2.0321478573776095 2.4622009803993454 -0.8368092325942362 0.37090888470899985 -1.0073528192751748
Ni 8.579307083786121 3.7542746749278204 8.808311728621826 0.5986718580237238 0.05233609039955503 0.7753452117514841
Ni 1.7169118036314759 2.534238321337684 1.5405492630129798 -0.4065009228809967 -1.0097693991364673 -0.37105055249318675
Ni 0.6703951158156399 0.1970583002797142 3.4714732387222815 0.6550525508062975 0.3173150106429438 -0.17512889205877583
Ni 8.044412797760232 3.5092428616523073 12.16321417657371 1.4012725630570513 -2.510803593064889 0.21071141714907582
Ni 8.654006389351299 4.471703678222574 3.4214626397585794 1.2068912505265665 -0.4444342075916604 -0.7099918831566546
Ni 5.9709417238973534 0.5619994362449297 7.970160229670574 0.3982140002818561 1.6706128455929294 -1.588302063208155
Ni 4.476466416597915 5.982728578365007 3.9553323832269824 0.26650821240372163 -0.6395768237682018 -1.060638932292825
P 6.017655326450838 4.5101378692979965 2.853508857533161 0.13927665824685692 -0.4192471668030715 0.8925160392382371
P 2.9202416524553985 2.403466078504691 6.077493226864589 0.9027719126382905 0.1300862499968405 -0.10613925226293977
P 8.181849182273451 8.13485867632605 12.244782532330607 0.30183388428820923 -0.9606883253391003 0.10419087028731734
P 1.7852238709103425 4.341522162629933 2.5998459654693127 -1.0762285592009657 1.4458254099667616 3.259527345574102
P 1.613294553628428 7.195233159640653 10.061897697418724 0.13212770590690148 -1.3344570480943987 -0.7426757465429209
P 7.021725493013422 5.082746397575129 13.297217568685722 -1.958946895622491 1.7422604918369025 0.30682902350995545
P 8.609092658858263 7.662249193704809 4.1326954681088255 0.38554823188872955 -0.6590945820861552 0.4063209456597067
P 4.222361402115115 0.7734207155670224 12.118309676193803 0.2831386218715511 -0.9515030592954065 0.4408657735141117
