# total energy = -340865.89334919455 ev
CRYSTAL
PRIMVEC
9.27232425287020 0.00000000000000 0.00000000000000

0.00000000000000 9.27232425287020 0.00000000000000

0.00000000000000 0.00000000000000 13.57098380497389

PRIMCOORD
 96 1
Ni 1.2093428588586475 8.090455046063305 12.166536227234516 1.0163743060474948 0.6041758185610885 1.8803354164661743
Ni 5.557858827896874 8.801799927052828 12.344654789747969 -1.9288981558662264 -1.4388610628337863 0.15284256985674968
Ni 6.95310251080963 4.483669363791714 6.686260788784773 -0.32933208970847794 -0.9158583135086034 -0.482163346711318
Ni 5.941788675808709 5.139167037275733 8.770248062915401 0.013553827425034722 -0.17548987494262036 -0.3355029944058802
Ni 3.3610783683601824 3.067535134886944 1.0165369351151239 1.10764409739777 0.8114324443923445 2.339470163492803
Ni 0.9004511474535043 7.606022478219179 5.033477379292875 0.13414833588135605 0.7969285943492147 -0.5657064588412967
Ni 5.750871524465795 7.513799943626823 10.193749153245227 0.3245138423842282 -0.31060391717135544 0.7086659652563795
Ni 4.096253122052539 2.2485663891263066 3.2645275129204787 -0.20689410028551464 0.7203855676861529 0.7170793861310554
Ni 2.705042900083648 6.18780197641241 5.58618299604681 0.2440804795278248 -0.725048520379461 1.9496083918303841
Ni 8.66309523220394 8.730644112608656 3.1075517036120837 1.4640578738143883 0.23059092968182224 -1.6895505630376968
Ni 5.841137598692278 3.5453287187407088 12.197898935962165 -1.7110838091237823 0.06930845658783547 1.8498542171581822
Ni 6.274572384487543 -0.20612468994988395 5.413764131101619 0.9836140808973381 3.671546370059851 0.5258818706451912
Ni 2.2660539922070613 8.552810210442278 7.128403214056781 1.8508353501245285 -1.9484038299993218 1.5483373498897592
Ni 7.0302575188875505 7.6244929476448755 3.969987249861566 -2.534042251877855 -2.2785651004773144 0.17320493556318556
Ni 5.943290792298148 0.7070740485510336 3.2306000793719734 0.9903226032657653 -0.38398782938014514 -0.9660853279849555
Ni 4.62765001100166 7.326016837798911 8.020532450712313 -0.9536129065495577 -1.183400366493478 -0.8657894218766701
Ni 5.235126318443671 1.577639568491505 10.688601958810537 -0.03582086635335121 0.2194511110149188 -0.17576781119435536
Ni 6.778347020214199 7.333508875598089 6.7449416185073945 0.6559025575114188 -1.9978677410574046 1.236286158748916
Ni 3.349079981092687 4.069465377990874 4.630229571540931 -1.0008677257714633 0.29379353048223594 -0.8018689690736254
Ni 0.9395367748481515 4.881767322789123 7.9031846997530835 0.7808126626239585 0.38885904142951744 0.7492569993048646
Ni 1.3806397725987636 5.617832219586334 3.791977173539018 -1.6419226767470885 -1.237525944693288 -0.9923884846558588
Ni 1.032955439237654 7.068969471624639 1.3912296938493096 0.08284505762168959 0.6417699747647786 0.21151462977666152
Ni -0.04302821956322448 0.37967477842415887 8.147312936885777 1.119017115121402 -0.7452643332057035 1.0676284762367807
Ni 6.985805997588962 4.9794605285467215 11.146269036170619 1.6647692423279585 3.6371031007803167 -1.7123464778862894
P 1.9779443406030293 9.057187547229512 0.894781121322072 -1.2351533306960534 0.30775076399327644 -0.16404538055110457
P 7.794241383275508 0.9881608419507373 10.159061389127993 -0.9178285498610969 0.36516169781257757 -1.83459009191026
P 4.5344631547123795 3.4130033828099307 9.62196294814581 -0.23279950729736681 0.9564079527961915 0.5094993155221096
P 8.609649556616734 6.5291254955034255 3.0824181421536037 1.8715468716402672 -0.4516230120306157 0.6260013990766122
P 1.8266849190461105 1.2890013944189667 8.361150345946252 1.0302598057803352 0.08978369372305182 1.109495805894528
P 2.9457617036782753 0.20708344825240252 5.170436095530891 -0.3259492892791741 -0.02583855832965873 -2.109352573902974
P 4.987722169238638 1.7634847586015596 12.841054218957959 -1.2766164829368465 -1.1420814531400332 1.62630631036607
P 5.087399652334136 5.6057040197827135 6.5756299093375805 0.4438325694519195 0.06081867394926946 -1.1361599454492755
Ni 0.35693254932756996 2.7503938368110976 9.510762748004472 2.2949484269313443 -3.235841571921388 0.7002777411926843
Ni 3.584624827890358 4.82641154845609 7.822097299062996 -0.8257997688576101 -0.25726689631111177 0.9198453231808094
Ni 6.6017277924929845 8.494153488762079 1.1054186513670796 -1.5622503604264257 2.303199868306859 0.41302226893928223
Ni 7.0917701163624836 1.0218657397230293 12.174759851397996 1.6314595724322354 -0.16921998277350855 1.2456228627688095
Ni 7.066224863718009 0.25122063776708947 8.068818077988574 -2.536094249310877 -0.13980501994650116 0.16686073851271263
Ni 1.2283140337808234 0.8858620728579268 6.19554714865703 -2.4750210361486404 1.1728303042871155 -1.3995429819604541
Ni 3.16673972945799 0.3588917913906471 12.60441709239204 0.22583593149534012 -0.42942847821144753 -0.36012979181562493
Ni 5.244315191536474 5.7111303437637195 4.3054627142001785 -0.6313724335805384 0.15082965319177896 0.8645887167003496
Ni 0.42996137322153744 0.3855033612961431 10.72347887833755 -0.06079296291765659 1.6908502556857266 0.816862100048348
Ni 0.2536277330797957 6.888836033104057 10.426138628182676 -2.721853624500306 -1.1903374599329435 -2.0726999556769465
Ni 8.632097853042241 2.4771940822133502 7.098818937074037 0.5713230336971257 0.7259841448198529 -0.6379526579012175
Ni 1.0553666463671258 2.4741713045864544 4.552264162344634 1.7978685681195101 1.5347015042738794 -1.7171593258939006
Ni 8.477259314417894 1.2594504978026546 4.47865489096771 -1.740101793622687 -0.8396523584699861 1.3263007375358513
Ni 3.739583906726821 0.27265083301642135 2.1401849754836686 0.16474343505939368 0.4550052982392873 -0.7665088444067767
Ni 4.128520809603454 1.8820314210551368 8.150081652834832 1.8920989847600056 -1.3418127171285215 1.22049829978704
Ni 7.799721326764758 2.918343441584007 11.292632670650846 2.9129336405716995 0.28768330381944 -0.7657166875227845
Ni 5.955595166257938 2.734825604800182 1.1434750507967406 -0.12687108549365247 -0.06086752490933388 0.38522247311819463
Ni 4.248541771574443 9.109483454639616 9.445336302565389 -0.5901288535497192 0.22623008160996522 0.03142427994755233
Ni 8.240388525286953 4.090624821379146 8.830625727931647 -1.6951833358434416 4.793884579134685 -0.012256962990482114
Ni 2.5766490295326365 2.7275190134811815 6.947624421785181 -1.8981333638795437 1.6878137828522481 -1.6802753083833577
Ni 6.314730819770018 2.834280552119468 4.254829334484867 0.02598845364396169 0.2763660790344079 -0.004244891319283012
Ni 8.963305266639564 4.958820335302947 1.6014434786871112 0.9123688122981062 -0.9589433176235355 0.4509594103046879
Ni 2.23076352702925 3.955851591910023 10.269027442943752 1.2882892912890844 1.0882122139254033 -0.22651161740612602
Ni 8.96848849576053 9.255967629331959 0.0751521860920018 0.08772115476706828 0.4621735338529524 0.8404092912406689
P 7.78342985348115 8.017240775689158 12.213695267143697 -0.26742815311482976 -0.27242483499847275 0.6975968519264115
P 7.402402242984094 6.649508078110761 9.25336117905306 2.116693073428445 -0.3513373903349756 -0.8065684314318238
P 2.220499064351416 6.692522389187973 8.125897577354861 0.29583138684787114 -1.0178732591905244 0.45151785391131916
P 6.681673770097579 1.9584353708883382 6.466166415483106 -0.7459405333371217 0.5269241958667764 -1.0080539591072577
P 4.959979375804058 7.941866053820943 2.8687837969889247 0.2961005813488578 -0.37185530778266923 0.41238463535528336
P 8.57787330223829 8.504380862143877 5.965600931095924 -1.580592096158407 1.1745537147361256 0.6670284922212513
P 3.696949760933974 7.76291020044949 11.225238638057078 0.13972865818261096 0.0339825275930318 0.5249164214081282
P 4.911550027505658 9.216448984406096 7.0260506654847195 -0.5613646369328332 0.24570567383607358 1.337605363915393
Ni 8.36807769921329 3.9087945475649386 4.590005302757993 0.3878133737738224 0.10527536160074771 0.7631633249733114
Ni 5.283101322865635 6.244780407447 1.5328421895073856 1.1869983682573815 0.5023254234814897 -0.4262817050523497
Ni 8.727064995541227 5.744037821671248 5.919459065130516 0.9085489243313837 0.5860410566335907 -0.3816239571336589
Ni 3.526209186634391 7.591984179669729 0.6023375854762877 0.15395688596685095 -0.5734773610359671 -0.6738347165098072
Ni 9.077762834205224 6.134764283081596 12.575483732554721 -0.15470404854552064 -0.9009484862763064 0.3610268497085976
Ni 8.305563690745396 2.6353521128328783 13.83317527049289 -0.9942178245551136 -0.20715712413891418 -1.1010751859310004
Ni 4.747281535364276 3.077029994672041 6.097374563748173 1.4498646130331416 0.3310012498807848 0.45701821490425815
Ni 6.970775560370561 5.145231137177544 2.8203627937821336 0.0005679566883280541 -1.2312658227161892 0.1841830318412441
Ni 0.9478911387801556 3.9507610860291456 13.585233326495342 1.624021113876319 1.399382288012874 -0.7688536904898694
Ni 2.8236359241572693 2.730764326884291 12.528121628749743 0.5060326971297479 0.4539624587970698 -1.723210417183987
Ni 1.294629695092359 1.8930376696536817 1.2778273167558607 -0.07613190726757212 -0.949632838855887 -0.6671501054007801
Ni 6.751364557348348 2.5346454017723934 9.036591861140979 -1.8877332515921423 -0.6354949403893442 -1.1146439257543708
Ni 4.3324655761788495 7.757578614144382 5.267319827402515 0.7453700055456325 0.3781737938015294 0.36634800481119484
Ni 2.180665160409252 6.0980922416264605 11.567580258324268 1.1479389403620746 -0.8031509211098427 0.18885472628530056
Ni 7.8122204195287335 6.748527226201629 0.9675512473761917 -0.4419345810982582 0.22429558359141372 -0.6027246879368587
Ni 1.9348187616377113 8.221574979872928 9.803121905701776 1.8736857723601408 0.11699907779557914 -1.2645680364127445
Ni 4.437660092059634 5.459099304878255 10.56154979354361 -0.6486646450020829 -0.3951052794495453 0.44481498796984686
Ni 5.552963040820184 6.4502829244558875 12.615695020084047 0.27985146647984704 -0.5812994281835472 0.3997147531970987
Ni 8.471185942192076 2.7940664828929394 2.5732349598325652 -0.4463077704652894 0.6112712919552892 1.084984451016725
Ni 1.5246204198087083 0.3694038251195184 3.1481292479397602 0.28559273983899847 0.3604748338598695 0.7637868174899233
Ni 2.6943055488813608 7.6318273559359024 3.48327832647326 1.2377853690022618 -0.12568195028155776 -0.5735388104015219
Ni 3.164709090500045 5.567390776978007 2.090528898718894 -1.24704339726542 -0.30645415666903997 0.7931830112638533
Ni 9.356794880604559 7.261889444953471 7.64848415878546 -0.45662869277532325 -0.1388871361179221 1.105490798500193
Ni 2.760231772584523 1.6894730683626507 10.391450864065442 -0.45220536689664703 -1.1322539255266502 -0.9717628379857071
P 0.27449880719139186 4.53586327563772 11.000638842519495 -0.8266688017261247 0.6658010475720534 -0.40370613374467895
P 7.338302667110682 4.844019691748959 13.604232318389544 -1.0564693742961675 -0.7718608527473093 -0.7913696122041983
P 4.82681953071248 4.331287991029721 2.62601210085873 0.21896928628249382 -2.1621044116837087 0.23079070439745414
P 0.9683273408957351 3.925160199440618 6.076909617428166 -0.7672426372490078 0.8746391589578163 -1.28987154817454
P 1.1941084305120515 3.6631335952735755 2.508895230767323 1.5187033290734104 0.17972885272463243 0.7643015523428127
P 2.2786272635631075 5.722655842506763 13.734106979084777 -0.09272837817367256 -0.0670109188029104 -0.8217081152867397
P 7.812665491081159 1.0052775520711363 1.825351558853633 -1.1520601616192998 -0.9648959356625448 -0.8762916069595746
P 0.7919788650355791 2.1748143239596462 12.42941959413998 -0.9072734000530697 -1.9478016776389488 -0.6207190676317503
