# total energy = -340862.5740073099 ev
CRYSTAL
PRIMVEC
9.37605403581456 0.00000000000000 0.00000000000000

0.00000000000000 9.37605403581456 0.00000000000000

0.00000000000000 0.00000000000000 13.72280282748161

PRIMCOORD
 96 1
Ni 7.43374804217145 5.933888835237879 7.750707417931642 0.7977446624926067 -0.2916420313568719 -1.2732272547496395
Ni 4.226996983144367 7.18342615636555 12.865305416103729 0.7966239186246022 -2.242872275061395 1.0058692927511128
Ni 0.6249102389770375 5.27600864048708 6.578272200465208 -1.5110956919294816 -0.9754662549792232 -1.2695042973720976
Ni 3.4649019498014426 1.232247877820079 4.518040946050882 -0.6372394338842768 1.0246519726752545 0.5938127301592095
Ni 7.536547096631555 2.3081125534019153 11.812368942617546 0.2017593501621106 0.24373183793915446 -0.13631603295663622
Ni 8.31426263569598 6.099769980030672 3.0019321001821764 -1.985278591538484 1.1769109021143922 1.5030242277752566
Ni 7.467229930485663 3.799270782358564 2.574137454203236 -0.6330007132125808 -0.8021793012251927 4.2841590065343835
Ni 1.6054710775500092 4.744433267209475 10.989179542359075 -0.6367334407821357 0.2892853581992373 0.5446434675234104
Ni 6.921656108803375 5.231650529701715 5.406852409631208 1.015832831721728 0.898742222653607 -2.6477248637056916
Ni 2.7605540321480286 5.182098085080987 13.391574880505106 -0.3081336012539919 1.0572885277633535 -1.074515433164601
Ni 8.731037605579795 4.900460179401249 1.2943370440495816 1.9435007362707497 0.22986356459749444 -3.8377406786331583
Ni 8.275998959916002 7.067528754670788 5.945760794628374 0.5484697832480361 0.3077543635377022 -1.2324063640785357
Ni 3.8270520299292765 4.628367096545333 2.3970716147674787 0.4978997836099683 0.3762500944162553 0.8734561943933087
Ni 2.394053463031733 6.635039518526929 6.707431092731692 2.533214356659921 1.4280089506106308 -1.1387264206248713
Ni 0.5809159190812233 4.425994350151051 3.3701972426338775 -0.8594035729549845 0.07043948486848514 0.46402755634255566
Ni 3.2953453918977083 5.965804922558401 4.422722107355851 -1.439564002438082 -0.5686429157618014 -0.6267351919188432
Ni 1.2485903396883722 8.990341750978251 4.7908091047843175 0.8286719481990826 -0.13716192589669926 -0.5225072977460035
Ni 0.4516407637469438 8.06613474649202 10.194848698259193 -0.9227334433618819 -0.06625707135602137 -1.0665408995995567
Ni 8.13994304243419 0.6889261842736277 13.479250360097994 -1.2694821858849104 -0.27300744697482016 1.1184062210102803
Ni 5.186964257031442 1.7995553923369647 13.242600636022642 1.6368756012414842 -0.6001098760218311 -0.14531849356556265
Ni 8.10961150821507 2.215664662397114 4.65336084330512 -2.342820568022275 -0.7489332974168585 -1.20934562560433
Ni 2.0252557607211 1.251262515036888 8.891113097825917 0.2339858142959841 -3.7483277379859636 3.6427140192091914
Ni 0.3801314762098832 7.167627505620814 7.84447545731915 0.041107825783903394 -0.19363157884865362 1.2955598568085687
Ni 3.7935420134534996 4.939670836620526 10.077573016647829 0.23812811859913183 0.428117729819824 1.4007249180836974
P 3.807334188673384 0.13757015017930463 10.209106863355641 -2.198393218812414 1.5468725924187745 -0.21223530999277
P 3.6333146291349356 8.863633759189318 6.179405493443378 -0.8873396372436202 0.10157400148976055 0.4066191936264159
P 4.239889057194225 5.826748667843166 8.084418989113567 -0.3612867882382036 0.036374681974292195 -0.7269171981570836
P 0.11789075074421569 5.905638784974444 9.590550776075762 0.09585766783127361 -0.1615717221996314 0.8718230296652597
P 5.323113935051799 6.447059014799215 11.16019313903179 1.3041905359003731 -1.5403677014207213 -0.24036677812166343
P 6.87324754275289 2.7688330877015006 9.075383497043429 0.07174946192916029 -0.16076799535141342 0.7029869125937313
P 0.38281396521763916 2.175403887146139 13.137456630493542 -0.5558542486375653 0.21820206909916615 -0.2818558985043855
P 6.3820735855340756 0.8685863778109092 5.292953982618214 -0.49711122627040194 0.5798390415879369 -0.8590248494593271
Ni 2.0119605163555008 5.238926347492762 8.54923779655293 -0.2858071698426497 -1.0965649567654727 0.417396743857894
Ni 2.6724660061855428 3.9968992455024988 6.163006775251958 -2.1502174304381354 0.8497992170960009 2.202656107853826
Ni 6.7267935815465005 3.424172371857745 0.6728181237516958 -1.0187194092409035 0.5960814715887283 -3.1863347234405124
Ni 4.092000559748107 -0.0771030412666208 12.287630798839984 1.46398536870524 0.7554219904649958 -0.9991492004184599
Ni 7.494214213478749 6.777714930029977 9.782245134735218 -0.2890570442385151 0.44805972015938966 2.0117565832243547
Ni 8.341753225597206 -0.10351819779074109 5.215858442194676 0.38672168337154045 0.4789777498944848 0.7324219300253967
Ni 9.042106944308628 2.0604065866214043 8.866152167254622 0.26274591714781204 -0.10864299252139999 0.501914046975684
Ni 5.932173017382516 8.660951603017839 0.20826559624179955 -0.024870280879118457 1.7898372131746014 -0.4807764936661204
Ni 0.4168396646554103 2.2218903621564636 6.617450979101379 0.01687517848878384 -0.3315751201063838 0.8271663101878336
Ni 0.4499558868693005 8.93941102644092 12.365548619186557 0.2451683132753649 0.8078676098592215 0.024791090901750853
Ni 2.8954473189518897 7.608723959203052 9.058380960983783 -0.1535154275540582 -0.46440602272789694 -0.5513378488244505
Ni 5.224009045810344 7.030549598268868 6.418799588481925 -0.6112183272301668 0.6389129649319577 0.059996949378922484
Ni 3.6843297381569555 3.276218242034646 0.4474974855486657 -0.2121944294525055 -1.0956889819184226 0.07340730924755744
Ni 1.560756676718174 9.101879287630696 7.0787978337984425 0.17376954981740395 -0.04948036611831478 0.6035885785990508
Ni 2.568260543647271 1.5731330678060376 12.775805356430762 -1.157879082293922 0.29207449090860016 -0.3267280764267277
Ni 2.1172536011408876 2.4114460429317237 2.227745707788563 0.26850261712593115 0.5690344947732651 0.4465875064892374
Ni 4.129007844311591 0.12721711151322945 8.073234294470604 1.2573820601872667 0.5021498171355738 0.37072016573696154
Ni 7.475087063615686 0.2501503040203642 9.91073176394034 0.2788662197484423 0.09453509236510815 -0.1363193753907459
Ni 1.64118446668158 5.877632512111225 2.06963168600879 -0.04129165965993534 1.0581069098995906 -0.6679376342990819
Ni 2.9519567955326136 1.7791906033651164 6.894253653808382 -0.5018333143364196 -1.3228377186879154 -2.157284364587246
Ni 6.687939214373692 6.364455980341578 13.218476049455163 -0.7963187286793576 -1.0658153342874417 0.5561563532590165
Ni 4.727650130810022 4.796826656148097 5.8225031906578755 0.20842313533553136 -0.4111227379237242 0.05741196226056564
Ni 9.182072676247742 8.28376233250748 2.941647824319654 1.834902480944356 -1.5058694105335357 0.24348398359440646
Ni 8.596078686398952 6.768620157791168 12.102029937580529 1.4072151537937314 0.39077914127036567 -0.6862821982445407
P 3.301767988788001 3.467395980126724 4.344570823268303 0.8688276944823617 -0.7967509311207698 -2.621450246279879
P 6.705097392927321 0.04612174651538711 11.907618398514055 -0.5895115316806944 0.8886071911021342 0.15685169101614277
P 8.735978785961088 3.8955909836052496 5.600893594570433 -0.31616007110289424 0.9253369424229999 0.3906210184259466
P 1.4059205233659138 4.004728250470958 0.8253843344657955 -0.7406196353448407 -0.33865465266098455 0.6691781915744024
P 3.6820044768010542 0.9329257969654777 0.9516807174905186 -0.5625568574687215 0.15697973195357479 0.10302744610683547
P 8.7329503205661 8.951834297798058 7.429181903944336 -0.6636649750656569 1.6317984438288928 -0.020827992488944777
P 1.4712247384621044 6.801483226550988 12.727446483465707 -3.3586174042997445 -2.9119167692714107 1.6408690386715936
P 7.255218600729014 7.573094954556172 1.4277207861828776 2.5732155796432075 -0.2935281926359912 0.6663767175698653
Ni 4.985182202029989 0.5133998928807697 2.8682033192670366 0.7388234626763663 0.29770546394213243 -1.0467634598623135
Ni 3.6857924025582487 8.270410831818754 4.253519964287814 1.6696368548329052 -1.3917718226554676 0.08759774181532656
Ni 6.387746098116012 8.229259331451606 4.385451355679057 -1.3620043615850477 -1.7831973392605807 0.5952947140213747
Ni 5.213160951500753 8.098013329597123 9.819090213567021 1.5448059396977332 -0.9518905245418122 0.163280477360622
Ni 5.587237372131439 2.9042514335212113 3.973807900069778 -0.011135962012161467 -0.2758094351999895 -0.2437002133702706
Ni 2.403542029532429 7.790497515279125 11.35931051952781 2.2403924460623355 1.4608774192038776 -2.4676010895354854
Ni 5.483960138924757 4.265382547624454 11.90020850315289 0.34055289812496187 0.07723928139913795 0.5428017863289814
Ni 5.490954675100171 1.763907635582375 10.67699914124849 -0.8471787487540184 -0.002796846018846796 -0.6043524533482688
Ni 7.443799171903412 0.1980419471189157 2.8754481960803644 -0.983717439244422 1.376792832748132 -0.5948856515084142
Ni 0.5606495786748462 1.887127735337456 11.026587184422144 0.24393186976510248 0.01390941099224056 0.12715930615803261
Ni 7.416983657879707 1.559612798147932 7.25444976431295 -0.7222514172502981 -0.8538175942267746 -0.5673640490493777
Ni 8.4776685022712 4.020348756192458 10.252689574487245 -0.5413288013278806 0.38037748632106744 -0.840953593779913
Ni 6.736994728140133 8.253402670126796 7.997127927728711 0.27085183408439806 0.4138054269622099 -0.8049018423626783
Ni 2.5257870196866476 9.331292573341193 2.7005510379011395 -1.1294475664261066 0.8860772255914288 -1.9140088974592198
Ni 8.760834704729213 4.413374181662971 12.523374796112998 0.24496596745657168 -0.9399878595669554 1.042431665256179
Ni 0.9692964474722449 2.5515336635709462 4.48042609319763 2.787984454691108 -1.1931888133388096 -0.3275999375087197
Ni 0.06968658266775694 7.508334550583539 0.7767985609974609 -0.4848414077641134 -0.43211708078720423 -1.0281124204200294
Ni 6.44595264044439 3.9009072061407184 7.068368849096146 0.8206861017801285 -1.7306840998532127 1.5530460682193383
Ni 5.00593140920987 2.2638950834243654 6.187707989131486 0.9144526914103285 -0.4425691293584636 -0.15154441987061643
Ni 5.994673792376228 4.921762573758541 9.17693178591935 -0.09141711556141677 -0.27998413540296946 1.1526425164853311
Ni 0.7599319777187047 0.7534409356352743 1.108098611128023 0.1471144091237208 -0.4885589658250166 -0.3069796901552068
Ni 4.241126696303012 3.2891290681922127 8.210256883104808 0.17919869125277524 0.8627812311779657 0.5883725329802447
Ni 2.367275453223446 8.399706614471514 -0.051978967358257216 0.6747106913568574 1.6281127674471894 2.980610989314015
Ni 5.272080073922069 6.796720191192931 1.6520466250719514 -0.6276703021386029 -0.5390816571649167 0.5781300293166302
P 3.538757126012885 3.270902019499177 11.641835399902178 -0.38737268669197805 0.1071311838625639 0.09251034862559551
P 0.5344753867347851 6.481403500068037 4.390144070633205 0.6656699213108277 0.7713057515747879 0.7015571221257402
P 6.563368962863572 1.45188193936039 1.450980900584978 -0.6779564519876646 0.7799492861823987 -0.7769068998116491
P 0.15601097290022173 1.0014656882468365 3.192171295283425 1.0938357307597677 0.6027581122779554 0.3540609599137257
P 4.979940987925356 5.04930503434052 0.39148025179530016 0.5006434077933765 -0.45068275960453347 -0.5485006364859715
P 3.2049789848485934 7.3429128324296125 2.286809221439237 0.04729827086533144 -0.5812423496933666 -0.455408447214977
P 1.8114817328398156 3.012994906125033 8.159290529562831 -1.0101067278712281 4.073077093419766 -0.23066343479097046
P 5.407685940818868 6.085396489471812 3.7879463845131682 0.23818416864804784 0.021006169938021887 1.2219820834214181
