# total energy = -340897.5306918572 ev
CRYSTAL
PRIMVEC
9.02126948141504 0.00000000000000 0.00000000000000

0.00000000000000 9.02126948141504 0.00000000000000

0.00000000000000 0.00000000000000 13.20353976994890

PRIMCOORD
 96 1
Ni 6.2522360310347365 2.0293526482794673 11.324887831019447 1.3471896651697186 0.3842184573337125 0.4005727303220198
Ni 4.556986103909249 0.2745028011438304 5.927386426151518 -0.46029302900078795 0.5947486117099177 -0.2947623221534085
Ni 2.6244677639561447 1.6161514349133073 4.70945187573069 0.36494212560260375 -0.40988937973725537 -0.02633735234294819
Ni 3.4783309354756313 4.249225490106954 4.855932035145337 -0.479358273162355 0.5222041646832877 -0.29026186317989366
Ni 5.180382899910423 4.659747386389741 2.7122708792449135 -0.16871733210547715 -0.16104387472061943 -0.30354341078014824
Ni 7.173930128984811 6.134219781591336 2.6759611710669025 0.3587884472963821 0.01852659804927777 -1.151846245836281
Ni 4.961653196195035 4.490382070149837 11.317374917662434 0.16174424322175368 0.15597443061751204 -0.18350400349634846
Ni 5.816111771510827 7.769730861154203 12.310703309323735 -0.4010661250186706 0.31319636048887994 -0.07159930950454121
Ni 1.716061996187246 6.51850782575813 0.3954581802362654 0.8902341851825958 0.14221568627052283 -0.18420411488716662
Ni 2.703746681561144 1.5998139155934783 0.41314889000224236 0.2539918251042658 -1.6166759863651579 1.1874560246200905
Ni 0.5292860089794258 -0.1654293362955403 4.5623907465511655 0.5116657270458091 0.47607214621191557 0.6498496664491195
Ni 8.49728723643022 2.2147848457499695 1.4961063019276477 0.7469355502605395 0.6392001571550734 -0.45150268440266755
Ni 6.765528231067655 0.6997230520526784 4.779470460049217 -0.4922338435734427 0.817520045347321 -0.8310970127008074
Ni 0.7954035399919582 7.4935356698257225 2.543648915623428 0.18147668865367456 -0.647613063809117 -0.044293679711052754
Ni 7.532471469596226 3.8702960801069057 3.8002693766457027 0.03231619563420241 -0.23789851908682902 -0.43021163623437514
Ni 7.524794369131745 3.8677430607985066 12.56038228279646 1.3569814544491599 -0.9729740846849888 0.10608525909655278
Ni 7.941937877331016 8.922071760015408 6.670942925262792 0.6678085649203853 0.5121112992236599 1.2618457523855753
Ni 6.792853656810208 0.7047785715594879 0.36010292238627045 0.13533052911491533 0.1562791063421244 -0.30153255099770654
Ni 2.040836724532445 6.312254537956228 9.389538616653002 -0.2583336470127293 1.021073254185061 -1.3640571303490185
Ni 0.1920168221814593 4.815508628011035 1.2638834852102345 -1.1215884753930039 -0.4873184085496962 0.8270421259051434
Ni 6.474926072122519 2.093259322416224 6.978823521951313 -0.723455207750412 -0.05976529298409062 0.28393977761660777
Ni 3.373440633359867 4.289956522536014 0.5906838680290241 -1.300151332833993 1.4211237934550236 -0.43377724209844654
Ni 6.101508657873114 5.750463992333359 4.7369947140715905 -1.0489926063031483 -0.2949708386197888 1.518904903561255
Ni 5.418643652398549 2.857351839738242 9.195090562303296 -0.32605213340562555 0.2842169425373944 -0.037150640908368275
P 0.22932247852783577 5.418318886691474 12.36576192219661 0.09770294857012851 0.25444485348128437 -0.02332067700381145
P 3.967247664938601 6.062554815563329 12.552803514171066 -0.09955748528036401 0.24515391509766166 0.30498091455762316
P 2.3433740232126086 8.483286225947408 1.3046587218605348 -0.0050475897262364676 0.7569319993516189 0.02222461572615527
P 6.3481050635095135 7.865951723144978 5.863428330777808 -1.0625029820847571 -1.7515200627619578 -0.8268564922568986
P 4.816915946075028 1.0739821507595868 12.605617635157262 -0.7864773171089036 -0.43702943048715703 0.643152456934602
P 4.044009648313765 6.193011395841653 8.153357646256312 -0.5162376626872077 0.11880784886954378 0.4263534388305496
P 4.661100576835889 1.108226890316776 3.7323103481862145 -0.1256176727025256 -0.3003791541195536 0.4827421020329234
P 0.10109866248565696 5.610471930044512 3.411253285060067 1.0824344309013616 -0.6030933841301872 1.0445260858913623
Ni 1.3610569932750978 1.045231364413759 2.593967753426929 0.42000538512533475 0.7041847895565743 -0.44872255055436916
Ni 1.7839380289660376 6.468223268779265 4.867629915488805 0.07632679688719757 -0.06275677151224676 -0.5988873164686395
Ni 5.929554237246248 5.581324207834482 9.143728865729297 -0.024995236492756954 0.8572495027264592 0.7929858076513827
Ni 8.790225904212372 2.2147216968624828 10.193661213752973 -0.2843586103215813 1.1575222131751353 -0.4103537209681836
Ni 2.3607309460018686 5.176774392054028 6.994812820262999 -0.6990613522870799 0.10036352612142715 -0.009034085177810248
Ni 0.5161699850483937 9.04255983734044 9.028633703395649 0.7420777079476059 -0.3038547713729799 0.49447378864755487
Ni 1.4563486644928507 0.9434082939759307 11.403831157393803 0.4886168156461456 0.07716754762093805 0.06099428029518528
Ni 3.913652302001493 6.869633682724653 1.651881977580367 0.8980868484577952 -0.3438210273532724 -0.5246893929989866
Ni 5.552672655454704 8.067324504071106 7.923364887394151 -0.2690633747254076 -0.21678924791203955 0.5708995730064619
Ni 5.441647889983068 2.944948367952233 4.7823220833827325 -0.17119998931801483 -0.1429008852630055 0.2597009596739011
Ni 0.7146956532758257 7.549269073667745 7.013298303884347 0.7774437461517256 -0.7080756399705483 0.11878959403709863
Ni 5.066317966569775 4.501532359426098 7.0979719407346575 0.2075682435344038 0.2945640900996733 -0.4039467890005753
Ni 8.393407316514246 7.009851276754525 9.352265436877333 -0.4789859774246009 0.1652100902831671 0.018266402409355637
Ni 4.674605417488447 0.37760418548978664 10.490370772245061 -0.3188119069034445 -0.13476977151543887 -0.8074181810266288
Ni 8.220640981619692 6.9922778434938815 4.892255275227809 -0.3742893711454587 0.23428766180711907 0.03611422922405394
Ni 7.356141733193479 6.268068359254671 7.247726821028982 -0.33853278237113954 -0.18659395527558187 -1.3605714857932634
Ni 2.2976452074024416 5.206697943453184 2.5954066459346667 -0.4167377701176565 0.05629944592267724 0.6224962141368311
Ni 2.266566933489239 5.040643433171524 11.425142102666708 1.074398962191395 0.19138649156821877 0.7486435340905817
Ni 0.9328624297656161 3.41822221585773 3.7980375145365226 0.2776284906865993 -0.44946894180209046 -0.7995801730394487
Ni 3.695752555093076 2.7918935072232354 2.607686398169979 -0.41811228186767985 -0.38650262538219887 0.19837140752648416
Ni 1.1108971861305086 3.1678007918935522 8.202012961938015 -0.34826749316040023 1.2225608387430236 -0.552414626828397
Ni 3.6181064872930944 2.67722414881664 6.790092246173101 -0.2135871960349741 -0.254762127611387 0.3664675611081947
Ni 4.043351095629974 6.8787451650620515 5.986076100054892 0.2925326614919413 0.0643534265754053 0.19091649391033572
Ni 0.8242237901140216 7.300633861092483 11.425920638236727 0.36186554355980904 0.46093837589427067 -0.32386001085031324
P 0.3241504564860422 5.617643839409098 7.891637082066798 0.5009228867070082 -0.8700533393593467 0.9130748372261953
P 8.5730839439538 1.5995974051220947 7.921595816417554 -0.9954187868417502 0.672950257022325 0.7331068719075633
P 1.9110116331289904 3.1257436328272674 10.2881193196559 -0.541253725115571 -0.031214220819275277 0.5743353381608883
P 3.8693398255249614 6.1793080872569925 3.881866760548437 0.5202735233194782 -0.061040560152088426 -0.8137011858218631
P 6.96996824367172 4.002502786695581 10.4689154866579 -0.19493744214427072 0.20602918118205807 -1.28833608536662
P 6.388412096265446 7.787872634402229 10.03140285373624 0.0875198373895396 -0.5595689784849912 0.6103541794576586
P 2.315759916841545 8.438685068842364 5.77125441034798 0.5717691200956089 0.4568145835338842 -0.0016737881579971172
P 6.9851059341292965 3.830395004484817 1.4416548205016102 -1.009426671085068 1.0693516295754746 1.2187419792175656
Ni 5.152516197989412 3.0884767679403473 0.4009927291610114 1.730947895037561 -1.6326538498506529 -0.13563880438395348
Ni 1.4528664544114296 1.1184570100896563 6.9131883725513426 0.44374155240001 -0.3371708690266064 -0.6145957283428318
Ni 6.946973027356842 0.8048136263544724 9.219860262356557 -0.6048982985494098 -0.2215635293722313 -0.9302924866560622
Ni 2.6446483441430337 1.4332812780208453 9.030442467958665 0.7306753796479352 0.8128738048245613 1.1143438780154484
Ni 6.291244000962368 2.047963527548825 2.528543701736558 0.14038968880537755 -0.30410082594551496 0.4386291708741091
Ni 4.141791189952431 6.942778136973782 10.473998972100595 0.8934148969034226 -0.5422898796895693 -0.37251351019195844
Ni 8.054153450395264 7.07546297085343 0.4240952985846168 0.24831097266940458 -0.5357636485352774 -0.4108031498007764
Ni 7.6277270557354155 3.9432150026150095 8.315299359708646 0.6432622430395889 -0.22624036602261036 -0.32111021601931794
Ni 3.311626893779819 8.266405882508423 12.489426388562235 -0.22947584224077253 0.2097706505023613 0.06521628879633284
Ni 0.2829313733694052 4.872820754040229 10.154182333550086 -1.1981597841908396 -1.2204152531549304 -0.29918487670113636
Ni 8.571496200496984 2.2777984141922687 5.80659974480137 0.32756162807161654 0.8248530886736246 -0.5432715268765482
Ni 3.47978335988783 2.639488177908389 11.737920346643321 0.27063226187442424 0.3581199604744478 -1.3544998256778864
Ni 1.1247267924901425 3.2135025438947955 12.729902764874188 -0.7857036721676727 0.036979662548142764 -0.9154088846760107
Ni 3.0025672171492213 8.377899754001389 8.066346598442022 0.6201853066154673 -1.1686188373089295 -1.019144155483148
Ni 5.598996875061176 7.870579634470804 3.6291647596190173 -0.6528789401937466 0.23403106571162277 -0.11437860945359657
Ni 3.08165668809176 8.366235252355592 3.479898832139235 -0.04974698951614013 0.02800676962557112 0.7647514953960377
Ni 3.3974913382227405 4.25028999992459 9.105477780324545 0.5316403703955231 -0.3395961906386474 0.140822405467422
Ni 7.3353837917495675 6.026397566842251 11.444115636975635 -0.2684265124723571 0.22907577858887646 -0.8676097629148607
Ni 0.3082901623302217 8.979086184146452 0.3815293399105804 0.9675940513199982 0.7416151664888906 -0.2948870206567309
Ni 4.68202992240298 0.3047439012343494 1.634663982343578 -0.5770324253770771 -0.10552912948276665 -0.6268904865497849
Ni 5.9500956682187764 5.5443730873849955 0.29202391104055675 -0.5244106854163033 0.4686316307734703 0.8908198824827368
Ni 8.073910030909026 8.869748396097679 11.117446442005829 -0.42371805809023155 -0.40872081335045096 0.8709061742779453
Ni 0.03965930559571017 4.74405115118477 5.6530297695758716 -0.3678924664801793 0.8386285451911621 0.9841858942404081
Ni 7.903020120099796 8.829693958891694 2.4974888831244217 -0.7487774885652846 0.030269340407502707 0.028457741120060668
P 8.472108872862224 1.5349419656051357 3.7212331311940456 -0.0338701703848836 0.9750901025867271 -0.8018196038929287
P 1.7170362933084726 3.1901103917157148 1.6429166398111537 0.2855276909290179 -0.6015275823049641 0.4625034063885454
P 4.632223492715087 1.186820191429061 8.032558335128666 0.30412036632954076 -0.6908837015722941 0.3222065344072903
P 8.46914989641998 1.641889117199045 12.294951270403606 -0.19856552581516124 -0.19062698769437492 1.2244665404061685
P 6.239344636717765 7.698760532888552 1.4057943715517198 -0.35465231364082145 -0.03753373527939988 0.04992105320015919
P 1.680788831890984 3.3231921614595654 5.916915438479224 0.7831035155406643 -1.0213581324153311 -0.06866593790783013
P 6.9292372112426595 4.163415173281879 6.070552171100065 0.1171893394295143 -0.51808577163954 -0.33157563432701603
P 2.527958221336858 8.419605083551675 10.217031714884916 -1.0339447108310902 0.18182635868360944 0.5696991249404575
