# total energy = -340860.242030761 ev
CRYSTAL
PRIMVEC
9.28751601501108 0.00000000000000 0.00000000000000
0.00000000000000 9.28751601501108 0.00000000000000
0.00000000000000 0.00000000000000 13.59321848447536
PRIMCOORD
 96 1
Ni 1.5251123157159556 8.962592404593073 7.784265725925101 -0.17979235897271617 1.0673988767244778 -1.1317206787309995
Ni 7.249287148980567 2.677312282681663 8.29146905704944 0.41033083815004817 -0.09071571861901795 -1.9744768729372897
Ni 5.79645957151733 4.829062601050737 6.092915229756974 -0.9285827030538072 0.09616002956304086 1.1086635398012197
Ni 2.076567875075259 4.38776627083386 1.58517282520236 0.7493475021361418 -0.5494907683133827 0.6909531213576487
Ni 6.916756920482512 6.259237926606177 8.80806578201533 0.20404068999711958 1.7139171648075189 -0.3244428799369767
Ni 1.7851163305412 1.609498687521713 0.7937501383756971 1.026685972386148 -0.12193662430651256 0.11808793998438372
Ni 5.880743780645356 0.793887593614826 9.011311928099726 -0.834411421786021 -0.935660435836195 -1.0923000108415317
Ni 2.8200706935364166 6.272546937259672 3.3923507216237487 -0.02552668351619475 1.2391231139770789 -1.479300916016388
Ni 1.4942777620735264 8.32981535375994 0.39239662889677035 -3.239712367730704 1.274574255695837 -0.36501488782206815
Ni 0.08493062025257825 3.7258635693312523 12.424990501827233 0.7049833741984697 0.8236696098884847 0.7243692349242492
Ni 2.1967297591191604 8.761591979915526 4.942331290602646 -0.952199828252115 -0.24981223980527942 0.7602098987719424
Ni 6.918540123584724 4.139891752110126 0.588410586149432 -1.4480141900879642 -1.3016155760843455 0.0908635570507919
Ni 5.935614426103029 6.864152428967235 0.5376747428850153 1.179651440974007 -0.2555242025883922 -2.046022189275444
Ni 1.2045722705770505 1.7803239722040032 11.992794079941335 0.16946835133888877 0.7086317695843345 -0.21924285165885468
Ni 6.3823160907234895 9.155382664987515 4.273191756510226 0.24206833419380244 -0.40132452088637977 -0.183317084296523
Ni 2.7443309992731604 0.07711610415777703 11.81122964032629 0.5567163395275444 -0.6557896860826383 1.0132262473368163
Ni 7.420929735084704 3.509965968737302 11.111151532410478 0.3733221221361829 0.609021576689164 1.937660475439889
Ni 8.849526182893394 2.2178867209256223 4.590987340624632 0.32093820921782795 -0.7423209343066635 -1.311168252769787
Ni 9.231048059121512 7.174736256785452 4.38843497199719 1.56565038724691 -2.14814306440761 -1.9599503971863403
Ni 0.9205154464074798 9.058718196821731 2.9367878378375534 1.3700182330284598 0.7423157921003409 -0.08842332304041546
Ni 4.33654561922603 8.121134153220257 4.5588664659944085 -0.7107079353870728 0.4177739246916547 -0.25357582061276973
Ni 3.6548233582436187 5.134046056626068 12.133171171653341 -1.0013480078419916 0.9126315790411896 -0.3312105376781135
Ni 8.131981972092051 7.746280713593122 13.508070916046648 0.8324866939594823 1.555510470599431 0.8289362576040626
Ni 8.983758653915691 2.544398638953709 1.0378288492459191 -1.2461841345889184 -0.48036588849126305 1.1723975876250712
P 1.793020006791112 5.232345127635548 13.32095997178243 -0.22318666679795113 0.47097827662877595 -1.184741711012721
P 5.697157448762856 4.740394684296438 12.134421271328122 1.4303694804230076 -1.6291669197433167 0.4195868095306774
P 9.154472488404094 4.558972343678602 1.0024174076411436 -0.20595539052132916 1.9992687351699892 -0.5246626535261093
P 3.985802571543395 9.24937232849998 8.160389697762565 -0.2070524802402499 0.19461014071183905 2.123867479689697
P 7.413611172352706 5.427800905167152 4.028295744218156 -0.5358387247475869 1.4292333099360353 -1.142285341620723
P 5.393065594738632 7.359334927929105 6.426628687813476 0.007489366398509682 -0.7373659042942333 -0.8827188506421573
P 8.604233593661403 6.956396039442117 11.281909018224821 -1.392684307167408 1.262585201654761 2.126634243801557
P -0.007870241191745382 0.5252582625342431 0.30370549335207775 -0.3428581492193708 -0.8727329430740389 -0.5368049453155981
Ni 5.745489682845748 6.85854276920819 3.3561247648519728 0.7964925352530605 -1.6678157424637663 -0.34828240555873563
Ni 8.868249815466626 5.305335717116225 7.829422558233793 0.11447348316024801 -1.209141480013324 -0.25649659380399054
Ni 4.3496967421048485 0.5544266357780424 6.208702693690759 0.5458153763443244 -0.5110340069990812 -0.16309998591869973
Ni 1.6087649737452816 6.423069711621976 7.017838531332735 -2.4037253739274473 -0.3424711981935973 -1.2160271513895637
Ni 5.657304716931631 3.008402946175327 9.987780944348826 -2.887549653280956 -0.34514283148848945 -0.25959605866492064
Ni 7.816364310516547 4.106911782235347 5.484197489529478 1.1862848871301248 -1.5114332777745583 1.3173239879585377
Ni 2.6088818636342475 4.566030855958195 8.16862772459414 -0.45674644930011016 0.08585710497513599 -0.8410914049093579
Ni 8.409548679970861 8.898294930235682 5.372420375072441 1.8346821374034337 1.1497927057413617 -0.6753051304077466
Ni 1.0246637950928636 3.8035257794390818 5.633913178737709 -2.6970656189223488 -1.1781604582507774 4.568807894402874
Ni 3.4741254438860567 7.309925341971959 7.499894983709411 2.1381201329539694 0.40455691178074843 0.926550760225443
Ni 3.1580155439542112 2.049541203057347 8.195202094575189 -1.160975976051691 1.966247800159278 -5.248110318895471
Ni 6.421927347134622 1.723437935740184 1.4129061180124478 -1.2495042001010868 0.7298086607722657 -1.6587106948387047
Ni 7.655671705961934 6.628481706474269 6.005497412677455 -1.5547635651310772 -0.26924849415302016 0.7017964918300559
Ni 7.720916506967376 5.992342574792173 1.8290221344234954 0.26771817355142274 0.767601049029691 0.9836858146755381
Ni 3.977090881387793 6.361827830080356 1.21761008575875 -0.22330493754337027 -5.0260657361217635 2.624359192396558
Ni 3.934006093933808 2.3805204163571227 1.2848201251830886 1.1183686829041255 3.9844341981693767 -0.2890691284233731
Ni 5.157051234147843 2.507638650002885 5.0558618881101935 -0.581244920796528 1.3401792952901563 0.17952804956773596
Ni 4.099453906760988 0.4841489297669283 0.3357242053045703 1.177443891799727 -0.3353369011416612 -0.4807523252964043
Ni 6.788904973060318 8.994021359269572 6.865092325602359 -1.195542658282967 -1.977482749643149 2.452443407958441
Ni 8.063793028464728 1.0289546275575632 2.732971438261095 0.3476465717469497 -0.7693216312652235 0.39607304267945337
Ni 7.823952211217109 1.490767080966045 12.771780782633297 1.2787124462339268 1.5883601701396 -0.4009997905571094
Ni 2.3766753846679767 1.7099524622796995 5.73011234234401 -0.4244366814238109 0.9742084713127223 -0.6652174071544414
Ni 5.6011152441796135 2.6232775136781523 12.658209320054656 -1.097453530018013 -0.2069645485121339 0.09565480779184816
Ni 3.2456711214473586 0.9694402240212117 2.835341227602345 -0.2654139508982784 -2.6797415258216044 0.9511551890376846
P 4.843709014030892 7.458116949778767 12.070275183484098 -0.029586198297549045 1.5514692106505217 0.040981070398052
P 4.84852923491656 4.350319005687392 1.6023138650223805 0.6538916977289772 -0.3494203758179208 -0.5693072888186776
P 6.880507744920342 1.3724069750566714 10.778321317140541 0.6562422002390247 0.17643552668534132 0.3091059924695902
P 1.1660012159755415 0.9939685541927948 9.8663661743753 0.417086668816643 -0.5429336839211553 -0.015599397100153782
P 3.0687346511335267 8.104063698523033 1.9285787351206813 -1.2329516950590445 1.560551375457448 3.2734501263027824
P 3.3768665746862014 2.209258618415437 12.5396495325479 -0.37764928875662707 -0.7072742271151755 0.3330460482249555
P 1.553244202156594 1.993918268790928 3.4244576649797365 -2.314466956580246 -0.10691521119701586 0.623497658818152
P 6.073682641298317 4.455379388459428 8.378587816108691 -0.08741827881466879 -0.5032682470107332 -1.3640352759721475
Ni 8.47012186034915 0.21569606149333523 8.616129973107364 0.28234157989155245 0.001304577744036463 1.2235807953671056
Ni 4.8593120411752535 7.57588265465407 9.900539590076297 -1.7701893570366867 1.3009059516118306 -1.9838912242726545
Ni 6.11339606038718 8.697656718688272 1.8224428579776228 0.6690843463090155 0.6776129526053168 0.42111044526405533
Ni 9.035629431654538 1.3987185083304674 6.713486626856106 0.05290944640452178 -0.05011799970231369 0.21473442226553982
Ni 2.4307101536714866 8.254419297594506 9.770955520890755 0.18876833721908134 -0.6959269204231563 0.13448309351295548
Ni 2.314755514446869 3.890605530930473 4.009768078235842 4.8445404536183405 -1.1805721530160636 -2.557991049383969
Ni 9.014621070106593 2.654362830256831 9.703260673123003 1.090634964434283 -0.7492508286572773 0.5739378456121534
Ni 3.578712163334068 1.391604270953931 9.999280746854867 0.818915640143267 -1.3817262654940075 4.606538833294743
Ni 9.02000782947786 5.078116634326457 10.410244049301815 1.1599259375206217 -0.8569800511151564 -0.4913547834025989
Ni 7.786374920844437 5.611071461500302 12.634216879565352 0.18039476844340546 -1.0828139257279674 1.064672221821934
Ni 4.752264129945542 4.586695579408317 3.658071202643847 0.02757842383890089 0.08000013197372674 0.5436219682374316
Ni 3.9170842394951015 5.97846702565308 5.3998241202463415 -1.000433209337206 -0.055770570002400724 1.3267509376993925
Ni 6.821782780257367 3.486635728150018 2.984527528389606 0.42784802109820513 0.1061575070953849 0.6516772065761616
Ni 0.7692050906750307 6.739393224425441 1.8544142035977127 0.27883870894461654 -1.169674018046321 0.2573275743457181
Ni 6.307180085010461 6.444635324139363 11.076814656425109 1.6021795925211957 -2.003258573055673 0.03632583101422776
Ni 1.6486827181896073 6.733263463761585 11.687136350692981 -0.5893125282960109 0.9159632145175838 1.9409882542615413
Ni 6.143218274768457 0.16815140878058685 12.47361343516585 -2.1253816023413785 -1.9743999969527675 0.760727204727993
Ni 1.9006901816033661 3.458355241450862 10.078093680214595 0.481393558424829 0.04750550178013109 0.8814914059929592
Ni 7.047395122751913 8.489616356763447 10.456502381026768 1.3549757368730406 0.3948638528627006 -0.34223337115117836
Ni 0.24621948334449312 8.931014849658055 11.521272457141952 -0.18640343653133057 -0.310381259637588 0.05671545041417329
Ni 4.415638106822092 4.9835139947476055 9.655820969342836 -0.6076668624334826 0.9646195420727065 0.4593309221978348
Ni 0.18871025454651508 4.351805008272569 3.187229426027182 -1.5083482110913313 0.361411486741526 0.17733078480610107
Ni 0.03205028950742759 7.233080433285977 9.429683882185396 1.480952849797514 0.7460580327515925 -1.9657662325371694
Ni 3.393556241220974 7.7942135844812475 13.497250959723328 1.6563511934675925 -0.9453851193231265 -5.039956892281558
P 5.2663281492553216 1.349216047211748 3.2775830269640416 1.1475445331371332 0.5670963972102878 -1.5553734308009342
P 6.822107843322875 1.413234896084418 5.804929786252841 1.327282127612514 2.3450414869329936 -0.44183559362654873
P 8.368377120845292 8.183648424475436 2.383081913313322 -1.3773181091239828 -1.1025324872028175 -0.21789713626423765
P 2.1803930181983673 5.827637763257582 9.969280212163369 0.9081738003801522 -1.0624579877794347 -1.900002812988115
P 3.5729260407680337 3.8838349316517586 6.337335721221787 0.583902155913717 -1.049005718929271 -0.48345661160144476
P 1.648933481125856 5.610876423660997 4.9639851345235275 -1.1387814422325226 3.4830156027728725 0.5242116820316198
P 0.31084387827062326 3.1230851956863868 7.666343990778354 0.13730873588720868 1.8640981286717058 0.49844280059763185
P 9.01807602611713 7.707180270570643 7.328729775935762 -0.36070083382774654 0.42883172516771306 -0.7840751354253142
