# total energy = -340863.9254493969 ev
CRYSTAL
PRIMVEC
9.32597944157322 0.00000000000000 0.00000000000000
0.00000000000000 9.32597944157322 0.00000000000000
0.00000000000000 0.00000000000000 13.64951359719463
PRIMCOORD
 96 1
Ni 1.3264247244733638 0.28184135612837025 12.07100216912121 -0.03096868046737247 -0.7775049384069642 -0.682348153297457
Ni 8.284183569645915 1.9936146169253173 4.536606826301501 -3.4829652091509113 0.20463590037895726 -2.0290169129666995
Ni 3.0837470012712695 3.476659839488421 1.3115050226248486 0.12204409641865434 1.0616596602478556 -0.07462215549126504
Ni 0.8661885735457185 3.064386268031166 4.640397516270558 0.9622836948506783 1.464051188946169 0.6103685776353617
Ni 5.683298477931295 4.06243393175439 8.517378752013673 -2.0002028169484842 -0.19829633131417462 -0.7675020615579814
Ni 8.686469017162828 7.621619362977723 5.167910350011682 0.7705953557713244 -1.1974113360605894 -0.19202309671095316
Ni 1.2507164236818602 5.46834397867737 4.868604232255787 0.9304120429530622 1.1939807131124858 -0.2737137290132254
Ni 7.840863812756913 4.031229204672797 8.86916681885853 1.2245979237777105 -0.33403977959679243 -0.6088367143718675
Ni 3.273344162529125 5.920961737030911 6.392927172253392 -0.34554315225070165 -0.40977290876404915 -0.9561621553339725
Ni 0.08119104408237883 2.8791163612161856 12.154182444610194 0.9182687227223089 0.04231881537286905 0.7415295487536196
Ni 0.4241735211751612 4.49155954799241 6.90269546498491 1.063094850032485 1.294584894489809 0.7093498786972816
Ni 4.009089329570675 5.771428983287259 11.539517400752452 1.6526835148080183 1.0120126866446895 -0.5641666251580025
Ni 0.07210567494822229 0.9320262577373543 9.730847213960962 -0.20845990211073775 0.20545556806677517 -0.3889639424384979
Ni 7.06844889470376 6.282212875175736 8.899005289957621 1.5615358508579043 -4.6237834793078045 1.7280183800955917
Ni 4.1551714709353105 8.314259853219776 0.03272113133247962 0.3362624982797241 -1.1292213093479133 0.8443070836331781
Ni 2.0401699061038325 8.902281506521806 9.29286191729033 0.4434929267243137 0.793880294441194 1.8281595057935673
Ni 3.9273377941261907 7.952523764146008 5.1852044462161375 1.1463469132846065 0.7483118617827758 0.024830428780118527
Ni 2.1976110903810144 4.89926338954232 8.432109457138473 0.5495902700057245 -0.2406765960525984 0.02254214696657408
Ni 3.079046707652285 3.7015278548474675 4.050151616880972 -0.4145783005724925 0.29041972891399664 -0.35169554500534267
Ni 6.907184058871452 9.166542458878057 3.5387316931972275 -0.21211575369577018 -0.872763024981026 -0.21322158516543924
Ni 0.5090138209978351 1.1821518231128612 5.746295468796855 0.7778515231131055 -2.7661830425453005 1.9541780134789375
Ni 3.6638695500191734 7.9490078699111715 7.9149838992561286 0.2599714397264684 -2.67630627488781 -0.7687724436299728
Ni 8.575928183302063 5.488171010887611 12.866482099433238 0.2729907348042718 -1.200179899944662 -0.19505905532379955
Ni 1.3793869615015666 7.701440420685839 3.292180775726794 -0.9268983733728487 0.0033552896254780925 1.6771318776583697
P -0.0552825407036062 7.532453673908055 12.80821244752693 -0.6941392323951142 0.777758706288983 0.5203221171692265
P 2.5741195308287335 2.5965018813953273 6.47523360347234 -2.8273526720760853 0.004129963007973533 1.4409912218029117
P 8.642441068402457 6.341843187476902 7.565365987818292 0.5652526591333297 -1.0378975248312512 -1.383259157198766
P 8.290991534609919 1.7829873721142668 13.78737407036165 1.04780038576726 0.16837768937787131 -0.5602513492639964
P 3.2697723124178726 4.078204162924436 10.126342415874733 -1.126761277843195 1.1788351157202988 0.13883031473805768
P 6.1731828499782155 0.8220123417128443 10.550459981173478 1.6099430385166984 -0.24331917588176805 0.8440952247326882
P 2.627464133012449 1.4497608020746986 2.412374407057184 -3.392215294859848 -0.15541110191487428 -0.4434505035221524
P 5.358101576157493 2.9456572242547883 0.9232057464182357 0.03894269981178455 2.127538500783381 -0.38013066041758403
Ni 4.200812814132356 3.4237722102954407 12.62735652676327 -0.09629886913375028 0.7493570152178385 0.5262842482899323
Ni 2.1503003968708767 4.748592866311532 11.978963145797554 -1.4155609546552652 -2.4703717103020875 1.293276974311663
Ni 8.250563413899009 0.06831559691894572 11.655524191141168 0.11118067134158917 -0.33489107185349426 0.005024449797784895
Ni 2.0562851985117803 7.222215643096259 12.595443957845008 0.5854494457961789 0.3496630879563462 -0.24986880407482776
Ni 2.4708902648197224 0.32057587897974144 7.117306768196813 -0.3463250247220487 1.280832577900723 -1.2890112570567736
Ni 1.31969136734458 5.379262223422327 0.5028400226332163 -0.10186145082319231 -0.4331002706360799 0.8537949685189554
Ni 8.045988729720342 9.249972670615035 1.2533650018322402 0.1997045245156109 0.42124157152528097 0.24373826569705762
Ni 6.095040468562594 7.3876958216186095 7.516227402345215 -2.092457855030164 3.257185070594171 -2.091572367101417
Ni 4.276297291418194 1.329073302623744 0.2595019050670291 -0.9533187723479065 -1.417405464063172 -0.22314295804420925
Ni 7.619996642561646 2.388457932878838 10.813417161609225 -0.5626265343643923 -0.057338428710152864 -2.1611947553852455
Ni 2.680883343031386 1.3729893396312816 4.828078188761149 1.1098084520389402 -1.3447136928254002 -2.196433781093198
Ni 1.0432413599089383 4.24329265031187 2.6723155657540825 0.33663967911348475 0.40930239688553377 0.018431724342626323
Ni 7.010562540550906 2.114068966891203 1.9415747192600465 -0.09964515989816387 -0.3746138443644129 0.3468269040591317
Ni 6.6666857020334005 3.108871189782271 12.692942409511032 0.016489513014590958 0.3406323452126456 1.970208584579239
Ni 8.276890653752966 4.948467256871216 5.218591452477973 -0.13129364004138033 0.33313166596022625 0.9161367639809705
Ni 7.4154779142593945 0.15754097225679145 5.947107120286513 0.15554119973483535 0.9170932143569689 0.5700747631123214
Ni 6.1744791611151975 5.602106501250977 5.979633338649475 -1.5116111981133193 -1.184537565421715 0.2807726927425358
Ni 7.3122673002091885 5.641145051030877 1.4506159943859305 0.1712724944271631 -1.2383224724526543 0.6379428877092045
Ni 9.31418203880295 7.187672215388483 1.4547100993437365 -0.051954795800736336 -0.36517815287280975 -0.6410048144639799
Ni 7.084797336596776 7.394597046376643 13.729909250477801 0.9643279789742166 0.9223639758376051 -0.6565697587817725
Ni 5.037399796455815 6.280114529810117 2.042608649717651 -1.5343628899875383 1.4501674889855412 -0.19673849990875147
Ni 3.62030790022894 5.756945737274792 0.23569267965181487 -0.6478064107668456 -0.427059977979271 -0.05958891530722641
Ni 0.14128205976604158 1.6005245850995133 2.34179259714337 1.1446623264933318 0.4482708077289312 -0.022895673651250892
Ni 4.6009719383454435 2.5677312349378516 10.413786820428275 1.6359931986365308 -1.4574187712313156 -0.02016310521143624
P -0.23671200920053517 4.251312992598234 10.455814346606756 0.8174382842667922 0.8281849812603349 1.8285657400930508
P 9.062697678228464 9.387344347217505 3.8402088989580827 0.41152691534067837 -0.25142766392151533 -0.43305527633075747
P 5.903997780497313 8.801057326084386 1.6173850232617404 -0.4844523998558109 -0.5050921875933495 -1.208309728140648
P 3.3193119150052666 7.707371743585986 10.46635177073392 0.3824138000248059 -0.5693193730035356 1.0400379682130216
P 8.974501891016681 5.892787953255211 3.3804521033717387 -0.25550929019005675 0.22983091158734614 -1.1628791066116746
P 6.341544756136015 7.79088588913759 5.363713017964125 -0.6109858995043865 -1.4411485733163827 -1.1114706702327117
P 2.7578693030010664 7.11413686779782 1.786912676844883 1.2613690698594728 -1.303434631570955 -1.2834101088199124
P 6.56271035767217 3.237737573169435 5.180113394060178 -0.17971933964293563 0.5564386603861255 -0.02370685669863659
Ni 1.7105524900931275 1.8238071839600924 0.32152619628088136 -0.9518190478739286 0.5880953680594582 -0.2737227278742899
Ni 0.8937356515055539 7.811030004647524 7.701642794438879 -0.5995092663233547 -0.6258749008010769 -1.6349290190380747
Ni 6.098481754962208 4.698139317742669 10.806497284892385 0.5821532915434103 0.1704487129742871 0.48052529688726275
Ni 6.520221195513253 6.314312896279992 3.6758963330569565 1.5913969000833945 0.16811877928952984 1.1674991218821893
Ni 1.9430584825830237 8.974902908131 1.3239057774366816 -0.7715078402832648 0.7013380641363987 -0.8444636638157004
Ni 2.1964360169762687 1.996766797963446 9.737303589501483 1.0183941646910009 0.6961439215299687 1.6875276190703972
Ni 4.440518462721173 2.1634127239111396 2.754663031282402 1.6415645220767214 -0.9240339073408601 0.3852813513805881
Ni 4.03952000036184 9.166094811866724 2.9079877282512108 0.3132899486439507 -1.5343477204788865 -0.48805143006097884
Ni 4.321518965542117 0.19362598435984207 11.479336855666524 -1.0856274839173627 -0.6306854348158429 1.0701088194564732
Ni 5.389595408600571 4.091008732644408 2.9546418728113952 0.6195481872521007 1.5784709360503462 0.22467199309422597
Ni 6.44597707348798 1.6274486876352452 7.6608033980363075 -0.5410621779300553 -0.06039649881018631 0.9313803204036024
Ni 7.763887178766636 6.7926796837645185 11.065183166761674 0.3147212817738386 0.2687615272142726 0.29217527815252264
Ni 4.402375206963937 3.2548973752704904 6.078087703204281 2.8231489184073832 1.8634484109028486 -0.7283996962398811
Ni 4.8066750660318425 0.014921567044395883 9.180827061529245 0.7331140709964148 1.108881826459613 -0.6665692931966456
Ni 1.2903238582053285 6.0126547665187235 10.413950957665762 -0.9989926202359377 1.3810958309988601 -0.7262813643452976
Ni 7.660825780386874 8.432634509778849 9.266476856364077 -0.5085297525199887 1.973319619404395 -0.4979028689337619
Ni 0.8527675565872247 2.3723333144914878 7.901116167884243 0.5243548924777034 0.10567413970106318 -0.173029843437902
Ni 8.156482933684094 2.8936369111462636 6.800815668195476 -0.7077177424104972 -0.2898252898631073 -0.8827615309546345
Ni 6.358079717617086 0.06098257931456542 12.905874103832502 -1.0821883763288265 1.633298168302871 0.5504127659070198
Ni 5.399499598726289 7.1428515583788785 10.064428171217834 -0.7213366187455125 0.1578117409365669 0.08260774479990289
Ni 7.7290359937385675 3.947677755203583 3.2478749127802216 0.3304844581453663 0.20025422637149384 -0.4989817038202373
Ni 4.047447082854175 2.0737061280361124 8.107141974457978 -0.19706631556181545 -0.4081793390246842 -0.1715568584368013
Ni 5.396934954390533 1.2504366442997779 4.62285814680781 -0.15004315273474159 0.4257790543843183 1.4992771020279985
Ni 8.859437957145584 3.8007469497132975 1.0407848969342544 -0.6564175494746244 -0.8282752269812961 -1.2846840904363295
P 4.118165984665208 5.491705557081252 4.3488851195015386 1.1537532330510065 0.7842237451880365 0.10363679755606021
P 2.8757496826517936 1.7178360800066732 12.095871758394516 0.16791386236757533 0.941862707992165 -0.18891746120243594
P 5.6991526429159665 5.941814626975455 13.437454929789105 -0.7658912654274358 -1.2833334899457058 -0.6597095899623348
P 8.667481323098833 0.7127939317313886 7.64682562010747 -0.26356609905626216 0.3850288690501498 0.692507353218646
P 4.364623642341615 5.81427253266348 8.220392005335242 0.8119008993883308 -0.017552921282098802 0.2925185204245543
P 1.8224362649878885 7.786978303767838 5.453635976561297 -0.13769902934709188 -0.279379411939435 1.6981136221163595
P 5.032811414589663 0.27583169500123983 6.681314433324551 -0.9613694105665249 -0.041926722140772955 0.5271237134720922
P 0.2540471397143621 8.070562685446582 10.210272500107697 -0.34518294069780553 -0.2351070723846209 0.28303474930383515
