# total energy = -340865.3236101646 ev
CRYSTAL
PRIMVEC
9.28504260621688 0.00000000000000 0.00000000000000

0.00000000000000 9.28504260621688 0.00000000000000

0.00000000000000 0.00000000000000 13.58959840069000

PRIMCOORD
 96 1
Ni 9.150196106747643 5.0228645990667715 10.184371599962034 0.3188571583190831 -0.0653049918553972 0.3097780788359504
Ni 3.987062366356785 5.879205524865265 8.035977973717378 1.5711049826035781 0.06389525599206415 -1.148745238313454
Ni 6.159344550673765 5.861173971780511 2.134273861684416 0.9253847649417999 -0.32814218316543486 0.23389685412660363
Ni 2.48716584021979 5.3113323082517 9.86610261746051 0.6293379196490129 1.1117606906693047 0.6530517183261849
Ni 6.336113195178164 1.8645015861432324 9.557361017358714 1.172013464812775 -0.4689419629250375 0.4571380283115741
Ni 5.7915640060357125 7.14523039338188 11.240242524143385 0.6109025957619607 0.3582294894691185 0.6780688091958129
Ni 8.83581384315512 1.714232453741762 2.803792298652984 0.2566205209763645 -1.2055313940645624 -0.0631897452846073
Ni 1.6363309447916667 8.204700200145954 6.0067792271920375 -0.6625221197104655 1.698642498036636 -1.552109672447998
Ni 8.759295805579706 0.3744908450573891 9.039148852070486 -1.4162214710573997 1.2752342578773392 1.1864065003096533
Ni 7.34429242560847 4.9174143681792595 6.467711035047126 0.3298393683621997 0.5443732445811592 0.2505105514238847
Ni 6.27608539358551 6.655518666916336 8.772085952013407 0.7332868491288531 0.6355301645026539 0.2827030769960293
Ni 1.4227099654811979 9.232025188794983 3.931864644019893 -1.5184801573190108 0.11064691032530621 0.047184113884970354
Ni 7.772825005176257 1.5066838924114312 6.8228342093632754 0.16721143698391203 0.23054130739080939 1.659089161224046
Ni 1.8535545207019732 6.756224240941692 7.56709631223141 -0.8157588396818403 -1.415746331193194 1.5196240411154667
Ni 9.245897042712915 6.236633246800176 0.6609409144455529 0.06888139635274589 2.399117699952107 0.33509804565797774
Ni 5.502585619497714 1.418011733832956 1.070750205241246 0.04611556341113993 -0.600199864632476 -0.22667745356002897
Ni 6.405927431864191 4.270414016968233 4.209635983918706 -1.3024732960989505 2.763233987219306 -0.5629931736751916
Ni 1.7770550532121243 9.115005794599746 9.25818579683633 0.6084343367271264 0.07472962760340679 -0.4818643274136605
Ni 4.720302194937118 4.0492257277895485 6.05578382599261 -0.039940544948679595 -0.3685966916360555 0.36198304297427986
Ni 8.619045234341185 2.874769951199732 9.053336397443042 -0.7221030645978919 -0.13307335764962244 -0.4259068382114342
Ni 6.503782497755139 9.156222099513865 12.607858759766861 0.4214390322480677 0.5178464019352242 0.5606876654704667
Ni 2.994834839427822 3.738780322337054 8.168721587865772 3.150940917322251 -1.1596099489420997 -0.9090526034406796
Ni 1.5112242783323604 3.0464596773017827 9.867312458535146 -0.7239876832151144 -1.328165558658732 0.8861343040816093
Ni 5.899771894629802 4.2197919637148456 8.521235665159875 -0.3413095737853283 -0.22346588860126676 0.08084576780347366
P 1.2767305228455132 4.661370028392868 0.4119021394390009 0.6521294636222317 -0.8138747352852499 -0.4874351366332186
P 4.8607384670313 3.251724118107474 0.3384490944862826 0.08777334816124238 1.2106206356620117 -1.956135394315625
P 6.274934048280408 6.939362424795288 6.694263293441599 -0.6457955509844039 -0.7792378619376709 -0.32377670710788753
P 2.3520684677258825 1.7398498867802972 8.12671605431509 -1.5219346915265144 0.5224695025295325 -0.40225217490697174
P 8.806565958388399 0.1794835910141735 5.353459475862842 -0.31232861317194593 -1.3366165176395628 -1.1253227456244557
P 7.33589874693256 0.6182705718316011 1.501433200717596 1.916069122422358 -0.3636673726552382 0.3803936842709836
P 5.448305259387792 2.4153924595065317 4.200667561094522 -1.3114130217907416 -0.6936360675064506 0.33698960625373575
P 1.8118646786059154 7.283280409480809 2.3313089690714577 -1.52790813550113 -2.030702013978606 0.3417523177497017
Ni 3.0057540497407316 2.496961560355946 12.801619032564307 -0.14545064826805273 -0.5684765653872661 0.6791044495491788
Ni 3.7655305305951265 5.259995306704015 3.8906344115415976 0.761349154582708 -0.2059836726561033 1.8707279752833976
Ni 4.246811438213627 0.012588661005308551 13.277133000110235 -1.6321275450335373 -0.08815772808385462 1.2598564898696882
Ni 5.783532444028342 2.1735820903066125 11.947621651564264 0.2026072999847027 1.0498953206230757 1.4807021672392886
Ni 0.2769394000654484 3.423645970279102 4.386763031074532 1.4349151908121611 1.9158984011724485 -1.2159623595898994
Ni 8.603994179989803 4.689912249908076 2.1778420679354924 0.4016140271023406 -1.2990917812212273 0.11858621977704092
Ni 0.9243427221332613 1.0591355452238833 6.754859339652578 -0.8760555796893688 -0.4632739660059828 0.7669497885989373
Ni 8.149658466527818 7.069872986154351 3.0815367119277264 -0.5918792605819225 -0.2669285877705919 0.60202329099446
Ni 3.506134290364041 5.437776020871771 0.05270004582824183 -0.6840121712634414 -0.5395850791638965 0.2240436154816077
Ni 9.057169263103901 8.254254473479287 7.469984978267388 -0.28169109079174715 -1.069038726320746 -0.6294145385232193
Ni 3.288938569582084 1.8818181909336882 1.4425493163958185 -1.5709854263065783 0.17311366140095993 0.44465172291910515
Ni 1.9348079300967624 7.709575293737871 0.029285953442132837 -0.6762165864784225 0.2014330771709434 0.8882526359761929
Ni 6.350737137561525 9.173612984646587 7.676492686301735 -0.5233277367647697 -0.7543500975570556 0.797726921880794
Ni 5.73424743693572 6.902036552807281 4.16114856200115 -1.1761989636490324 -1.630339085674547 0.3370857655119679
Ni 2.1517900948947086 2.6792919454874133 5.745695894687266 1.57294049315042 1.382317105000471 0.12300131812560107
Ni 5.245984177144338 4.569160268514038 12.184271393985346 -0.38565518978023905 1.0740593194637889 0.0743305923927752
Ni 4.131611912403874 0.9049434822465589 6.0967559342815365 0.17643861200913485 -0.45526446543794497 0.12560096053197722
Ni 0.05427757459708821 8.576231902068374 1.8281404301003876 0.8082429909207693 -0.024287411792454947 1.362582088465389
Ni 4.70141641791632 0.49076093630003204 11.03130213489987 -2.020845175789184 -1.0305251436265799 -1.2965119363091928
Ni 1.8023196546249025 4.404991427066287 11.87749915145784 -0.9697154685383751 0.0387282698081333 1.4530792633156977
Ni 6.880244557395376 2.961872937547865 2.2387500915839826 0.9640140472782237 -0.5749104939380679 0.13316103226742226
Ni 2.018466165572371 4.693681977278009 2.483159344258888 0.1347605155440582 -0.9066740759061739 -1.5208509715440324
Ni 4.693561271721829 3.6182233268414605 2.3735726268115105 -1.2447903395651854 1.176310549526232 1.360145196889122
Ni 7.629361809134789 2.4858195090162423 4.831360591665614 -0.8804094857826901 -0.660001924391773 -0.1034280239793638
P 8.327374185396092 5.2158263581848745 4.213142944577878 0.2989707038078012 0.8920141599011542 1.1247769004233144
P 8.734411890921034 3.3648530793765987 11.786190969233246 1.1974334475477764 0.4186591555100854 -0.16624650196748142
P 0.08908719999087915 3.165856042449491 6.4746423194847 -0.6918398948379763 -0.34360814001151785 1.8373470858301066
P 4.349726852421357 8.637875301105284 4.268560722428728 -0.25666757216421604 0.8853909981576815 -0.09805518970322467
P 3.29873428971824 8.415972063632303 7.603108350665611 0.6572313036251713 0.33946686414963473 0.18007260921729631
P 6.690903964962679 9.087540638047376 10.48339733129561 0.8701045043122563 0.11045073515410012 -2.315762021242586
P 8.29217458820541 7.920150779015488 12.266963985011511 0.24513360338268747 -1.397740638644393 1.1759148567497104
P 2.4231176151020595 1.302152969985604 10.957225135072129 0.4309557134892514 -0.35248667344807033 -0.2033755456092949
Ni 1.0463593263543565 4.586597578860674 8.190912840117349 -2.555091616348987 -0.15949015708025435 -2.211332552581901
Ni 0.777370708424065 9.05142182162117 11.475492082112776 1.5638858391473196 -1.008341151330373 -2.1961998107055205
Ni 4.065808814200141 6.590644072990912 2.0535515567368194 -1.628799251991253 0.6897441886512122 -0.562217986072064
Ni 8.757949474376158 6.869808169307188 5.581574406957708 -0.1481269095486352 0.045009989051787 -0.11625654320259979
Ni 0.748691996779946 2.334584732165331 0.7354784523953357 0.8473330149436955 1.4795081469311875 0.2780339536551341
Ni 3.653116517620299 7.574867893040855 9.686407327470882 0.8139066169644499 0.3960969539388533 -0.29953274695885834
Ni 3.666960516409881 3.1381587598275438 10.78124014817862 1.4448699880320277 0.584146153603723 -2.0023409463374096
Ni 6.6683227409142125 0.5993095859642603 3.674913155553594 0.6816842944612131 2.092507220210861 -0.4916761712977597
Ni 5.405426931815499 8.579481667042455 2.3822569273265315 -0.5558881871992942 -0.7289581398465123 -1.346770832464745
Ni 7.803976323713512 2.1469340175191545 13.408490357371114 -0.6780919491242644 0.5523665471992809 0.5683860625559888
Ni 3.2534511360651277 1.4296366073973803 3.8562936808083523 0.9093097137568081 0.5221393728836233 0.14015751818991348
Ni 2.9540270763961574 8.901849067428431 2.1770129136149627 1.904511756602062 1.3577011062240036 -0.7936830908287235
Ni 8.336928494419888 1.2729607954755802 11.137925995195163 -1.045985186935392 1.1980412563351044 0.5310909256499563
Ni 6.871451621879794 4.5775168070188155 0.4618305999964914 -2.1376138827415123 -2.231505942205983 1.8015552729424782
Ni 6.962853583036496 3.9454839447741237 10.771387789281487 -0.001876905307738703 0.1443000796033773 -1.022052844489511
Ni 3.5715938419848 7.389566294218799 12.091902859874923 0.5967818400898626 -1.0022574070301384 -0.522582373958313
Ni 7.147393808350339 7.814654122914061 0.8919759914957004 1.4232416111289747 -0.5918386371519742 0.027402303272352803
Ni 1.4482995433913841 6.084284264815295 4.187635075044183 -0.4585881304945393 0.7031509489754213 1.1302908882630083
Ni 9.28866394977181 0.23240647786920937 13.4252192189534 -2.982519262080322 0.3147364512824902 0.8761393976524267
Ni 3.5787897501416923 7.154933263090205 5.71679062799924 1.7295098770394537 -0.5838183379506591 -0.4160888236797479
Ni 6.78687416716866 8.430893127384723 5.304427950438197 1.520145975057208 0.899459817545922 1.580444000616317
Ni 8.236269345608449 7.2158524287900345 10.2588970673562 0.12312138864323313 0.7578388274366046 -1.0275681178807852
Ni 7.987458054150081 5.357822517466615 12.586563514143851 1.6900894662603023 1.6034905980231353 -3.937841695121818
Ni 4.285409361062917 1.343192859086846 8.584766713394586 -0.17937121227489752 -1.4959318397048496 0.6942868137165721
P 1.981298139311676 0.6341591370420185 0.04405102847579684 2.34490624690671 0.05806605090479677 0.357716554388442
P 1.771428317285574 7.224301817722644 10.776008026570352 0.16875512732194806 -0.4297082142353954 0.051625180375459476
P 8.883501822889052 6.117988970117898 7.993497045976201 -1.0402680819459569 0.6360955500878207 0.1515467338634616
P 5.772418247816988 2.3473702360776407 7.512791811010251 0.7642845830619482 -0.0984933056819078 -1.7776951784954287
P 2.614630907546 5.134712224431831 6.086346472817419 0.5096708081029674 -0.5952888004841038 -0.029904243758600114
P 5.4373210537754 6.970950140343348 13.569417790383287 -1.9416374578097657 -0.607741681535476 -0.2826053750759004
P 1.5534805080381866 2.5447423905177087 2.888305686568915 1.2291611176683606 -0.6612586796170096 -0.31073915719763906
P 5.00435950880008 5.5053432772042905 10.151851666118553 -1.2643196678473647 -1.069138999344036 -0.6075768738228374
