# total energy = -340863.43917176296 ev
CRYSTAL
PRIMVEC
9.31596214702877 0.00000000000000 0.00000000000000

0.00000000000000 9.31596214702877 0.00000000000000

0.00000000000000 0.00000000000000 13.63485227406241

PRIMCOORD
 96 1
Ni 5.7323071019159775 1.727607903552634 6.162435318624448 -0.3970289788348194 -0.5269848739013827 -0.3406161472627295
Ni 0.38844953396684145 2.219872655726446 0.03154571078917814 -1.5919301468790454 1.9934107337273153 1.2275827174376472
Ni 7.379108350402363 3.953889941188877 2.7414640565224104 0.6952211526053833 -0.17174532029852357 -0.5320751439400965
Ni 1.1189029413634841 0.13466875301373885 11.823680261807967 -0.27828489332367556 -0.033898966740290006 0.5152159062909127
Ni 4.114860449937979 3.1450035858635093 10.104393375583575 1.5088683452608593 -1.0355089699944167 0.9462071010037896
Ni 4.764015319470644 6.812055054664815 4.922167749691092 -0.630249889940321 0.4658530395870687 0.8643488327754018
Ni 2.4159457095861803 4.542015943147298 10.593202837422586 0.12034125479493467 1.513244362841368 -1.6769501006648668
Ni 3.3959197084775674 8.990536890877848 4.333523780241125 1.1538496494195547 -0.15348637408833568 1.5679507532453127
Ni 6.841260595779951 5.141237255940847 0.6707772175161518 -3.3488166161592385 1.8117579245070925 1.3602475267949412
Ni 0.7204331585853379 4.99030003834996 12.019926592562356 0.29231154662007075 -0.7333745237466531 1.1888315648113783
Ni 0.9459055255714345 8.364643978654431 5.924697555966201 1.4132461904791596 0.17889710085195643 2.148476279377313
Ni 6.256283389003959 8.82052058295082 4.849125949017019 -1.6655822251475574 -0.8177535015143659 0.3106381128434005
Ni 3.241190894320855 8.558266934487602 8.21172618752572 0.6042660642820497 -1.1406573190989968 0.8964909647255851
Ni 3.775917801647072 1.5375063813850216 8.108332982400892 1.4953096327398183 0.33722666196520634 1.6629872107268713
Ni 6.754631464414832 6.530144726216608 10.28954160071421 -1.145774585720904 0.5912953630539945 1.7154168892814974
Ni 5.306409263587215 7.579848701263272 2.844571261611438 1.1344429627581687 0.22803782424266533 0.36657091945527837
Ni 7.431119366684916 1.957935749973885 4.146972571221512 0.5838504767401751 1.1619272842213666 0.18420874287285693
Ni 7.191717773199505 1.6448448964499647 8.791997901856016 1.7674290206827301 0.685938955972509 -0.6376523530519792
Ni 4.301803860961083 4.730738702927337 0.9733130860054792 -0.06744492101653546 -1.9232748961421782 -0.7253349412716282
Ni 0.48039807967860937 5.578733467056961 9.500546687618204 2.15946774539181 -0.9167875101910921 -1.312515767936617
Ni 7.017723549465088 5.887157023579706 4.124024561834298 -0.35371000433221017 1.3973804270914967 -0.9693699122734982
Ni 2.3350086310508367 2.4403069504206556 4.073207851890168 0.5114428124017256 0.2794848271690477 -2.8658557132472904
Ni 4.132681885393563 4.20117283859244 5.474011805739782 0.7701559542410608 1.4585441430850108 -1.1376498997312408
Ni 6.0835188722638645 0.9202428448346355 10.531587064237414 -1.1581940424311796 -0.12663608666471096 0.7063411737779449
P 8.401749455611874 7.1106223233088315 9.058396221847824 0.40412522355996855 0.6273584273251389 -0.4520639562227763
P 2.1897448343655688 3.7013528411732133 0.29077819275043953 -1.3812069026554277 0.8662532488869662 0.6088403139162933
P 0.3297468621235221 1.3148269398299675 9.448843098084229 -0.8618908581532123 -2.1000220405306673 1.750382606723405
P 7.10733378869523 0.6225717717425406 2.4201313713479125 -0.5538302762290009 -0.2697094929498387 -1.2214712052232706
P 5.65881347708111 8.5111467982961 9.176405239877129 -1.6922103692580468 0.5700220554975151 0.5137866300435538
P 2.5142663733594324 6.332022160699671 8.395414601398704 -0.5945182408666664 0.031155085446565697 0.7236644955477408
P 5.947254294946132 3.7760202772299327 4.388854073812138 0.523704146267582 -0.06781387432017998 0.13299056812782903
P 7.712936535512341 3.384516970893859 13.664712798451228 0.0827632965411607 -2.558567233602413 -0.4234048977251869
Ni 2.8038251066738367 6.704940122689748 11.661344033018201 -0.9651049663495572 -0.3026928898543948 -0.8094874048508317
Ni 8.74317946577766 4.45862876658539 5.081164206075825 -0.5763199726910848 -0.2517266832191729 0.7780024468686729
Ni 5.994411694985946 2.165523332962266 1.232234414833329 0.23482347970593104 0.05392811747702326 0.6083345779244684
Ni 6.427985886067139 6.925169466218238 7.948505542198784 0.28906758576147634 -2.8191128006647967 -0.8612622234302781
Ni 2.9559920312590453 2.53815250012792 6.154172060261089 -2.1093644009775154 0.45234960578399513 1.1417999173438724
Ni 8.249806114116543 9.576436377899581 13.55519714304861 0.06828335775743077 0.5472107140299544 -0.44965688944318044
Ni 1.8442251168474577 4.831528096651311 4.749046431603403 0.36038998745554707 -0.30604997925208577 1.3658587023341315
Ni 9.029673247568338 4.921380550895486 0.7132188775519849 3.0953210139651013 -0.08967725005217458 1.3083827196048499
Ni 5.140883249381876 8.63122954948401 6.982816639558099 -0.027368621820939965 0.8527228185006992 -1.1792068972374208
Ni 3.3476723408746047 8.353315768767349 13.209144552499625 0.10391241981495006 0.3350293972035714 1.1313578960749417
Ni 6.518639513050039 8.255684486187882 0.8248064029207921 -1.1570146774110979 -0.04084043105512966 1.8877005985819941
Ni 3.8378223696566667 3.8266618470869913 7.960926514437639 -0.6005837303344559 2.0987393171635014 -1.0749316947664134
Ni 7.38928138099175 8.794668788183834 8.005662695933331 3.0767496787208173 3.150441866198645 -1.359870860181813
Ni 6.927517088661943 3.321233640496692 10.47384393648815 -1.408068502932962 1.3815105499387756 -1.8416621682656928
Ni 4.3356301192670035 6.234474721778908 7.16586504683631 -2.420718566051334 0.4262881328102529 0.5709401964364103
Ni 6.100408711511629 5.227335377467509 6.306242098840687 1.8573296995996205 -2.1414682234905955 -0.6616008934477767
Ni 5.129582987381027 6.254913942578464 12.67853064243093 -0.8693910231849995 -0.19238279404321706 0.5094121551249421
Ni 4.556120309733682 5.2086009777282625 3.1412650902815304 0.23903597512538188 -0.6506690770266214 1.3659654031153248
Ni 8.385334730430099 4.339663930846862 8.121912860322274 0.00580735071039645 0.5872237640877823 0.39610363880707267
Ni 8.329811596444067 8.965896171181027 3.9467036080417586 1.9278126361115315 -1.9294743400846706 -2.8711154189843326
Ni 0.7259659084635768 1.2911643961513561 7.385085471671731 0.12690862359980723 -0.10941509480073415 -0.7295672341854209
Ni 1.664855582993924 2.9362235597291195 9.07599873219457 0.16024580429935625 0.43869601955630255 -0.9184818671743795
Ni 0.588115754400135 7.279380976355303 1.9120285520449642 0.12238245359467954 0.8182965185020294 -0.34370609904196286
Ni 2.197178972103967 5.982766742388204 0.20932221512734084 0.1260971834421054 0.24807134585477275 0.31077001043557445
P 1.809634949651126 8.934482747053359 3.040312667221189 -2.3450633413098645 0.9958880131686848 -1.8460124748145883
P 2.6001874916066092 6.943400804005262 5.258049172843105 -0.36033573717884393 -0.60913341967668 0.01982629069730779
P 0.32780262083780315 4.099358689039865 3.144701748692176 0.6984622852505004 -0.8826278335902477 -0.5342222721900864
P 9.287958296186247 3.608472699253626 10.42511213885712 -0.7625771134525382 0.7719328436358255 -0.10787680377933678
P 2.904875347335999 0.5558424669726499 6.511582671775808 -0.9404126058091998 -2.9414386899899276 -1.2573823172975829
P 4.068997968627033 6.7692202610292815 1.375579123330489 -0.6357006286422472 1.0364319960293182 -1.0676397890906903
P 5.78008867141503 2.925249356401008 7.836249130752762 0.3589475985820657 0.11322315569291468 0.7364480204656542
P 4.032544609015063 1.4002915759353125 11.473864022579392 0.4595610359307698 0.01668208864137127 0.21513731413091333
Ni 0.6233422018064073 1.0412450814796645 4.968171833625626 0.632789368532723 1.2935546534530817 -0.5898360048996487
Ni 7.935364446091284 2.667858640142605 6.7075700187844225 0.378015156736478 -1.0578901659030944 -1.3785627801643614
Ni 7.585391698699796 4.921492342440424 12.05618152218206 0.08126588606002778 0.2951736986592142 -0.007185719115161818
Ni 9.046460611233243 6.792407690641904 11.142087212319032 -0.44043794194807373 1.8700047239641278 0.9410800641898696
Ni 4.2200190298766245 6.381359495865783 9.689662580997942 0.4359004590890364 -0.4772592245414813 0.17174969117389777
Ni 1.4677577733055884 2.573469312366351 11.792960876855123 -0.7230993670728901 1.2548065861506066 -3.588808270329671
Ni 4.321078586500866 0.22436563069120735 1.9226096217733761 -0.5881596456384903 0.6345590588386363 -0.7310577026880184
Ni 0.9238770016413387 5.890324450686292 6.972617524274892 -0.5182937738852881 0.5788159996400611 -0.4391894142529533
Ni 2.795561848310479 1.7405664068034008 13.199900323329436 2.480018746473548 -1.7169145568729463 2.2937911733984495
Ni 8.2010370526372 7.0068145578715235 13.32260085986132 0.35885632441984006 -0.20348147505953987 1.0298849389394198
Ni 2.1123385054578607 5.394268101946655 2.553439993898235 -0.10539851744217331 -0.05195376735947181 -0.8024793489641148
Ni 5.998240555400082 4.8123092668839975 8.715206426445468 -0.4356551758474497 -0.373786206256795 0.7581265338803523
Ni 3.655518307748502 4.029386497870555 12.439238977298043 -1.6906221988353207 0.7537967961567469 -0.7499900208161471
Ni 5.615261354365557 3.264303796236853 12.741619269220664 2.6222855976969806 -1.1624322488822434 -0.26203809244751
Ni 1.086175966582791 8.045004003789542 8.645969264684128 -1.6248880898623048 0.05392117549848778 0.19764558510405317
Ni 1.161644575378235 0.32999932469584115 0.7665313337368617 1.4893937814760154 -2.763922014425266 1.129154717776036
Ni 5.1860284016128 1.433139658223022 3.936218492722752 -1.4027144377099003 0.6294173667366967 -1.6184207369704064
Ni 2.5355812945943383 0.7039867591324954 10.036342135794788 -0.8466971811319096 0.4156671627612971 -0.3103861447335945
Ni 8.162487601557638 1.9751050680839954 11.554596149949015 1.7068260622886928 -1.1221538609781705 1.7313106776936185
Ni 0.27344770849637656 1.6370288042663605 2.618396471084646 -0.17421126534051287 0.40995725686071327 -0.06330724469907806
Ni 0.3886936121732902 6.8627618362564204 4.40348479225594 -0.6033952316413221 -1.3645407548536563 -0.9452869031823656
Ni 4.255540793280776 8.54909071184058 10.828144879861163 0.23848730171076346 -0.3407159060653874 0.7468324490237719
Ni 8.165533921157206 9.004026403967073 11.011275267605665 -0.7439209318039316 -0.3597698373730449 -0.6369758958102448
Ni 5.633194581366079 0.5609923308094752 12.850616025535526 -0.643038557064557 0.048655556224174265 0.2846712564659936
P 5.35619376493308 4.827643340464705 11.08930669756882 0.18964688316929273 -0.46552085305863056 -1.3578147489837324
P 0.9079290061596796 7.580090916277305 12.881717364933573 1.4235095200783807 0.013030607931713041 0.4894832774114989
P 0.9332171852209352 3.7267667857225244 6.745515795521319 -0.3104205975159557 -1.3092880050279387 -0.0986174899645979
P 7.9095405992105325 0.5583316920399432 5.716221230195561 0.38230195703729 0.8893630954315521 3.716602124747909
P 7.883381377694965 6.46211957112164 6.075649679096415 0.8286475227190504 0.2013276619413307 -0.1904578091063623
P 6.438019177225353 7.851082937169869 12.356312009262798 0.8385100173354268 1.7575212746507152 -1.4869872289170518
P 7.777924686969817 6.861765028314054 2.088954509045388 -0.4556539875668798 -0.8178347483742624 0.09590369057786063
P 4.07262187787545 2.6484162272854155 2.3519301445696668 -0.41308551807704985 -0.19163280325106996 0.14259029600112216
