# total energy = -340860.36815525306 ev
CRYSTAL
PRIMVEC
9.35477017818923 0.00000000000000 0.00000000000000
0.00000000000000 9.35477017818923 0.00000000000000
0.00000000000000 0.00000000000000 13.69165175044336
PRIMCOORD
 96 1
Ni 5.6839491081411735 0.6571950683341761 9.555280494742538 -1.6236493323591974 0.09394322441738014 2.119542884172414
Ni 5.3853822577424175 3.1049511806837162 11.284618308744125 -0.9698548223297169 -0.3738967636927302 -0.5272260433779113
Ni 7.3997075375068775 1.8911416638335536 12.026377694585184 0.40490555336941875 -0.17289357497035385 -0.5182778330456881
Ni 7.638263536128844 9.085642959005956 12.828708282946822 3.202565326366762 -0.8708562948766163 0.8894116892813005
Ni 3.511284985481321 0.5876170929233844 8.073967577908276 -0.8727823082547357 -0.3755425268262693 0.005128579475816975
Ni 3.971913877373624 0.31442973447637124 12.661615245960594 -0.6504189086890282 -0.2016210248120334 -0.3081279448270371
Ni 4.3570497725646495 7.807079721813014 8.722732127205624 0.928804075035994 0.5448977496260616 0.37768297020803987
Ni 7.6661968803853515 1.8296527583419189 9.3905560856082 1.0436226002404867 0.9282412605539884 -0.04453150675347169
Ni 1.958916974998455 7.477922772379168 2.490949893473308 0.02687471290365694 -0.3352993630355064 2.3435949842944543
Ni 2.720198831076922 2.342060304105544 11.87668640139867 1.4311688363958515 0.36026554606254085 -0.8301475043033445
Ni 1.9792542457330986 3.173175520825279 2.456789078596721 -0.7594131139022599 -0.14883190603545982 -0.8363945136543208
Ni 3.552876294444627 1.2391235254094752 2.3177089014149495 -1.6551767135435174 2.4548119081906172 0.6793705587263719
Ni 6.252644307083433 6.525457474716562 6.9990904328684 -0.7084625909963218 1.5952774660847235 0.4407572729607054
Ni 2.395513461869001 8.958034536700861 0.9837551335196607 0.025225864446324298 1.6683155649183203 -2.040591762288492
Ni 2.7335106692808773 5.111923610955339 5.1233476565032445 -0.2865034245787259 -0.17202659898436826 0.4784316475830277
Ni 2.950391665008561 5.370199465469039 2.3986678904300502 2.441473024989866 -0.742699914912637 -0.023179523440256856
Ni 8.36691595323655 4.16872889070673 10.873594957571507 -1.1028628739590427 1.1805127605330379 -1.108129778784937
Ni 3.1622117299784516 7.07706150823463 10.864914666166413 0.5191525223411575 -0.6569726506471459 -1.97014944920653
Ni 6.890012875143919 4.037060498070984 12.963885649939776 1.528553739504929 0.761029052239128 0.7379570009110129
Ni 8.862690717322991 2.275416920152644 2.7863744765124654 0.839475980793122 0.6079352856035207 1.1279642970123605
Ni 0.4367499051042385 2.5251892884208105 0.34963267076962723 -1.5756236964095378 -1.2303479388876102 0.7448979510052204
Ni 1.8945748645509477 2.174750236447261 8.498230735553173 -0.5135824844525477 0.18301755077823317 -0.3672998272015029
Ni 0.6793443580850576 0.6831947815599331 12.314463460287024 -0.6303493916326628 -1.9726585887816284 1.0141459309376084
Ni 4.991799004927941 5.596622326950787 8.756605750632554 -1.1467814297188639 -0.9318186934926016 -1.4840456297902247
P 7.08310468987887 1.3496501370607255 3.8215593309695004 -0.6385440116283131 -1.515777670786183 -1.6768781097763508
P 3.161912377327344 4.721988718576238 11.787950791794009 2.8920287720982323 0.43760612892623346 0.3641815932874954
P 2.2035068004943152 7.791765962754774 8.92609454430468 1.4745508029259122 0.5723956979360141 0.3054498837742417
P 2.759544995156918 1.8163315653676164 0.21001740072400019 -0.2958347292819808 -0.6066186236746263 1.550888141336071
P 4.013168414604434 8.587791435902455 2.808911053755718 0.38261563162296686 -0.31882141998514124 0.31447497009098746
P 0.9168554288592502 4.112151239647335 6.463856311980762 1.705463120502895 -1.8052895431739293 -0.40415093459158136
P 9.268930974417124 4.718639710791969 12.985929230785736 -0.2148976873162815 -1.052754644448742 -0.01673505336649376
P 0.9461040538265628 0.6282083769365827 2.3181888011337572 0.05406310039299077 0.9356545222989241 -0.036976320114033095
Ni 3.3808701320720886 2.750704737178888 6.32227092730003 -0.27096624817507525 0.17682222060079872 1.8065745805339404
Ni 6.922221349449061 3.454557658096371 2.108925394899735 -1.10352981811908 0.6507726924840211 1.2809097109955618
Ni 4.650939237789844 8.680525274353478 5.931428622197259 -0.1639109118557693 0.4751336935580463 2.4243242811247216
Ni 5.563412892218502 1.1075954543289355 7.271992470819825 0.12189728642814492 0.5937649076404097 2.0186921340019235
Ni 0.9090049055839451 7.824245725399983 4.682244041279454 2.6994567448623448 0.402502600354881 -0.08414526449035187
Ni 0.6504362467583802 6.213064273744759 6.397931374390521 0.7169973679402103 0.2329288337863795 1.4288795261410423
Ni 7.324523248227056 6.348371672045537 11.88544901478282 1.5720511485669313 0.6014733320282609 2.1327077036891464
Ni 8.54534884283756 4.710070741154005 7.6354645888409856 -0.17819030459291893 -1.1110852618688347 0.7545100201736876
Ni 8.976463434284693 4.848577470913497 4.862069856185152 0.7764484721179918 0.006067546350318582 -2.4175175426155335
Ni 3.7517774215651416 3.106934391997306 4.167300417274725 -0.5048882991126595 -0.09957933965723495 -1.4769887229434435
Ni 2.712396952607422 7.238103879760341 6.738373918771136 0.7168145625054428 -0.12017798974419303 1.115022649250028
Ni 2.5415694912986213 4.845649427794848 8.410028347858297 -0.05754617384558477 0.3749743130276252 -1.329703592569813
Ni 4.971826570236835 5.335081657585941 13.26005019531339 -1.4070002095694478 0.25089698822902595 1.4730032559331343
Ni 2.04052799150675 3.8764203816701994 13.44036900661638 1.177829814384236 2.5857674481662887 0.6054276886903186
Ni 7.194304844995113 6.3998883923471395 2.710440870127839 0.07438509977979448 -0.27023862598043136 0.19688016769293834
Ni 5.592524937538747 1.9158943861720394 5.357652847479478 -0.94975882291079 1.689871693822541 -2.9066748041461814
Ni 0.4994380921543746 8.876648034680898 7.950755897666326 2.0390110480649337 0.8882618919475733 2.656157567854077
Ni 8.168763207743803 0.6709531290836888 1.2783087874395014 0.2543736339237167 0.364620737707443 -1.4533147763652712
Ni 4.928991076817361 6.838121964028431 1.9695711229467925 -0.09643153805687263 0.08613709810940004 -0.16960821935086276
Ni 0.8272255032094018 6.3470807137376335 9.265715739848819 -1.585151433394315 -2.3420083565336247 -1.8840424330041168
Ni 6.875587819268656 9.283281192129609 5.664509895359854 0.7822828194115817 1.1997132447208887 -0.9048424220140738
Ni 5.314070843386305 5.623152455655226 11.059623920694383 -1.5673925667489974 -0.531452165644117 -0.39678112449007147
Ni 6.316135133429352 3.8938950926786235 7.251290364041644 -0.9197098260442096 -1.374495294963207 0.8421864377457496
Ni 6.7337320817248925 8.670936634747676 8.08664609815973 1.589709999299275 -1.5433249842768324 0.018175899578078376
P 5.933674702557604 9.280717985054498 11.9119155310489 -1.5191812971510932 1.9518925598788708 -2.1006110802649176
P 8.313191507133025 7.196830632988836 4.390693268641041 -1.6888244835049497 -1.201157176256267 0.8256251909529588
P 6.853388949234934 2.216276062018137 0.4611855007279568 1.4215223144450229 -2.033252548314602 -1.082516706202523
P 2.145469805260768 -0.15636498635214957 6.077422910142589 -0.20275179598236695 0.8226535099191444 0.02009831341177184
P 1.1268007978515775 3.8137808394258683 9.604420167898938 -1.5385733285244598 1.3853764606520849 1.2030978449224055
P 7.623015260463036 1.898354191771185 7.178724474981981 0.2822395070960494 -0.3391891850082159 0.09157960928121002
P 3.8319384486696326 1.74324274464555 10.20008891166009 0.5303149667158802 -1.0739107097010665 -0.8975823980175509
P 7.002466569486677 5.952721014984345 0.5925723147762549 -2.577533747402587 -0.9857797210900895 -0.6452430209150436
Ni 3.460638258822001 0.898024276150493 4.631680572076224 -0.6782899240676835 -0.9908005713434485 0.48522887301051915
Ni 8.737411632834329 4.787182113125334 1.5849731270507263 0.8020062659824381 -0.15154030610555838 -0.8742151840465202
Ni 1.2771600216408747 2.7526505294110892 4.648260967039463 0.18496310454037823 0.9804999607483889 0.016949226259828875
Ni 5.239148487676202 4.878830798216092 3.9206590906417405 -1.1817232359013712 1.5245723862596774 -1.0040330108733224
Ni 1.1537051173699013 6.385734624811943 0.7180076239297141 -0.12529602769704873 -2.415079879708318 -0.33874772659542307
Ni 6.567553941278612 9.021001495907342 2.5440326023310185 -0.6555361753109356 -1.035277570709901 1.0878424892908105
Ni 5.630439821755634 7.720697772427687 13.319554018537366 -0.3819533154486196 -0.8075482788465899 0.6381349491153526
Ni 7.839494001065793 2.68005751151742 5.119390588646411 1.355296353437253 1.322005452594607 1.4218809833360222
Ni 7.348705329574367 6.264403253409767 9.581842429666157 0.8378435873960216 -0.7556461906606599 -0.888912895268011
Ni 1.3055985234961263 5.54453496565801 11.401887838861581 -1.367025211838407 -0.10455056761958122 0.7746499854566724
Ni 2.993451672916365 7.229413298107863 13.040216834064154 0.49125913836499907 -0.43877289554082494 1.3320234989522415
Ni 4.2094034321760185 3.1911086155807125 8.687818253316093 1.127644965999729 -0.2964610500120701 -0.09988632937469248
Ni 6.070347897329062 7.31810587576893 4.688884057271842 0.165329903690483 -0.1935595879601376 -1.0785489798040264
Ni 8.368796262076321 7.463834488236402 0.6228508999587858 0.4592072521357769 1.0408758907332847 0.07514100410921253
Ni 6.785548154677604 5.116479384114387 5.337471801409631 1.4973798850052857 -0.6785395781846443 -0.006594108277749934
Ni 0.14052455372336733 7.973594633991791 10.566381492940907 -0.06574516471660936 1.5999794995460832 1.7751574996752397
Ni 0.5321208533161158 2.683415874072037 11.493347557591328 -0.5793726434744796 0.9138397404166777 -0.9835793710046609
Ni 8.94165433382305 8.403081495398524 2.74546419483043 0.274150816550644 -0.47403120452248676 -0.18190400599908027
Ni 0.557258992192903 1.457519993933393 6.327938982653352 -0.6456986203952235 -0.5772268007760705 1.17330287304816
Ni 2.3880764194430384 0.07183434601851757 10.818623520580713 0.6362161348260849 -0.3272988613285331 -1.2750784490257652
Ni 8.730414264614682 8.188024679888528 6.317862024035432 -2.008070906842651 0.4588889495644097 -1.6051877832199
Ni 3.5479089113903046 7.358331388261556 4.547120931954516 -0.47402246277173854 -0.7353589011665336 -2.0121782441428055
Ni 5.026439719523335 0.4160272178312932 0.9777577902501206 1.9490635750705076 -0.7778168132204282 -0.7689837883098305
Ni 4.9082047771060555 2.915994174442192 0.48603177076991366 -1.5856018906681726 -0.4236085290955608 -2.1826979195643443
P 8.262750585421342 6.782199146893333 7.768314488971574 1.0674276730798842 1.0499997074114238 0.41376840307668744
P 4.615232079374879 5.183029220363815 6.298461165812534 -0.47240755287613484 -0.46993389452466156 0.07357545939430556
P 0.8944348507683021 7.922760811925528 13.038574136391201 -0.5434093380059931 1.5025961390989024 -1.5464679007811883
P 6.040917789817015 7.613772747360078 10.500566006163728 -1.2771402166508006 0.7614252592362822 -1.064699989736076
P 0.6321701221785891 0.877556974108024 9.826827026470665 -1.8849227787265406 0.20115411247794387 0.519265393769938
P 4.668133305687856 3.646807543500082 2.3306474842820544 -1.5022662665633095 0.9588145053551551 1.1805058185545023
P 6.302093623138322 4.1548557662819485 9.604242427262342 1.049268228562038 -0.8910008881452913 0.07976101937972715
P 0.9658893931107265 5.3305165296565455 2.9589849570494278 -0.14837502100369931 -0.32375613828259725 0.4192083431453361
