# total energy = -381159.1163370352 ev
CRYSTAL
PRIMVEC
9.32703448337753 0.00000000000000 0.00000000000000
0.00000000000000 9.32703448337753 0.00000000000000
0.00000000000000 0.00000000000000 13.65105775752445
PRIMCOORD
 96 1
Ni 8.115928468649667 4.426116279832228 12.374561053898026 1.9207451877417887 -0.5156900177138538 1.6190164615728764
Ni 8.890137628206114 8.766862212134487 8.916461317907178 2.067985580920413 -0.1316700495441926 0.46114354992654133
Ni 7.131142849333127 0.6724288273827304 9.578756322216456 1.2725235438143956 -1.6169377246669765 -0.77320965346572
Ni 0.42484455980777885 4.419633990797668 2.000193758573033 0.711150165130814 -1.1700565981967204 0.3590116190507817
Ni 2.288583802444676 2.710911928322204 7.875664057814748 -1.2382407113721254 0.19675958295467405 -0.4207366068644045
Ni 3.013508911269303 8.864814729315711 3.029811635015357 -0.018458206705187566 -1.3730541916413064 0.3062034741108146
Ni 8.85757695048 1.194308124168854 4.272889890310559 0.2600873964790424 2.3064610555566345 1.693464296269806
Ni 9.026396276416026 2.1862289249407008 0.7539601674787071 -0.08842872235705415 2.5713875252955325 1.1451395232400667
Ni 8.871371634626929 6.084453701495184 3.662373918483814 -1.4010913002841805 -1.8111568005879841 -2.245136388505224
Ni 5.212926263109095 6.13132205027024 2.445491572515901 -0.07596761377556593 -0.08822483387636419 -0.09875581531467509
Ni 7.3866103265368706 4.443352639739951 2.4596341550527407 -1.116263720745981 -0.01183890161645703 -0.7885941063415902
Ni 6.959450796745814 7.125136239062254 7.27249219301795 -0.013897583917698646 -0.17009415784834578 0.5148019586819457
Ni 0.5863850679559334 5.273132271336555 5.816114916568141 1.075165408043774 0.08122114886502141 -1.328301570015964
Ni 0.4742899682378703 2.9140547415203617 6.459503089076041 -1.254741537240626 -0.3761354232152619 -0.3140245128171301
Ni 4.0715770412974095 1.2039056427538357 1.9412627559729452 0.45777386212336 -0.7640009903832584 -2.4148747056760476
Ni 3.1757060426520374 7.539890812859116 8.169598091041992 -0.12605167491615066 0.7485005807548142 0.2024131816960256
Ni 2.4880237829137393 2.9507752766700923 0.8588659889408867 -0.4162132650727542 -1.3898774338462323 1.4352838870054894
Ni 6.659456056447121 2.772535645806145 8.718439046694595 0.4150164165511756 -2.282424583432721 0.7099641152425128
Ni 4.489745309751321 6.9030875267661775 13.376821805207591 1.009778655107848 -0.6029146924604778 -1.1156682532538271
Ni 5.658749189098935 3.990366551191057 10.39578589753933 -0.6923921677970204 0.7181433086191955 -0.3414486704663539
Ni 7.215627128577797 2.4162149436661444 6.574512887101011 0.0704957920277173 1.2404719146954895 -1.7508590321391913
Ni 2.7665849977427643 4.865251722026702 2.426379545953718 0.5388782829048591 -0.24275276185533676 0.1222220167574153
Ni 6.295981518782649 2.560830614861619 4.031799104211665 0.9986990002549188 -1.036191340773422 0.5921322571329931
Ni 4.27832941687884 3.7135401647943027 8.071515928080077 1.1995592356415277 0.7576912461151467 -0.09483102633897217
P 2.3934663063204007 9.170732136574037 9.647666319115935 0.6635371912385412 -0.5668757965590495 -2.429395525000042
Ni 9.03817632109322 4.827757043006656 8.079323588728753 0.991093934214151 -0.32760096594998417 0.028339213264325386
P 1.4385178706320014 6.45758171995213 4.134918798551373 1.9784499986524249 0.28270770498171954 1.084600842425061
Ni 8.504418113063332 8.81837542413143 3.127047835940675 -0.5126396609233043 -0.39248738221072405 1.013423965169919
P 1.1549480382323882 2.487930512567918 3.2114658932398124 -1.2879797304684657 -0.5169130914876775 -1.6478542117401749
P 0.5883866495772522 0.7913168063869376 6.977888478707711 -0.9331114441620961 0.21404433817705076 -0.12663608666471096
P 0.4451746970863842 8.616668974258918 13.545849124014797 1.840018976235315 -1.392524384550776 -0.7241224090207659
Ni 2.771780156004995 4.455543073938757 10.068665342565511 -1.0192004626423803 0.25164697902117306 -0.7510279751623583
Ni 0.09192911824810274 2.2198249035054283 8.88445000251795 -1.004114257733219 0.10681056729835153 -0.7893695510550341
Ni 1.0908153484458627 6.909206061452036 9.36870777261371 0.0822750440508325 -0.19439699625976845 0.21555460417399008
Ni 7.979800398923904 7.430130269896952 5.110068658441144 0.15340744122128416 1.5459775914083311 1.5420774850229764
Ni 4.680455185851538 6.223557095252636 6.848394728680196 -0.5034147998909265 -0.44881948114354964 -0.661823550981544
Ni 8.407864651069424 9.439145537777737 11.945003543515911 -2.228907842461503 -2.028621477300493 1.220042443196544
Ni 5.092598189965412 8.877667382969847 9.420471881840912 -1.4659409497697142 0.4200035853531218 -0.6066517909054069
Ni 6.638880618159006 0.007890671256457349 4.998525719170342 2.709033589917502 4.43453383157693 2.2733426757361106
Ni 3.560707376131998 2.585603218711679 3.415317561066209 0.5530918554010796 0.7090557444956305 -0.24215395192907324
Ni 2.914660998768198 8.562805349547284 0.24303547280926094 -0.6056364622670151 4.607468029977233 -1.126339359814428
Ni 5.567950507442182 1.6528437982940978 10.588893754230604 -3.0214293088819577 0.08510300041793085 1.887074534962221
Ni 8.3954223869369 3.684710300901029 4.427597412923866 0.6747271464170895 -0.08785228102829386 0.4261773182640015
Ni 5.164565588800902 8.76984686320076 7.080544619428688 0.19761241787327258 0.3524205960968253 -0.5399769152856765
Ni 3.835687009681496 3.2097217377729597 11.802813834015241 -0.4110368630781373 -1.7334588343848727 -0.5214806562537019
Ni 1.2374176780073245 1.4089138628684132 13.08706441806621 1.3232557800619404 -0.6771010459659048 0.43462416347977406
Ni 0.9335895264953881 7.60615006653036 2.5233294069173655 0.6198263806141519 -0.14256458496950933 -2.2423086892484414
Ni 2.161372377779402 5.458553718828721 7.52915912686895 0.5895374998226234 -0.5738812813426052 0.5638946024435385
Ni 5.725931819193807 7.8686034926360975 4.062650136498881 -2.385892973731717 -2.9943244822453656 -2.2678644262303584
Ni 5.002237878934018 4.291060819083407 4.259020589886974 -1.420463019942573 0.9037759284227725 -0.07313760052593857
Ni 9.049779152113354 5.994951477645344 0.5081237861844412 -0.35575865933112283 0.5085356660572597 -0.2141672369081602
Ni 8.168514289623552 4.885053016444502 10.182911256458208 -0.6481105722708258 0.3659294292165375 -0.4881162218606432
Ni 4.436282747526718 2.4101990063606893 5.819896096387724 0.02226498204578746 2.145388127370292 -2.5047779556960994
Ni 7.596673799394946 2.336869860476212 11.042846123562205 1.984846131986756 1.5038634358471004 0.7373785026997237
Ni 3.4748800039075056 6.20284175144579 4.420662762712074 0.858694976923734 0.0472087964753187 0.02938308114780746
Ni 6.2803494088230485 5.7184608644935455 11.840681594418571 -0.6599543589832891 -0.6159170182574166 0.09094917478606272
P 3.838447811917798 5.396864712102706 11.735364450731321 0.5436741616316056 0.2116331576323968 0.4448707809084468
Ni 6.083604941348212 3.4446790659306625 12.809060959905194 0.2461990685327244 -1.6888388816826527 -0.1804266501226054
P 4.384349818973581 1.4925027467932013 7.515603214807325 2.485990390675951 0.2675081144231457 4.431431281392206
Ni 0.5061548491841598 1.305159930177123 10.991845898467275 1.119015572459505 1.6760443010211459 -2.4606025467304655
P 3.305874137279837 1.191071643168865 12.534237087833217 -2.7529506030154267 1.3169015557091384 -1.209025266150434
P 5.101654740544631 4.020269024061272 1.9538486564380322 0.17832734439141545 -0.3384181111701462 0.9267777886345846
P 3.4507509654436106 4.516448609759875 5.9239307728199355 1.5239717765612013 0.9457378746768551 1.8445333191659006
Ni 9.302830927360333 6.610190659784465 11.683803670858008 -0.17305966823457292 0.3096497807882022 0.17063126129873837
Ni 3.204088208885371 7.046845110780099 1.6100606906660009 -0.030001688568412843 -2.179700013278285 2.8083997851226665
Ni 7.574857865507412 0.30528316890674406 7.265543552254284 0.2833561371989959 -0.6925225227272978 -0.8604991200120083
Ni 6.42566460761218 4.775292473482339 8.069140332372015 1.9279388772767505 0.7417216101597678 -2.3068271806468017
Ni 0.8764026793621529 8.37908142234906 5.477937162097244 0.27555103933228026 -0.0692179537565582 -0.39502686080312616
Ni 1.9169294554517022 8.84998474433017 11.564603236195302 -0.6962362241334591 -0.923255634413939 2.2048148060680415
Ni 6.485516188525522 0.9755238739765136 2.4607263508023043 0.30928494124961575 -0.36552216647578983 -0.30092757042385593
Ni 1.4803216396289776 4.319592217870054 12.981596176418732 -0.8521731166448163 -0.050011813141752584 -1.1003172247190534
Ni 5.351740518794502 6.195063004604318 9.243363620271774 -1.1640186195327564 1.8008636461920924 1.2334337769017856
Ni 3.5451871905873817 8.377868907853388 5.3243218352334996 -1.5888029141039735 -2.9221492456326965 1.615619520076185
Ni 6.673194778386556 5.791771356308858 4.321338238743823 0.013860045811543872 -1.0312586793584948 1.05786188376832
Ni 3.3342469764785885 1.9436980447023315 9.756438196412393 0.08561310728512997 -1.0349993773478496 0.11006121302516529
Ni 4.521597132849195 0.5814809131726647 4.394712154394295 1.568091649698551 2.749791231450838 -1.5513450263678314
Ni 5.055840346677352 0.8761126085866495 13.358925091251454 3.8218353202568114 1.1822850219421122 2.7858542957219825
Ni 1.210033504474276 0.6318683520955483 2.046839191221578 -0.3575512324551713 0.9045338896347197 -0.6718680797017397
Ni 1.9382044213334741 6.6377427199399905 13.336237079630493 -0.9049588929872802 -0.6040516342783985 -0.9491188753339461
Ni 2.766594324777347 0.47557057008599274 7.059494435080344 -2.133346622824726 -1.938440548139023 -0.1667668932473257
Ni 6.47437038219991 5.471098580341647 0.4562962531220812 0.3919824175498475 0.2753728618832032 0.47712758405962347
Ni 1.9734233039154871 0.8850618982681753 4.723498517744475 0.40709639037315043 1.5548833785383933 -0.31414715443792346
Ni 4.144150697380736 4.316812761564588 0.06586938362571286 -0.5039094801391579 2.186068121588158 1.2710194484650432
Ni 4.452950158324932 8.838102102272574 11.82039622690596 -1.597385513566662 -0.43161674411201795 -0.9407957001802314
Ni 3.300492438325965 7.131627855131397 10.610816949015831 0.2687013634002985 -0.5831971594268924 -0.4589257163396161
Ni 2.10258407880842 3.524425211607625 4.727347784916507 -1.7041035211512072 1.3056311250016417 1.4684590882058774
Ni 9.37469572881542 7.081970723016291 7.138084028469126 -0.11843452469052507 0.15943436414165446 1.2227513574872748
Ni 6.122778486593036 7.7004743672591465 11.036634318530524 1.8790164405444352 0.8107670428942035 -0.43848930286213517
P 6.5558513563091445 7.97636805019769 13.11697435256409 -0.36962564712120216 -0.07928433685362475 1.5283745336145873
Ni 5.225499105725767 8.506031690046036 1.5988523932086902 0.14588953557768422 -0.9595814654281668 -0.498240968999471
P 6.96946803188699 1.8990961653307252 0.4489801271958813 -0.5582443461362966 0.4172759020093136 0.1560345944314861
Ni 7.436444672309035 7.375138074000885 1.9413578917256826 -1.1625294365817398 -1.9575597854669773 -0.8455358138339567
P 7.51491301424825 7.246257110145415 9.499744214161105 0.4260613615114275 -1.184747624549992 -0.6157678942740622
P 7.927242559053766 4.853574274729912 6.277193140320465 -2.1825089434819893 -0.30137931324929385 -0.2479304494015343
P 0.6186566076100024 3.5048104578814674 10.69851159356366 -0.15784156573323782 0.7655469947141396 0.341384907107954
Ni 8.160800832024155 0.10301429884892963 0.9339905889824184 -1.2279678686912077 -1.074647844977407 -0.65087039440415
