# total energy = -381165.84328922746 ev
CRYSTAL
PRIMVEC
9.33428289160196 0.00000000000000 0.00000000000000
0.00000000000000 9.33428289160196 0.00000000000000
0.00000000000000 0.00000000000000 13.66166653563827
PRIMCOORD
 96 1
Ni 2.9505574342438003 4.779470119442295 7.8876313168828975 -1.1765023538220643 1.823293435950518 -0.7313600644197855
Ni 6.118846347268523 7.577654722526883 12.606166305285592 0.002050711881441629 -1.0423915560468628 0.43781310273071694
Ni 7.913427540614311 6.010353979186954 7.39775135790645 -0.35393240475566146 0.014724707804684318 0.09328476489777482
Ni 2.9919456438345837 4.999236471856684 10.199854492877868 0.2264339700906552 1.3982075509784824 0.42235820162822746
Ni 8.91818840141068 6.497939571470256 4.502802912980893 0.7802452201562626 -0.609795478740711 0.8397924835922763
Ni 3.972577383793745 7.921837729347126 0.014758434412266007 -0.5787180406096162 1.454459688602992 0.8874957032055103
Ni 2.41858732761585 3.054802703686711 11.207894487194588 0.6792162925366948 -3.4032494411868224 -1.0225200139339163
Ni 8.382195218929407 5.697767519381778 12.685717729786596 0.18846648970794638 -1.3191371299078765 2.6075853153723285
Ni 3.6115459966597085 1.7193188717556922 2.0907953212560084 0.6912027754746096 0.03167084874071965 -0.0590294432593306
Ni 4.192334401925412 1.1215700747835269 13.344142164738681 -0.4277570040462955 0.41014623294306773 -0.02143811526911792
Ni 8.660972906714328 2.722128867463095 11.166075967170308 -0.47060623800133794 0.02997289221300645 -0.6390021822116543
Ni 6.872907042708721 5.14672747315212 4.8546456322030735 -0.19276691685551317 -0.9153870302991396 0.9517866519740963
Ni 0.8714589026671355 3.2566378989915163 9.133643248635627 1.8160457532491692 0.13836263107301977 1.0635285951357942
Ni 0.8948730174478122 5.763219509830712 8.944511078687631 -0.3815612222165235 0.18278769415561424 0.13405191951280787
Ni 6.528742704453924 0.9975454602520119 2.982560022557287 -0.059943727543483864 -2.6345245629653338 1.7481161792867315
Ni 5.8392939140176505 8.83315308581031 8.194240102032698 -0.17115113835795037 0.017966097560117446 -0.29377013344346825
Ni 0.07987625753974063 4.74691214130683 0.9631915661207717 -0.1614976744285864 0.24458287308554008 0.17665921266037318
Ni 5.109614365048162 3.070596310052883 11.262267617480397 -0.02689888127337303 -0.22337410021840887 0.66549045831017
Ni 0.6563522241877302 1.0270044565236653 3.061155616507525 -1.2528098674355521 -1.9884991553583107 0.6263477266724374
Ni 1.2528007555766758 1.1475847207306429 7.530707014146684 -0.22336870090177013 1.3208338008840093 1.4859019662726731
Ni 6.354462311745418 2.6234748333708553 1.6836777800370435 2.294741967347493 -0.13805564135556223 0.04979738313810133
Ni 8.466605137587381 0.8450008782907089 12.485560838515264 -0.1520964357193445 -1.3773258224334666 -0.3858171692794001
Ni 9.048924365219545 4.110827445194081 3.4629180797286927 -0.6404617974763164 -0.309571362141783 0.03596587657164774
Ni 7.570485993396138 3.847395318204662 9.380715178297631 -0.7768883878688878 0.8123343873813236 -0.18238917316561493
P 8.149006167960318 7.851130537725523 12.17408889206713 1.3456765709593017 0.5357703334034967 -0.20629786146241247
Ni 4.159459058177387 6.032401554977084 4.6607735134886825 -2.257625007890538 -1.0769438401004356 -0.13527062241125737
P 6.191252378345588 0.7210957425780397 5.675957967801069 -0.9538864719259184 -0.6418170259526301 0.5200755483760592
Ni 7.975416512173263 8.17340598299647 3.4106488967684965 -0.3586213255908985 1.004857820767463 -1.6569901126031723
P 2.0988508072453738 0.829527437821913 12.678203632195123 1.0195038528154121 0.8765677434390968 -2.1988017671047424
P 2.7912772338700687 0.26249776528891494 3.4113181648396873 0.16366100062849234 -0.03823076134642448 -0.0458463689101533
P 3.968712990746703 7.211984196879852 8.41591438183553 -0.5327464589755082 0.40068971551585836 -1.7991906293650435
Ni 2.7115531251387015 7.511362646632939 6.057788003696987 -0.5275096360566012 -1.370356333094169 2.313889229699905
Ni 4.362834410131376 2.4700378939812984 4.788892144422209 0.03635925535532448 -0.09513698761516519 -1.7997030502250875
Ni 8.306214157569693 3.0269865411741868 -0.1852248392004304 0.42166914598100286 -0.07058166687330426 1.1145711635349063
Ni 1.8212025676698553 3.3461630045813235 6.217943759790073 -0.020033521612107433 -1.1290919828589008 0.6202557548420866
Ni 1.7270663264152208 7.81504420072102 4.00845556629354 -0.32710242904701087 -0.2541473768455236 0.3284532866479504
Ni 3.6977107604694788 0.550002073990935 11.047042393610418 -1.987339587832571 -0.4442562872528994 0.7354190649805077
Ni 0.982843964964352 1.1326872055058144 0.7080632170411313 -0.00806220818284418 -0.6004207223940304 0.6050145124123001
Ni 4.700203390564322 3.696534640846466 9.07160573880652 1.1587134052697592 1.6687680790747066 -0.7956864944119973
Ni 6.899155045723895 2.4852621091014084 4.770421465771274 -0.1169769663083921 1.2899530521447524 0.28085882469843887
Ni 5.868202187608687 0.26674486392757224 11.607798494725744 0.08234652071871626 0.4142327443076157 -0.8345214650013241
Ni 6.387608349692389 1.9103543019507692 12.941941923657836 -0.07450311341489749 0.7005705898427547 1.2762763259886085
Ni 7.0758250148093165 1.3942991473643809 9.715015979999748 1.594966362602208 -1.002740260203828 1.7376150226450915
Ni 4.254771419055035 8.724259343571681 4.874878623431982 1.163207179375055 0.5097592540517156 -0.7478560051922798
Ni 1.5784552111931052 6.615084819635418 12.057212471244373 0.34597304069926865 -1.595184392150285 -2.031538136726656
Ni 8.189395609299812 5.997939383166265 10.670390084340573 0.2742315491899084 0.5156180268253377 -4.367930946845717
Ni 2.138876211558698 6.260867458888678 0.44947184907150883 0.5312428778467883 -0.03507756042942346 1.3308880997962176
Ni 7.094129543227793 8.091320300736356 10.220688611914095 1.758666701109068 0.18752546595091577 -0.64849083842838
Ni 0.9074602976988657 0.9023413770539433 10.556697587354398 0.939107256734215 1.3809845022319767 -0.14417563821037105
Ni 3.38579636902031 4.5491840303998465 12.543554737069062 0.13523179875352195 0.650952412594995 1.195161106573832
Ni 2.772543328446365 7.614469133583727 10.228653555361054 -2.6754616674993277 -0.5576247102744267 -0.11113233460215699
Ni 3.842550825471776 1.1566389749712969 6.603134137466028 0.919810613288132 0.5034312549511588 1.2908282556608544
Ni 9.30249015537147 8.934168693431298 5.222336096631215 -0.9353413619338795 -1.2228130639631458 -0.5412917774423581
Ni 4.849766602624115 3.514600136305655 0.5848749542415365 -2.4338877564434407 -0.8143280207725846 -1.762639826824203
Ni 5.922434370225388 6.845492254353257 3.8018776219375225 1.1499086624939356 2.6072824394199294 -1.0776334099682925
Ni 8.182488240085291 0.3640948987235028 7.059516156036872 -0.5905597704395507 1.551300032062509 -0.18176285243552567
P 3.3982763050200564 4.244261016709698 3.4089407230303115 0.6177509861423619 0.2951629000259368 0.5472006867276255
Ni 6.336773845986615 2.075543103287732 7.804418053269926 -0.26619428070772866 1.3175669572072792 -3.1341549561131634
P 2.9752839491752354 2.6797045524901333 8.187887189211883 -0.7404162610847829 -1.2224888478545075 -0.42843140440550087
Ni 3.541772233310339 7.4651019414611035 2.4675568416337046 0.37178537377668225 0.09786518517960564 -0.06965401285271229
P 0.7042846993951347 6.222606234009874 6.744805213484095 0.6112322111872377 0.07646795045075218 -0.06434674170718596
P 8.801808564428747 0.11794612962273786 8.962831475386738 0.5015746613583942 -0.19487959232314178 2.115159667503054
P 7.60443477965723 5.870106381284041 2.551056667726251 0.440384463002319 0.9093577933859243 0.829332721711533
Ni 1.0510309002509266 8.016758050350434 1.8385596663920163 1.3190234871481477 2.5770426666987807 -0.05146808597230491
Ni 1.0976463081662113 8.172071180567178 8.070902490709544 -0.22995740986288138 -0.9197676758653387 -0.8400431661505016
Ni 1.16560922066745 5.906351401094824 2.625458368449349 0.5564671996312158 -0.1288714037531329 0.1607988485893489
Ni 7.25407247767481 8.07454659468434 5.885691833145505 -1.4549523119686942 -1.0729827985701585 -1.1128055869940512
Ni 1.923104932149463 0.42811127648974323 5.52048802163459 1.59439840591388 0.7206113105437139 -1.478963330171311
Ni 1.9693936401694665 2.6869199530344896 3.8316325149714734 0.2105221839564052 0.6575534628512805 0.48954704076989886
Ni 0.7913931591881317 8.48760727371261 12.976902546166027 -0.23804507196702226 0.06573899406902226 0.627228586615494
Ni 6.849496661641133 4.815500450750464 0.8736487253937927 1.0867145463339543 0.43534947168157284 -0.9784623614930696
Ni 2.4556070928925857 3.94038344268445 1.4128762368383494 1.041136343483523 0.7476099506197447 1.2564202104946298
Ni 1.7515034785822643 5.177054557716951 4.698506417965404 0.338805576416552 0.3540414195296999 0.9484563020492826
Ni 1.4261570542956716 3.1606161326269726 13.26767758753395 -0.6058274952318986 -0.1655916419923019 -1.0814538121556472
Ni 6.132838437069287 7.582881920851384 1.4534915678197244 0.3018341413985254 0.38312008206321113 0.11759145996393941
Ni 5.5525167459397 4.586231798524749 2.886300231983324 -0.8101384081712694 -0.49796251852710366 0.25904224304397966
Ni 8.241378229780432 0.2835092356968656 1.2192328080506554 -1.169228188758154 -0.47282947090490185 0.300493825320547
Ni 4.712048595338951 1.5454211846388015 9.34841856007839 0.2919022269967941 -0.7044043617665482 0.12902952659755196
Ni 0.5638382812702355 8.036957438161544 10.367278854926829 -2.2798128568414864 -1.257308526636854 0.5605902206606539
Ni 4.842868567692317 7.656940119970301 10.3053496227773 2.7936038577604143 0.3211400408159889 1.007512999002123
Ni 5.867194085074676 5.442586898318893 10.72746828975931 -0.6662047107683752 -0.3145225354994712 1.4752210895200595
Ni 0.7248257219538802 4.484562791113199 11.226857082544988 -0.19249977923705555 1.569720700661542 0.03939752796101602
Ni 5.7448216385850115 5.951062615334755 8.515698797565443 0.4066222789502094 -1.091240973449398 0.8033833488356228
Ni 9.077533941763466 1.8963248750191166 5.340577189587979 1.1533256585952847 0.7856435083536987 -0.2776187204945864
Ni 8.87846169414447 4.474267077270477 5.848573124471913 0.905138613098254 -1.00846687827496 0.5307677379825827
Ni 8.774281764680614 2.8269155253039004 7.5933456517831095 -1.5834640183895632 -0.39900667138648055 -1.4298290345385052
Ni 5.265207523746576 6.885097615944076 6.5776002070791115 -0.47780635529420296 0.5608907826202083 -1.4746497903976217
Ni 8.784810835591395 7.060367442621148 0.829085926249147 -2.1354538989757157 -0.3141733796901686 0.09855886881252057
P 0.47652073354425845 2.827456913701795 1.8499260224629899 0.3116022765288827 0.5823263267861649 0.23159520257662047
Ni 4.7087535935379705 5.701622578146098 0.7660823181582788 -1.5264976283068483 1.5663111607593605 -0.17399015046864227
P 6.4263922944036445 4.23000756699271 6.823400807434333 2.480360703193999 0.286877520088693 1.4384237181860517
Ni 4.487195058840895 4.22578847120222 6.254679762872049 -0.7789033614163876 0.2562168577800426 -0.3456884195793143
P 4.259541237526142 6.449438638445062 12.245702442541074 -0.580625027824342 -0.6810386904574143 -1.3643438083515018
P 6.982192824821687 4.045328783331535 12.034452689682531 0.1766754106102893 -0.45578665649000216 -0.4056835691860239
P 5.410981017021105 0.30857178480630476 1.2473205981903994 0.12065004428460513 0.1557456024361576 -0.05338098672430161
Ni 3.189897777526902 9.430892548499754 8.668832372766524 -0.7675434563188782 -1.5885815421217866 -0.35397842750224845
