# total energy = -340889.60251897504 ev
CRYSTAL
PRIMVEC
9.10556715003101 0.00000000000000 0.00000000000000

0.00000000000000 9.10556715003101 0.00000000000000

0.00000000000000 0.00000000000000 13.32691792890266

PRIMCOORD
 96 1
Ni 6.227870950132713 1.8299184915489888 11.671261787963095 0.9030657897296255 0.07300801692660974 -0.07211224458521776
Ni 4.674889174571777 0.3070770534508016 5.920202945380944 -0.20415356142590005 -0.5882658321990515 -0.2566423753532355
Ni 2.8545315284159445 1.5729776007831946 4.8528374501426095 0.012530271256526808 -1.4851861711525711 -0.8085672070294074
Ni 3.5056433108239693 4.314618309023566 5.137406452424513 0.28683252578337054 0.40887687931234096 -0.2836353590023115
Ni 5.285444761378736 4.701777914044149 2.3268529917036793 -1.453112173436162 0.12206415102331235 0.5951872419092329
Ni 7.334197345626512 6.255533662803578 2.7479572400967838 -0.762366540103629 0.019144948359567027 -1.3391156299123326
Ni 5.003463561249914 4.334486656307249 11.858730844432104 1.5005839937648802 -0.2922866069194063 -0.76911465746074
Ni 5.7437643728255265 8.101405107808576 12.180003476899984 0.6955507680306601 0.1196506564858133 0.2543911174252135
Ni 1.9729214219294833 6.47879306108434 0.4117947166502821 -0.2230794517961255 -0.5780793785843529 -0.08987625343685811
Ni 2.5507424952236843 1.465513698564118 0.4701349952393217 0.25420162712222677 -1.1105923813928165 -0.4593761736134733
Ni 0.4281200877982725 0.3251661729346533 4.638113610406178 0.6300773689181988 -0.389504131212684 0.9447433719740698
Ni 8.611826773864546 2.2863350394841873 1.3292825783920903 0.4052271983748957 0.7455373843614322 -0.4135388035643846
Ni 6.856683198857081 0.8717697201851431 4.847093658453082 0.23987441186627723 -0.14999455888499327 -0.4135454884326039
Ni 0.6376756076821759 7.155045314092845 2.4513397515060946 0.16420324628520752 1.1757773027305816 0.23350733199766882
Ni 7.343011534522297 4.241345811043825 3.879865726192555 1.3696068565226542 -1.9077397766210562 0.1011140311342065
Ni 7.672086727387695 3.90800010723615 12.577158262861584 -0.6043995045361203 -0.1403351814183583 0.7105667818235181
Ni 7.885084151613135 9.18469441868839 7.012210836702611 -0.19820197182815544 -0.3703779519061944 -0.3878267435102611
Ni 6.751559427367567 0.7831570734112584 0.5353326763670146 0.26053682531163513 -1.0442329801309758 -0.12437428721372772
Ni 2.078582421874422 6.289333527660147 9.491724123190577 -0.7704457175673376 0.7878644272644173 -1.5251609117732958
Ni 0.21421757020894727 4.939114518970452 1.5449898193689617 -0.36331693129435494 -1.4555408374823127 -0.02211534384180062
Ni 6.488581545653523 2.115587446329457 7.093704751163762 0.17857339896395052 0.8548473210428698 -0.007566499493348259
Ni 3.1752295996035294 3.770405883678069 0.16827907392988753 0.2163238782398468 1.6080419648392432 0.9217836778541028
Ni 6.030899323899612 5.909977393593787 4.964250436787411 0.03252599765216333 -1.3603614266649862 -0.6945282403034168
Ni 5.1790826327716335 2.755717914885914 9.728702879332165 0.37109246147471575 -0.7528915107336582 -1.0356961463045582
P 0.1670543751628594 5.507848236357634 12.770532279556745 -0.3942105355494178 1.1292840442650487 -1.2042612691028873
P 3.9663030530003214 5.861508460234005 12.875667888283411 0.8600844010720929 1.979957179325571 1.7506068069190692
P 2.1516728085133416 8.44424791804012 1.5969379898951481 1.0216820914136533 0.7201027463384115 -0.6728993491797315
P 6.397252708231278 7.829603931631706 5.8531959880821836 0.03241209778211837 1.3446620136518586 -0.07453113843935551
P 4.650085609951817 0.8068005887901817 12.812619120977418 -0.1482438947424737 0.7801611450828886 0.14615847296835474
P 4.094026841885848 6.047107233232771 8.285465039977398 -1.2888557053155156 0.8557050410574746 -0.16357666844480215
P 4.7665276012734195 1.285505743728588 3.8016762220106197 0.3968279185676069 -1.3641589460342054 0.4627283779151579
P -0.010205519539666245 5.5744372481292075 3.7118133808819915 1.4843186809459534 -0.021928424641975138 1.0144837738930013
Ni 1.6235134978613064 1.2755169366845 2.6947297374013224 -0.7693475994071524 -1.074633446799704 0.028739276916221475
Ni 1.9869713118739025 6.158832540827084 4.540320730941454 -0.038036385947431264 0.9121384414548549 0.7307766811124898
Ni 5.965776308421655 5.577314607314195 9.433378381261313 -0.26725640342365586 0.7636808880396784 0.13377218348885994
Ni 8.534101653601706 1.9489919917454694 10.501571572543682 -0.5219622238758107 2.4036937493585637 -0.5688756005978978
Ni 2.1271697276057377 5.462511618059992 7.03369360102268 1.5405255671548244 0.5041768748679317 -0.041578594772734845
Ni 0.6835740394662548 0.17920666493591308 9.04456611582277 -0.7648905920770632 -0.681887925831587 1.1532266711235752
Ni 1.3579860573757536 1.2731221725526902 11.546521893396939 1.5538099429685563 -0.9599121092947082 -1.051549568397047
Ni 4.178253337016034 7.160891088133232 1.6084519794186207 0.03350121708123908 -1.0008397007470053 -0.7791285900533163
Ni 5.4860677199953205 8.038904495638457 7.877008424204383 0.1668558534167062 0.395984339620389 1.3636269847901352
Ni 5.5143314000908985 3.014106590811243 4.865058031668472 -0.2174068268913804 0.22801622697611054 0.371144911979206
Ni 0.4163775485420683 7.658710649404318 6.662752832015707 1.4768573395719018 -1.1019429332479345 0.48846974854532
Ni 5.281920906933831 4.492204183026163 7.305802545365541 0.2855387466726115 -0.0016285367423584858 -0.5069564944955979
Ni 8.62061364605921 7.204515859827147 9.360893514830627 -0.9187554325507402 -0.6236349557269646 -0.7455435550090193
Ni 4.656841940696315 0.3021445677846371 10.313528865351085 -0.3684928190683396 0.4271836480413288 -0.43441950366813575
Ni 8.206556195999212 7.448490423126414 4.678747203327091 -0.33528136531337743 -0.03514312356003625 0.0024875423085441027
Ni 7.199425847851172 6.246528256999929 7.187139706242614 0.9636322384587725 -0.5681801171927698 0.20563734506027811
Ni 2.658179080741638 5.069606400236474 2.4432640240973424 -0.3520544710066582 -0.28664277837006763 -0.4010352717807351
Ni 2.750218152393089 5.110144384703457 11.380561096835715 -1.8242527145399936 -0.618934979148134 0.4532155533287162
Ni 1.3277009413970509 3.358178652593335 4.023436843956415 -1.028951371381557 0.7370105778373436 -0.43484630679290914
Ni 3.6740507732491365 2.6975515526273592 2.547947086142066 0.3635200484440965 0.696588208156239 0.1515264221484874
Ni 1.0474589045730787 3.682974228949415 8.278774269315596 0.14898411534260791 -1.1947085924174456 -0.04200771189035346
Ni 4.017703978947337 2.5277145161767396 6.844078362402085 -1.223395933049809 0.9238472452513509 -0.028608150654995893
Ni 4.304001217853642 6.858859429379905 6.1823440254839115 -1.8121415330987565 -0.16283901894782923 -0.33421769993555345
Ni 0.8206346767957268 7.123722163471457 11.422101604233923 0.8522278811421515 -0.584482196786903 0.35570338061315515
P 0.19897758265225618 5.691990118629824 7.972148851990033 -0.07782909246433695 0.7175591539809514 0.6629054711918132
P 8.565743499069534 1.9134711747181334 8.088626355023095 0.2574880111829823 -0.3461360486396942 0.7707267391428662
P 1.7917024266774868 3.0964573391309624 10.338156692527152 -0.10228542573448836 0.5815963905986758 0.20550544746810415
P 4.168428430178686 6.055675571818448 3.6923957591668426 -0.37755415793965946 0.5084140528777308 0.7973723667548526
P 6.852485532451134 3.875538760734624 10.52883819304826 -0.1285073355454948 -0.11881350529649862 1.9617082604177118
P 6.218647010720077 7.787281256024667 9.95643402158681 1.4740435242721903 -0.22428709895098145 1.2859102495339467
P 2.324687687861305 8.479586623726634 5.658169310969062 -0.11415826591267436 -0.23100667706300215 -0.010809689020994287
P 7.121300082638524 4.139181348842669 1.5744954988089461 0.47452048545407954 -0.13469160997933577 -1.5388975446330981
Ni 5.319672587886236 2.8035585641198595 0.5390950966683977 -0.13693592592882226 0.1996119648018046 -1.0771958082102417
Ni 1.288838381265631 1.042004669915459 7.016928430986605 0.7029362618614539 0.6887579134785429 -1.1977535498913565
Ni 7.027412580877729 0.7704648235126673 9.17956798444425 -1.5399465547229025 -1.093879953734142 0.2549145940288513
Ni 2.7185216735230155 1.4278621788491643 9.107722328819849 0.8856285680897844 0.5376115003772935 0.2701254974413348
Ni 6.286119262494637 2.284240759064734 2.530101995854916 1.4296156329761185 -0.5636868573081066 1.306805604925717
Ni 4.1193676349612325 7.044421780110506 10.628149881095439 0.3274531275182102 -0.82919876723683 -0.5649729231093819
Ni 8.256026741733516 7.4088356786624185 0.3627840020515548 -0.37164627709565673 -0.4226937305907753 -0.029856678350116322
Ni 7.673279556670079 3.932029698657616 8.650835933625327 0.41145646711405914 -0.000893715458862977 -1.9895288821744057
Ni 3.2796795591320014 8.183136677569502 12.622150690725073 -0.289956673234649 0.6004631455961917 -0.023921543812603963
Ni -0.08726229118168943 4.836722417593268 10.55590540163464 0.7652613451529208 -0.4598711109720209 -0.5311186935640981
Ni 8.678925697390422 2.497256394424256 6.004616104635473 0.27357926031789015 0.2330026244471084 -1.0762614693214303
Ni 3.534580802880589 2.3739670166877453 11.670728201734487 0.4725826450014184 -0.20586128814562613 -0.8862883131609706
Ni 1.019222541178624 3.521168302629047 12.42704388462199 -0.11611847496283872 -0.49766684166355585 0.7725151985018566
Ni 2.758777385411724 8.34593511069735 7.820475600673001 0.7757007953186899 -0.6060439821180789 0.1956504090508953
Ni 5.527051877247317 8.012325345445483 3.699192154406321 0.9463233148666799 0.28616198207890714 0.1164159515985995
Ni 3.18879689449477 8.221389164709167 3.549664174684173 -1.240267511994167 0.658332249998834 0.9702458871205485
Ni 3.4929501503686744 4.2318487046199555 9.345381270819406 -0.4448301574784984 -0.31054863845338776 -0.9784723887953988
Ni 7.364955951091352 6.372776944024798 11.46201585735859 -0.18770364339999285 -0.20305852858950837 -0.15070495468845657
Ni 0.8760265727768578 8.800020633470027 -0.17510096475708056 0.5002420585898998 -0.09909931469702288 0.9844756575666852
Ni 4.604657935983763 0.4607180178054148 1.7665628666337105 -0.11132645289083408 -0.3142294297390846 -0.20390724974304886
Ni 6.190428858459705 6.105127906418669 0.3465988566359974 -0.9131694538225306 -1.658721750582298 -0.7560267139285302
Ni 8.312016873469249 8.744850002767995 11.170129621402458 -1.3817321790312784 0.030616182223960172 0.2687710402959694
Ni 0.1737196502369455 4.924536506137649 5.775072954539648 -0.7728427570446045 -0.0998405637384216 0.15680875359334928
Ni 7.986210579171605 9.14608681443412 2.630160340399465 -0.4175083297350939 -2.4880727271262764 -1.1320348675373084
P 8.441425192257379 1.7829519767509887 3.498928865687861 0.3614906767188935 2.3662168354590283 1.4749755491681567
P 1.6709079743102382 3.166342566171415 1.6472471583539365 0.07071767823053628 0.3817391425552845 -0.3015762597514484
P 4.833225879849486 1.0909926205965836 8.059799950884377 -0.14666215207765065 -1.0007345426277088 1.866698028188398
P 8.525979487801044 1.2386849180032453 12.607304063664555 -0.8484475881641129 1.0612338855643466 0.5927482934504372
P 6.390523694187904 7.77043595699863 1.5884215530416061 -0.400937055639974 2.353079269635806 -0.27243049142542763
P 1.98827340796078 2.982437428642293 6.101502980179606 -1.2347208711443252 1.9995032197782983 1.3498350732123656
P 7.12995037132757 4.175958734121677 6.0942531277014815 -0.8328556472631269 -0.08905658574904017 0.3147534205633547
P 2.354034930434775 8.52190019376663 10.406616898325671 0.20992851623646427 -0.015925927201637085 -0.24487880705940407
