# total energy = -381175.1607629868 ev
CRYSTAL
PRIMVEC
9.16054651953175 0.00000000000000 0.00000000000000

0.00000000000000 9.16054651953175 0.00000000000000

0.00000000000000 0.00000000000000 13.40738579356823

PRIMCOORD
 96 1
Ni 2.4009700604183615 1.6709477938135286 11.960420735820913 0.67746331440133 1.16412532031395 0.0073649250055034445
Ni 7.196607725306881 1.0674051918552465 12.283404198128041 -1.0933248525616202 0.13126792900976747 0.03706013807709101
Ni 4.242771205816073 6.99438866272467 0.06777155464533294 -0.8369313599943974 0.7323213998917905 0.07485921120273559
Ni 2.1888942498706463 8.61922226577766 11.608865529178836 -0.4793724142297422 0.3533189395413786 1.7389406834350503
Ni 4.469055023886551 3.418642645670716 6.66556260390044 1.0039383942769868 1.4487438691651373 -1.4621963951256174
Ni 0.8679965849197033 5.2543978304204435 8.86190621013312 0.15970407286327334 -0.05418702756536475 -0.13269874791902306
Ni 1.5501110257717634 2.6098305191669207 0.6300907815854397 -0.20881445723667907 0.1819906521756156 -0.5927380090377921
Ni 6.600714179622943 6.016940036874284 11.606934485990056 0.9956944091006399 1.3247395636963186 1.8080789329936087
Ni 7.953085650019864 5.1490607069489664 0.47611390470092624 -1.31330921037219 0.4854209344166673 0.0513151053342084
Ni 9.180608033035902 5.387189111561632 6.332053673737955 -0.08783762574027452 -0.4092674298825403 0.7079589118870259
Ni 1.6407912749450961 3.396190146355246 4.375473629656829 0.1864790269642724 0.0868050707107021 0.6172218531117692
Ni 9.032280465138681 3.192798533829182 11.32204149181987 -0.19070797744395543 -1.2559273300186111 0.8393389409946255
Ni 7.3206598451478015 6.912530019769532 2.4037429578246416 -3.0023519805355323 -2.39466917726245 -0.7120289681913414
Ni 2.9595618610135213 5.593054071625509 1.4479168857825946 0.750216020784024 -1.7317022567050822 0.6230070923349786
Ni 4.397676046054588 6.953413538514918 3.1024828744040156 0.22277503318182923 -0.2349990860518469 -2.6857059709351554
Ni 5.9580010811028705 6.356933717859055 9.387368894541254 -1.4574447393732448 0.12360989824387744 0.28646305825909374
Ni 2.0391559578222274 6.86945713042586 7.501848125221465 0.44481833040395646 0.6220843234103932 -0.5028131617511856
Ni 4.018530189600899 0.01958066800767743 4.303220735694839 -0.11660132813652824 0.050016184017126764 -0.5849424242527732
Ni 1.4829092571147708 2.0095765533792846 9.711600023273014 3.180744630947245 0.6203035773608866 0.6476223197804976
Ni 4.721189904000383 3.6396225073545536 2.028979506786097 -2.094961338178308 1.6116062851517339 0.8200955193839811
Ni 6.607309773057109 3.6321383409160637 12.052850649363586 -0.4103840599854868 -0.9393659097122403 0.7157673521878511
Ni 6.374824265049227 5.221328257785255 6.340205644011655 1.3446578998868002 -1.2783141823542437 -0.6292990959912774
Ni 0.7258340647741378 5.895058966538776 2.1018360807582424 -1.0143660173682143 -0.08631167601405135 0.8587191452934502
Ni 4.121375644441691 7.51550466784876 11.09866065091507 1.567312091220049 -1.6102659690737557 -0.45506880448737114
P 1.1417521867325846 6.517133353937775 4.400652307591755 -1.6253040943538009 -1.9077816856025853 -1.642507602716281
Ni 4.39151099830293 5.960593515744354 7.250767624002456 -1.0450837581670454 -0.24682230393902008 -0.4924421029295067
P 1.994296761923469 7.175914050907188 0.32303659347646135 -1.0432629029082228 0.2497435913508731 -0.34147078195354097
Ni 8.999100965946257 7.918696958697843 3.103515267987391 2.333406473797226 1.9667370810908709 1.405623126716263
P 2.873755022544321 0.04522470170156852 9.55547041797596 -0.19254348799079743 0.6285650460387303 -0.8139976340163595
P 6.550908288648562 8.22335841207765 11.398570528858347 -0.9180879741700705 -0.4509200724263202 0.8648872217773749
P 7.618707384000571 5.457303933985382 8.015444237775965 1.4234267305565873 0.0722395141917014 0.01950053192677287
Ni 7.75392620994739 7.087936162932577 5.236294758552948 0.33916835907260945 0.41941943071487764 -0.08835596013758977
Ni 7.652693011279393 0.3912240369300042 1.5222070852720273 -1.4204545353021407 -0.5009321426783888 -2.3212024755318668
Ni 4.665622029317542 0.039896011839549356 12.762638184945187 -0.09829764473133393 0.6167246017603766 1.282350042986514
Ni 3.1618542079672247 2.0112346122842624 7.662736634392197 -1.6553332937260394 -0.7475551861224093 1.5042611855061512
Ni 4.651093402669507 2.820587211027802 10.078881139982355 -1.1244102611125153 -0.5956682953107096 0.4468209626562821
Ni 6.684065991647205 8.786182385126398 9.394018535199395 1.4752635127222204 0.4344732397242066 -1.2174587416297677
Ni 1.5796721091218338 0.2642423743387419 0.4548211305642968 -0.4414311590992785 -1.4813002058346036 0.19203929466086925
Ni 4.586841329965015 7.918788564162207 8.451439529358938 -2.1197100058778977 2.1069218529742937 0.43369908056234346
Ni 1.372579635835488 7.667578899238446 9.792123974612377 -0.7893538673257502 -0.9769058156392273 -1.5425096874643887
Ni 8.659638596654794 8.280666790583394 11.858336522388978 0.664774663190068 -0.43201757909486244 -0.5074897412912485
Ni 2.2095696031774668 6.22888759977189 11.762795687276524 0.3160762531398363 0.2733514605778002 0.555929581960191
Ni 3.4773434272347847 3.8072513465931452 13.201770047627962 0.25582013656225616 -0.21337919378922607 -0.6627905428805037
Ni 2.174219054479629 4.062262638287987 11.094812305357161 0.18224621982984743 -0.5649089026406658 -0.5856772455362688
Ni 2.262279387372169 4.662654012272168 6.527399578328981 0.8080511866249375 -0.3129410499449643 0.4181999564854798
Ni 3.16496879375558 6.019395063319224 9.428033476226814 0.3987860707352422 -0.8829772465098664 -0.26704145919937233
Ni 8.974907962807881 7.5704587859203665 7.688250588326691 0.08414372182845509 0.043523891424563754 0.11040548373846149
Ni 4.857791972459089 0.41186824437894065 10.491547267955902 -0.5849313685091797 1.9817006443792387 -0.6522847582531734
Ni 6.924603619972628 3.487328422850396 2.318150476142052 2.980926720782221 1.1348779934130584 0.731071072424457
Ni 0.6141798284801603 2.7019123319450133 6.574687235088013 0.13595556429342395 0.6702156316999811 0.9560582827662568
Ni 0.97430655842272 0.6766263574820486 7.900208227825378 -0.8768819322454059 -0.8409348247268356 -0.7519620569408533
Ni 6.938921554052628 2.9938131441389975 6.626506614169103 1.5927518714493925 -0.8249299646581472 1.437526660293079
Ni 8.977921782585438 3.173991931995375 8.980428108090422 -1.25002664826346 -0.45627876563507225 -1.8375273201617128
Ni 8.342546281760873 2.9754462485341353 4.709425014212191 -0.08755146195842341 -1.1845869306024115 -0.7344592721703996
Ni 0.9449836492799946 4.8761130653317695 13.372365987857284 1.2501510896564665 -0.2441529846369731 -0.20295337047021178
Ni 8.211449701710407 6.831743160747446 9.767830205463202 -0.06358955182618725 1.2286831495906774 -0.16954445599246287
P 0.1370967379662692 1.2718869094072351 12.540491269645358 0.8124176911237492 -0.08016416835541677 -0.38156713575379453
Ni 5.96643794437074 2.1391250010820095 0.922817875067982 0.15339458570547776 -1.1703283638008684 -4.1539334027462
P 4.85178265399685 8.327303132490803 6.3140742692473495 0.5184961197040812 0.19411186091918184 -0.5923086348098574
Ni 4.69506402556394 4.945495044040612 10.994592263125025 -1.0772652279955963 0.2212740231562705 0.5267442186454864
P 4.817714581800101 8.64225187951862 1.8937661771671395 0.31686789580319624 1.3329575807307368 -0.8020422614266961
P 7.736896754122234 1.2634134039536205 8.160767146442067 1.3093031745365902 -0.005864943421209255 -0.40190816130399176
P 2.6496056117935103 1.7651823350041613 5.489935632500913 -0.4702773939070094 0.23791111749231927 0.19083601838138747
Ni 8.401384471521487 5.074136597646138 4.101815129636173 -0.16588988995901105 1.4648407747269998 -1.210707024728231
Ni 6.499865723905273 7.8549395555009145 0.19756550499255165 -0.542623351769588 -0.42520544126903553 -0.020106026721255697
Ni 7.956566657665674 0.47286282677066904 6.050351297891548 -1.4900915788739886 -0.31064916858699404 1.4253226620277195
Ni 8.74655386124279 7.552843055123284 0.5247225122560789 1.9898937217129924 -0.9871791725407771 1.3595895814959682
Ni 9.070159324652948 0.5240391354919279 10.082568259922983 -1.4353239962148054 -0.18676133409138157 -0.15601839648156998
Ni 5.476825058441223 5.169507046594878 0.19046699755903154 0.6903175446561789 -0.64003319457933 0.5628751600400888
Ni 5.507558691735145 1.4251428512872086 5.644415423384781 0.20818453696216405 -2.0130753020357783 -0.012298100641062692
Ni 5.701469138699596 4.200312073083635 8.480198148841184 -0.8534476124818657 -0.6789134165842953 -0.44763754502030656
Ni 6.749628022492092 8.805272963899732 3.9360999285481335 0.2955781331864845 -0.250569172575962 0.24853542997538486
Ni 3.600598579535744 1.5479857789985323 1.1254546585676914 0.9158562566260743 -0.5112792902406679 0.3758754846856559
Ni 2.7715233243147632 9.083268066603353 6.5145546601159445 0.45295021548247155 -0.4535279423628125 0.532293944819122
Ni 5.637528524573941 1.42566500243408 3.0110972631550847 -0.3884522929094019 -0.4577322102521472 0.06206771586502215
Ni 4.098391833432913 2.68637604518898 4.283968015249583 -2.9317883113843575 -1.2758898891834671 -1.1467868290355026
Ni 6.689140934372936 7.385681403752946 7.405917966885465 -0.7467398893099655 0.9435426667977493 -1.1153990587528404
Ni 5.560350920847774 1.5036212526073363 8.01736154014509 -0.3163125375203584 -0.2501719371375434 0.576643931689407
Ni 0.5648896762701439 1.1208386592184196 4.884981390336791 1.6758864352870428 -0.325687036756723 -0.5293400043971206
Ni 0.7357082177778691 8.123874877778993 5.624035955727855 0.12228860832929261 0.3648413383586814 0.4971893878065051
Ni 8.402969246054974 2.819955133323695 0.43577177424992714 -1.0674263875283037 -0.6229407578734174 -0.4542599354328306
Ni 3.609804928704266 4.911161315997208 4.274247759425982 0.15542267187910008 0.65220993915118 -0.22131233259337366
Ni 7.377354467042312 4.562034570215405 9.951337019839901 0.9701504991932646 -0.47683576385081755 0.9658536715901237
Ni 9.153630223780882 5.507952595231908 11.282824276471255 0.34460907047220657 0.19003357708475013 1.115648198649169
Ni 2.9735042126896314 7.130459419490068 5.095651057006528 0.7075441929471105 -0.5281413561033291 0.850371030439071
Ni 5.410200404209719 6.627719470517275 4.950020353980164 0.34584705664436566 0.9770989054866398 1.2570236484065835
Ni 6.952277630756812 2.208561943069469 9.98358214329582 0.08766921848321031 -0.4920001302960817 0.18758845797836726
Ni 6.075686621170535 3.4242122579040113 4.542649937901467 1.1983819275039749 1.3562029244119223 0.18185489792869972
P 2.8245170854489925 3.789773023992608 8.975319271342874 -0.17915575382998178 0.6520446172179093 -0.2577114400476981
Ni 1.9138305220266556 1.0061119756496935 2.7987383917224866 -0.5137066687352378 0.6458204906850684 0.35744504589461024
P 2.5460364737842465 3.4445395104462504 2.332992393478211 0.5162759721243109 0.1377098279803693 0.6063203757079171
Ni 0.3073665627424576 3.4895727567272994 2.4508162577970634 -0.7627622328801509 -0.006033093567957352 -0.19700332353436395
P 5.976606150915078 5.176542346257987 3.2787088864731126 -0.06956351002143503 1.1244907366414634 -0.1982413097065231
P 8.622181122276599 0.964321562807109 3.0809766595354193 1.5171840642154064 1.629325813918684 2.5274381162977764
P 4.671200802097273 2.1380532171489577 12.29016193323413 0.5912033175608206 1.047544561002712 -0.1655466476869794
Ni 2.273107153259923 7.710615146396373 2.435344094866085 -0.016987278586615903 1.0734929054373576 0.4535919628315285
