# total energy = -340860.07726719225 ev
CRYSTAL
PRIMVEC
9.37002618183510 0.00000000000000 0.00000000000000
0.00000000000000 9.37002618183510 0.00000000000000
0.00000000000000 0.00000000000000 13.71398045387966
PRIMCOORD
 96 1
Ni 1.0459385219257114 6.440037607695207 2.4454634078664053 -0.9631303591216898 0.3628965559274847 -1.415818836302342
Ni 8.32535242844581 4.464798647452723 7.270439295620303 0.26353550292864286 -0.09495495351134614 -0.3013001232719263
Ni 8.754583949336057 8.833629488645585 9.999315068805993 3.4819077144206747 1.0233599933367084 -0.4530654009040971
Ni 0.17346822828250485 6.606046358281611 12.156593020110314 1.4937703132771563 -1.0153479216655092 -0.7758074960998833
Ni 0.5159942136107917 4.543600566086331 5.152863081467287 0.3198480614774427 -1.4949867021827608 1.377458491356589
Ni 1.2811542845249366 1.8158079679058792 7.190102566728409 0.05806656512542903 0.6146787749749414 -1.7962454306937903
Ni 7.573895083549475 4.330282554241773 4.659187332778421 -0.271105601966417 0.33456839840675284 -0.7267176805517678
Ni 0.25470260566489916 6.095304981244659 8.765331369154458 0.7036623413942011 -0.29654795329892153 0.1394743760799598
Ni 4.794679782698244 3.0083592866044895 12.24641971133183 0.22373842553636303 0.5119848009481247 -0.3069058994944779
Ni 1.3164699125071095 1.4392359931179945 10.638140016207048 0.4484811239675244 0.10442355512341372 -1.1220936971641966
Ni 2.9390117242017144 3.465438524757412 4.75175663060922 1.0417012148480576 -0.14624254804172876 0.17950208142580698
Ni 6.688352666638046 1.5588443749679375 12.467942117939241 2.882978746080822 0.5938690373184418 -2.053232076760322
Ni 1.5584227237980786 8.739207736675207 12.113133902534269 -1.2231030843997388 -0.6840682213123573 0.6771362700792145
Ni 6.080996951547452 3.971963390095775 0.5314041583652308 -0.979444780010997 0.11283286223303149 -0.11641286627480595
Ni 7.563897265810823 7.539582048348966 0.7560683346893899 1.8167402082130324 0.297772569734642 1.2714182265653589
Ni 5.164093057624526 2.1988452606315985 9.174885835451297 1.0597956104559232 0.37363399694964683 -0.7019044781628299
Ni 6.200492893085433 7.721351182662091 6.9995059309236405 -0.21581968490991862 0.03412779492164445 0.436581544316461
Ni 6.895130400336797 5.454301502799335 2.4310363788390372 0.4089403855604247 1.768532023938922 -0.10040055000694967
Ni 3.289300776068401 5.620460173801687 6.240532888175223 2.056657043281471 -3.3087804261729596 2.324653924415577
Ni 5.092702829554436 1.0288757045854258 13.824789346472029 -1.5806761712317812 1.4831709404947553 1.4955122356689279
Ni 6.025189076710142 9.058650662960225 5.00914093771442 -0.28182016017044365 -0.9698597074257232 0.5001453851110355
Ni 6.978176940746983 2.182082284123213 7.280340602091187 0.716204953945902 1.5639544876017257 -0.09026603267610907
Ni 8.74209370468224 8.625099560085422 2.846857518522577 0.6894636812963157 -1.0686841711948045 -0.7807345010878554
Ni 6.585526001348484 0.4585447102188317 2.9839016447474807 0.1396399551235466 1.5582234986552195 -2.426431300165395
P 2.4580763998607815 8.033672889189495 2.2678264550178966 0.6929842928550646 -0.026196455889709723 0.6929840357447485
P 5.421806252642217 6.765552310826192 9.486152477051453 -0.18313453597207172 0.7759177964255024 0.08587330292505212
P 0.5564230647794519 4.83574860664249 -0.09864482268716349 1.0603365705610577 -0.4047345750091933 0.4331254674470605
P 2.35996285764764 7.27426976224782 5.77189853396297 -0.149786042418613 0.9174981631048715 -0.6978724741853014
P 5.682639666316863 5.919663843933484 6.05147199963134 -0.05887980505534376 0.6896354309874898 -0.16407032025176904
P 3.781030370357719 8.573377016582745 12.826287518158031 -0.8879420467143095 -0.7862813990480136 -0.24372926683599316
P 4.0440844801936215 5.203578347175303 0.49593767296450864 0.3123111296704492 -1.5455518167248221 0.5413372859683129
P 1.365568848730666 4.767178756397454 7.382194658682277 0.5297956038773004 -0.08712234484080479 -0.1699360350039267
Ni 3.1260468131250754 0.9566046940716296 8.471879957982136 -0.7235904477766957 0.8382788751612272 0.25937314402083717
Ni 8.615757644166552 2.0473881604183224 3.087675619665326 -0.8552422424884433 0.053276342825637285 -1.0239179227227075
Ni 8.183077953709457 3.00390852425598 13.53000739160815 1.334911619133314 0.8282477161774704 -0.5615392148374846
Ni 3.6627056820693467 3.5245727588236075 7.808863477462383 -0.5609751148038984 0.2988899711685369 0.20432222579328038
Ni 5.747630166631097 3.879031472258898 6.099073605700598 -1.2151953995168878 -0.9137515515782456 0.3658091015885893
Ni 2.094556871286525 6.457203495321459 0.274383408268708 -1.0372388082013297 0.3687830966152487 1.7626699087311903
Ni 5.163783846766631 4.787858403772528 10.454125823665075 -0.06983347585337005 -0.39382641273712177 1.434233077143472
Ni 5.555994394943277 7.030236805185548 11.71925455272758 -0.4098189315106361 -0.5105012744240627 0.06088783662430804
Ni 1.665915662034079 0.6808841830931694 2.66034715105504 -1.8157701309902792 -1.140709769603487 0.2098938063437869
Ni 2.474914336577142 4.394598412684233 2.104972592184637 0.009150556151016499 0.21870600531877818 -0.08705575326892749
Ni 3.123010924702092 0.3384181659312625 4.340035814301906 1.084934571615396 1.2533981358388544 -2.9245028334665375
Ni 5.808160534570826 3.4180917833952686 2.84392282638036 0.6027498847478394 -0.2759449323365893 0.09226480827369271
Ni 8.336690159902012 9.438708287418942 7.076098397427189 0.24360868209772885 -0.7904157329313612 -3.1418240426226474
Ni 3.121558570672579 9.178465185382098 10.567594964481874 0.12014173718961889 -0.9617928712571888 -1.318558117475955
Ni 9.078027876721736 4.203702873050164 1.9191893387344565 0.4240684994511148 0.6313179261935192 0.3464322397238743
Ni 2.7032806101726616 1.0224572367775753 -0.03680358811047435 0.09375990476198046 -1.5231572510797058 -0.7852311034066283
Ni 6.830627141374398 8.795708993436284 10.908017378973867 -0.5676124176147579 0.439730631468404 0.6445177127132448
Ni 3.391134218602297 5.851703045378243 8.98972006671431 -0.26877412561976294 -0.27529624300899685 0.38906344413083965
Ni 0.5962128801751261 8.0518694796754 5.291662213561403 -1.1089440471561158 1.3943262136462051 -0.7579997784945011
Ni 0.9752510458053848 8.569563416002023 0.9001362324015411 1.279288630452371 -1.3996429978734282 -0.6916943703990475
Ni 8.815320457847717 2.1647758461070086 8.746748733597482 -0.6706848580269159 -0.7464655526026563 0.9630627391085479
Ni 6.813339443410188 0.21960061427545494 8.598761354010843 -1.248854225221914 -0.19454714868438752 1.8961847247936052
Ni 4.391403233819303 6.977952060123059 1.884506187507072 -0.8574608474063168 -3.192120991104986 0.1381569428201169
Ni 0.8640091601680402 1.9258870333170135 0.9488744226242185 -0.5287499362216055 1.9170420278585885 0.40416430432802003
P 1.2454357454248992 2.9010256388104363 3.6367010489202554 -0.04826449143334269 0.9011096944445192 -2.6982431841702175
P 8.17841168076302 7.2288345061890364 7.566921910202611 0.8596231451649583 -0.32568909363925197 0.37901351609400535
P 3.5112111017520826 1.980411214592753 6.326958259959879 -0.20457213702055735 -0.03533929873124236 -0.13785329553676903
P 0.6460398674186388 1.9240692482736221 12.542133983782394 0.0206151051471903 -0.022267810259264876 0.672210550642823
P 8.9625797864144 6.00925066248948 3.867369537903204 -0.9022060128324914 -0.39909845976933844 -0.2397926507857483
P 1.8855490714005227 7.088883797899907 10.178255392270666 -0.07524590511819298 0.16604981257564308 0.6073650149223476
P 6.102257540534332 7.749048979508815 2.881512559671971 0.3680256496239339 -1.052625060849413 -0.042336298874365796
P 8.268354560306898 8.204263582488363 12.337713748624456 -0.15886486479142964 0.6273108619166552 1.1626605628429654
Ni 0.6278385919197346 1.2105323985865883 4.754664149676046 1.4599348527849503 -0.9611740067262673 1.9054021296268153
Ni 4.302556647317058 9.207793366752275 1.9626484563105018 -0.5638922884506934 1.4880367532274887 1.4263107369726016
Ni 7.844576394546823 7.16483722863047 5.286478715179939 -1.3184187636846132 -0.4017922045514177 0.16226977670792053
Ni 4.413825706029794 8.366524322676021 8.253498384088873 0.7104189433917443 -0.7301220782476263 1.9453971819625144
Ni 7.949070924463827 5.526506923131152 -0.0331614590054941 -1.0428746663308686 -0.9211555573518007 -0.5617834696378067
Ni 5.043275942420989 5.287777400783104 4.1362049537791705 -0.47477862421147266 -0.2050488195466598 -0.8213962404732758
Ni 5.699243352383302 4.948704270034661 8.239002953871728 -0.7749117237584913 0.7415102654799101 -2.0607217002691476
Ni 2.8600973652561428 4.141523380534989 10.867739385223755 -0.4595538368419182 -0.2943735713554221 -0.09383909473934808
Ni 4.285774930756679 7.486885022142615 4.848084245867359 0.8318632014428706 -0.7547421907891518 -0.520299234351091
Ni 3.2516145315090226 2.072106288998044 2.049197512438316 0.5756291172716473 1.8978711113570925 -0.5465154877351427
Ni 7.667473533180135 6.862569559997701 9.860296678103552 -1.193532055610841 -1.3049721512614043 -0.5547684717725543
Ni 9.079705111375173 3.368383795481916 10.988971592578952 -0.40060949709722615 -0.3600842832896702 0.5884164988443028
Ni 6.376799302242387 1.9737397560829872 4.964103907760504 0.6986720872684613 0.4477735563775385 -0.5718143715112475
Ni 3.3452773113736542 5.993284138190828 12.35773655717715 1.5068364024324954 -0.010957527452768226 -2.7533028441485228
Ni 5.631188853568094 8.238464177376908 13.99497993966083 -1.244228039303812 -0.3840009420062677 -1.0017033342988813
Ni 2.2566395809802433 7.638201571965938 7.862993180643655 -1.8794692118111376 0.23134580556997575 1.5236359904883372
Ni 2.1964371639504052 5.764561803607427 4.256024161214042 0.7575284952850373 0.6177967517786328 -1.046414818273643
Ni 5.058549084795874 0.3632468608177473 11.603919839734806 -1.9930291820181805 1.11614622133151 -0.8083203811259241
Ni 1.332792497793643 3.3525859316512063 9.01952049739473 1.14624175516531 1.3616014697196743 0.3627114364998721
Ni 5.208825561733546 0.785491153322136 6.954551357198495 -0.49764730127953005 0.17650340380879925 -0.4253339964270997
Ni 3.1694581435685367 9.102652305041488 6.284650718578848 -0.026339923446109477 0.869660217685986 3.3828117421577617
Ni 7.375419192883945 4.316180665116495 9.51599413584626 1.196548473839662 -1.09620783053637 1.1055185664143348
Ni 2.733030442712698 3.3324965959139345 13.353617589219825 -0.7048098247350829 1.3858300032497357 0.5398686718425864
Ni 8.633185892520714 0.2952420231403224 0.39187978625895803 -2.5592262073426504 1.6585016641516923 -1.5348678546484145
P 0.5642929496142162 0.21466729558810713 8.323371604950072 2.3254044294283562 -0.4042792326393295 1.8916310439846518
P 7.0897271002396245 1.864691393531508 10.114568262572595 0.575980329963479 0.12279948652744012 0.8142642574141846
P 4.7182765907198325 1.762548740139716 3.5022627269250797 0.014622892119497397 -1.3562672019909547 0.7109758443364788
P 6.742951808121761 4.526650189058008 12.084238616365143 0.008362513032082373 -0.5274070490404659 -0.30145130413780985
P 3.624382275742181 2.1412570808548854 10.58770022926334 -1.4167791433330823 -0.8872599330456203 0.2626286748436574
P 8.623750276341875 2.593360835203474 5.682854239912191 -1.171593346556221 1.2790379478941456 1.179767397726581
P 8.140622365917675 0.20375496331216172 4.591714712577618 -0.8686608298871944 -0.3609260624646752 0.8122446558809947
P 6.959315078415299 1.6444301924232743 0.9489990439699768 0.06361526285780011 0.5913593835227106 1.6946827420579396
