# total energy = -340886.7570637486 ev
CRYSTAL
PRIMVEC
9.09795867886817 0.00000000000000 0.00000000000000
0.00000000000000 9.09795867886817 0.00000000000000
0.00000000000000 0.00000000000000 13.31578216228543
PRIMCOORD
 96 1
Ni 6.660287914184041 1.6272517649318137 11.218066725275174 1.0325177485765766 0.8263402147421123 -0.14618546955154824
Ni 4.409634932735905 0.5962001400997415 6.012661563486693 0.6548216657424142 -0.9285148259303493 -1.1926046587005654
Ni 2.641574063616716 1.430544803528749 4.590975442179773 -0.027283261195985273 0.17858059805280213 -1.3620560407585898
Ni 3.8797789258373765 4.890798665575454 5.00476333332067 0.25679972686670616 -0.8869909956549499 -0.15268239012980156
Ni 3.667405279843586 2.7307340572224716 2.406694797604298 0.45463557360469437 0.4790019182642009 0.07363150944322158
Ni 5.138062982536393 4.771988425116519 2.2782634659986196 1.1526864823493892 0.06897549872844895 1.0431186640208745
Ni 5.347798220556137 3.0030723478953973 0.6367925016783944 1.2201761405609308 -0.5289661659974697 -0.5189568613905837
Ni 5.863142983597401 8.224090516319269 12.030156872341013 1.5371846757070493 0.3170460732522733 0.4817265162842156
Ni 1.916375789094803 6.624241802483428 0.5213475960801507 0.8266325491715506 0.8948241185461234 -0.9809853850252396
Ni 0.6141440437108263 0.3323648014700744 0.4333257570866485 1.0125528754188755 0.5116564710744286 -0.6438409983611943
Ni 8.270699357874603 9.096357290498023 7.035033735880002 -1.673470112536066 1.1695894287523148 -0.6120482793306298
Ni 8.764154432689804 2.73754842816234 1.1830393906667318 -0.12658774992527877 0.5350257419279882 0.8395070911413736
Ni 6.903430855930348 1.0820475019911517 4.674664833320718 -0.4280359687392951 -0.9954676378018146 1.4196916889941873
Ni 1.0237113918891003 7.821787888028157 2.562409087253337 -0.24579771932924768 -0.8524852485685964 1.2446335022723467
Ni 8.141144428390323 4.018104287345734 3.433074620730599 0.5600418043563515 -0.007235855626806893 0.27032578637759896
Ni 7.634633783082852 4.109975472593787 12.507353895260959 -0.12630544279816958 -0.21470716857203023 -0.16766420825061448
Ni 8.430905309650496 7.278448706586391 8.883357704957286 0.9763468578119637 -1.3865247153239153 -0.8524520813378158
Ni 7.279604147319853 1.1141087078550986 0.26699051064828716 -2.01737470074208 -0.6707223961330707 0.12983248211482157
Ni 2.1276667780233804 6.6434748868183835 9.372260161323473 1.1859724980960284 1.2469248694096846 -0.902657241437297
Ni 0.46067058124802174 5.048202446123737 1.3074030250131103 -0.19129984539168343 -0.6814778348773619 0.6144625451990773
Ni 6.059968218461372 2.357654071733573 6.690434909573023 0.5098929514161026 -0.09913916679602282 0.3012906101902295
Ni 3.891387920923187 4.710040425477581 0.2900274514451374 -1.2500009372318475 1.0900081294835613 0.09459037108307582
Ni 6.580780854579888 5.635120848929948 4.322582026325976 -1.0348546242398693 -0.07396729551608552 1.017116326419842
Ni 5.656537443312391 2.947683976357455 9.068114497829619 -1.6569170932733917 0.5216511203932952 -0.00533529616998436
P 0.36874389845292876 5.89893435245914 12.418724312637574 -0.4494290897030905 -0.3599603561172962 -0.279765334523944
P 4.295555630713194 6.563531125204733 12.446114626591601 -0.17566342440600713 -0.11231709893887754 0.320570541465764
P 2.5099538975458526 8.608078954087075 1.3181495336301632 0.9396459028465044 1.4885206348424427 -1.1288857803853656
P 6.519569789581978 8.209779427549691 5.5798052610602555 0.8993592874123155 0.0022821111659573597 -0.02539530014465304
P 4.9754187778741406 1.5127903486507928 12.457286919667913 -0.869545803595309 -0.866820691354662 0.28797101026318794
P 4.340945345825348 6.422294416966392 8.108591932765691 0.001817512824712999 -0.26738290169919116 0.7905314325736192
P 4.7439303210062995 1.290863846199243 3.6323453868477555 -0.006755059335646431 -1.6040737242201148 -0.3171052086249829
P 0.6891357864959445 5.7319231277019105 3.7158355326968673 0.2802407314984658 0.9306125889996425 -0.9919511400081238
Ni 0.3029283566423783 0.3595858933954233 4.8274368431807675 0.8146560935359647 0.014904427915658202 -0.1266872516176205
Ni 2.5747313622879933 6.856949385794449 4.908569707974445 -1.8551036384825792 -0.9610487940023126 -0.8901449679028993
Ni 6.347891312098242 5.578677114202386 9.16910092773008 -0.7794792885245156 1.9556741384084901 -0.8353182498710064
Ni 8.587772310645438 2.4492705141427518 10.016969706515717 1.008692621132521 0.1972699469321893 -0.131788834510244
Ni 2.6241514730294693 5.568987788366659 6.996724052096826 0.3434693004408085 -0.02042227241009386 0.6791137055205595
Ni 0.8730601161626739 -0.05768014729195179 8.842065710367583 0.20758264171210702 1.4761214898471418 1.050313381997101
Ni 1.577149307300498 1.3513743683902508 11.300731686285506 -0.7803084692940304 -0.568778412898401 0.17202017122646504
Ni 4.104425717889755 6.992845592374976 1.4846567314847643 1.9139579896166263 1.5290818440942568 -1.512892635928904
Ni 5.984628023864508 8.095763811236699 7.633817696202604 -0.8977968280212021 -1.0316782833944167 1.0651687018423786
Ni 5.338700262024937 3.114394968483155 4.507685451418348 0.12416577074734746 0.8016887347420193 -0.34756481066642075
Ni 0.8267751619310496 7.675001425085784 6.842328056638959 1.1567915056566982 -1.5920304199023356 -0.5573295476315111
Ni 5.379859426420083 4.847956378852034 6.949480173036013 0.4930622530120089 -0.4698048251459651 -0.0843362974552354
Ni 1.3391285162072561 7.6822615959936815 11.571174872196384 0.18015565584940585 0.22139923588022517 -0.1369768064690867
Ni 4.866816446887212 0.4546668384132832 10.26249995258061 -0.6296315396300318 -0.03598593117630577 -1.0483428885342914
Ni 8.312404399781622 7.403709399643946 4.562652587476296 0.6036024625561217 -0.2676420688978487 0.5483180881615202
Ni 7.64325864777043 6.411376866728953 6.7627791464255615 -0.5889695431342953 -0.3346797271736365 -0.17597375655757436
Ni 2.860625611172407 5.587602211521493 2.659174974191175 -2.228389250953872 -0.812107358972182 0.3764532115659968
Ni 2.589624720403567 5.512171037339318 11.570562579587234 0.2650845925833177 0.0439784624634791 -0.1643747388660653
Ni 1.7203238807059849 3.685919625454577 3.50407508910808 -1.4163261149560642 0.06223098091576379 0.5942025093984605
Ni 1.4403615007839135 1.4947581948419553 2.3923136545540307 0.09707714206067153 -0.6598116627578378 0.006422358586576036
Ni 1.1545491335262805 3.6497461423345277 7.975088489278869 0.8770176864923218 0.34070562165274226 0.7111774188243236
Ni 3.57345976005042 3.1902537467162966 7.543151080664082 1.2246722286590717 -0.02805304948247427 -2.92814608664608
Ni 4.711159474376919 7.0009791673018675 5.9344309474644685 0.20202983021467788 0.17943883228803936 -0.32437063193814464
Ni 8.3883905494342 7.608659111476278 0.02020747569364724 0.08269850474149629 -0.8179072534834106 0.5152133351877513
P 0.6139966567826209 5.776776063260725 7.945180770199257 -0.5041570773735897 -0.4504243637368243 0.1297049553980218
P 9.073212083994651 1.8852425750010384 7.872277008897049 -0.6402319408536974 -1.7059498303313263 1.3716210587392053
P 1.8314099543719309 3.3157782805712563 10.50229029660817 0.1337295031763826 1.1038308942992667 -2.0728848179942427
P 4.508966443979541 6.510735671848183 3.68496979858392 0.6792054939034173 -0.269122252987801 -0.19350225235964097
P 7.021522357665317 3.952071304326288 10.238744273059796 1.635457380737719 0.03240284181073774 1.3318139540445966
P 7.133181602718729 8.250274440972062 9.986862742144272 -2.985517682587013 1.2796511559981123 2.035810538849765
P 2.315930833909492 8.70604577155103 5.7397410034677705 0.6165199419487382 0.6866964029638238 -0.49662143111817697
P 7.1528058992705255 4.504826872847845 1.434815385263294 -0.1325776489601265 -0.15173956660055804 -0.38917811533183294
Ni 2.793155150705031 1.762738563378437 -0.026434118512400184 0.01366926995697646 -1.0144961151881753 2.1909419047406913
Ni 2.1419960627100196 1.3034008330552358 7.024900429667952 -1.5830762960328413 1.0877846394696815 -0.5984797966175758
Ni 6.703939919216736 0.8559996243249686 8.69095771712289 2.054633842203855 0.9953192851494085 1.0348140008099211
Ni 2.8931417149629137 1.7718092280340427 9.222883509587266 -0.08817058359966107 -0.4732040806355012 1.3543692136372933
Ni 6.614725337859793 2.0276984096825603 2.6035682516484835 -0.586295595846558 0.8474106622591664 -1.5484818458874234
Ni 4.500641811923494 6.999259653139472 10.32243366420074 -0.14156776827387876 0.15655472860101424 -0.8458173496301175
Ni 7.59707741026606 6.465991911791743 11.27721528307406 -0.10568288145181154 -0.33269149309901414 -0.33076573683121097
Ni 7.738559763384743 4.012136026549267 8.01207896907502 0.6927246114357747 -0.641846593638985 -0.7619880737182877
Ni 3.5565193612653263 8.818805869586718 12.21591171126422 -0.8135584895964117 -0.6026149018318718 1.0961751775262218
Ni 0.5534206292901883 5.24907627253409 10.17510860211332 -1.1816756704928875 -1.8050848833622914 0.45541590341414473
Ni 9.16573832225695 2.6307292970475267 5.928904847452618 -0.40341791308029873 0.5813140834715665 -1.6947465054163395
Ni 3.5846047592511394 3.2222785607461186 11.770458375455483 0.05598525711636809 -0.7644607036284963 -0.7761944471256568
Ni 1.0592935077046217 3.7861791284683957 12.476541839103344 -0.015247927298005996 0.03580698239628027 0.05803545477717747
Ni 3.1892165794437397 8.443260337335865 7.9880175981475565 1.227884307838466 -0.32176944686987163 0.06875258408436546
Ni 6.304357580526452 7.85139264508868 3.238984232201107 -2.3854700272616856 0.39906452120760944 0.7823707511396978
Ni 3.444860116211915 8.445025341290917 3.3491987214397647 0.4767663440654628 1.2882625518162072 0.37916726806305023
Ni 3.4785680525700093 4.359214046555997 9.381474573723871 -0.13479393988515495 1.4508943398492367 1.2002076678588038
Ni 5.231926620702779 4.61226466514278 11.206508678757137 0.6162749158174676 1.1513029717383012 0.5953520496218715
Ni 8.072227392516487 9.059119346229823 2.382419624651351 1.6468260275859765 1.0486498782517488 0.6610725317481324
Ni 4.686294753711151 0.48726755321813037 1.249836602202799 0.4044887775469744 -0.06312212527146548 0.1064251589344748
Ni 6.229226638975807 6.223576806727932 0.067329442110142 0.3670398886718969 -0.6917946434223377 0.8651826415306066
Ni 8.567711312084144 9.033554082757153 11.414275118550728 -0.5728240437226845 0.9872632476141513 -0.47528281754140084
Ni 0.425638891923638 5.156267997557324 5.851301080773192 -0.06290229595117554 -0.8880117236099803 -1.1176222916564043
Ni 7.983331239708136 6.49895381555028 2.3943243033894257 0.058710883577647276 -1.0881551354352228 -0.9787672943279984
P 8.625829071181446 1.862151956248854 3.4692935936433043 0.8679959426096857 0.14707635679693382 -0.16742560987724714
P 2.069494431174891 3.464475314805181 1.078539329181521 0.0023772419829249385 0.17569144943046516 1.490450247764988
P 4.7002965118906666 1.197345930457043 8.004262912900867 -0.5476264614111342 0.0072638806512649095 0.8069790366066812
P 8.773061334091846 2.056402468848495 12.433518503005157 0.051889746890755796 -1.3490871393027475 -1.3969058014479234
P 6.649661498619599 8.243942261834347 1.097977117583429 -1.6993256401465897 -0.8028423887304883 -0.7901503950851165
P 2.466729496564124 3.3086272851657337 5.541908624594396 -0.5155259813321638 0.5808538560056964 1.5612039214397821
P 7.147237948649432 3.8780139218823235 5.58710273359813 0.4172792444434233 1.0410561250648909 0.3807934908125636
P 2.7113099157583602 8.821908273445857 10.197119293187852 -0.5605290284054153 -0.6145623040017352 -0.4244271683421142
