# total energy = -340862.68050899287 ev
CRYSTAL
PRIMVEC
9.33983832507217 0.00000000000000 0.00000000000000

0.00000000000000 9.33983832507217 0.00000000000000

0.00000000000000 0.00000000000000 13.66979747406914

PRIMCOORD
 96 1
Ni 5.034284773346418 4.540674333743295 1.0818054188819461 1.2446270745144437 -1.283895533096763 0.47969843011059327
Ni 7.298410947931669 4.2880317151763245 6.241028271500398 -0.10621561402682998 -1.1593016736730615 0.5923490011294895
Ni 8.86693400595454 1.7795660380280214 7.506440896190064 -1.0396790422117062 -1.4600873192024144 1.1277336690587934
Ni 5.029530795791867 4.831330093070622 7.055570489371575 0.41134950922254965 0.041405302419664176 0.21242171497196316
Ni 6.496380377078323 5.362794896187678 9.89235388869783 -1.4005953344843685 0.29825362313611864 0.08266482329008344
Ni 0.35851808843068106 3.656574606167289 8.608609029933367 0.007555957970386986 0.3052115425111905 0.5551983602211212
Ni 8.562175091209983 7.05427692180516 7.487467015242974 1.4007313458416004 -0.4498165549494963 -0.0961039795141248
Ni 3.065624374671191 7.220535378482079 3.902302942644607 0.9386876526982931 -0.5774317176980249 0.3937477369803864
Ni 1.255124793105506 1.5304818977484438 9.989532101392978 -0.017243874682112238 1.0421228757665084 0.4154887282019038
Ni 7.035055535150415 0.20577717932684791 7.076375912555301 -0.7752842766065616 0.6100081089721494 -0.7597674119178851
Ni 2.262052730543777 1.128149695160294 5.665857696346959 -0.05105825212839594 -0.3302756845686699 -2.5546678985480065
Ni 0.6023326920967471 7.692215878403307 12.00153495240543 -1.8820930225872294 -1.452868689966788 -0.8944811333844079
Ni 7.764861138559089 4.323308283395454 0.6803474251329045 -0.4904656959294262 -0.5193967771414797 1.1990252175149287
Ni 1.7155227686929482 2.7008383209421627 12.309078072865137 0.08963894061507144 -1.0345471203017795 -0.5146003841941009
Ni 4.231021343873818 0.41523799077062057 6.881854172031967 1.5963359892562248 -0.21778555038703784 0.18232361003500214
Ni 8.229303264011207 0.6509073216953832 3.29697776644476 0.6503682579567509 -0.09759933311272868 0.4232316053721163
Ni 1.6736989740185342 4.337177942862069 10.584974794978937 -1.1459579053763038 0.7561876649864268 -0.9743768785697864
Ni 8.675196471146357 6.425462986957102 0.06699465815086465 0.7166952633187592 -0.039191582597797016 0.6183037733220383
Ni 3.811513179158324 1.4694927554474335 12.988767973401107 -3.0954611390873916 -1.740045486463455 0.1367286950140226
Ni 3.115190895068046 3.620083859004954 5.177995927048013 -0.2616724815779751 -0.2621946726300323 -0.10626009411152022
Ni 4.1780831419500615 5.283387593302045 3.166266733289685 0.42243224939927243 -1.6914781190777126 1.4231495656358006
Ni 7.869243168322655 8.948909764296955 12.322187469516544 2.207734293707682 2.9486007549560056 -0.22453855284015525
Ni 3.819405342289159 1.6939384030179658 3.450462126655356 -0.47948631409978715 0.14275664637565738 0.2174711044704126
Ni 2.4780271450259455 5.824369691366227 1.6830939170875365 -0.8350765661738456 0.12451981165265652 -0.8848469527287536
P 1.1612500811196786 1.3447311991140654 3.4327042926190754 0.04456081732951035 3.4649047521047747 -1.2379869434901067
P 3.569648733671806 3.629115482374797 10.598562391337207 0.8243553231015995 -0.6178759417560004 1.147287937041637
P 0.8925532149721238 5.9289478577283115 8.551688321075899 1.0445345705317945 -0.05304751464428284 -0.040054959039356824
P 2.4408826092018847 2.61609797054445 7.282857315669208 -1.6190205753379345 1.292019447755478 -1.3902733837330703
P 4.136922475775399 5.647659955939718 5.284265538076363 0.30629192005956285 0.4980280816577164 -0.7905617715909224
P 4.695052516452852 6.29525630505536 8.695344369733148 0.24094707610516566 0.27445832048873375 0.3259803996274257
P 7.699837186231427 6.924546571642674 11.902661559108806 1.909162625110512 -2.8218746796806498 -1.083330717463386
P 6.34603700439542 8.627161684185547 1.8750042388991763 0.1549483033458428 -0.2824814479035264 1.00078493624967
Ni 3.917380243167811 2.783794762277166 8.697503740284448 1.4196322965111616 -1.2885356029719357 0.46400415930378797
Ni -0.048666160011277756 2.259605692981317 1.38375210839728 0.5566325215644865 1.3584613814287958 0.6424934831943645
Ni 4.684713315759557 3.285904454482727 12.532346900844564 3.167884487155125 1.8884994403342057 -2.684094146363345
Ni 3.968954828739967 0.9712590960221059 10.383318352188567 -2.521333546061935 2.238419124386048 0.6345968540551071
Ni 2.8313158581466213 7.480257594271741 8.149331834908885 -1.2821988621206306 -1.1406971711979967 -2.1642417697416856
Ni 4.880635098002786 6.894537672069451 1.7426942254742803 0.941006787749773 1.1508062346075407 -0.15909523563468086
Ni 9.141581282907605 -0.2697681455689829 5.8855036011566195 0.558823101457902 0.13160937150958624 0.11308457323252138
Ni 2.4493538422902486 7.659582484345155 13.287329905616305 1.6840000655331127 -1.415146749935982 2.3520408010689624
Ni 8.304432921081547 0.3172957793250549 10.05267314237487 -1.2127577366096725 0.3437076417038597 2.959355165259032
Ni 7.641042905866211 2.0614330097741447 13.121692548168022 0.6488291956044052 -1.6241064745012739 0.7955371133183267
Ni 0.6550168504262323 2.9118532814332387 5.977160101611592 0.6303848728562885 -0.7558107412629822 -1.9233378881696293
Ni 4.783155208539441 6.304017073122488 11.596581057283759 -2.364635349904521 0.7762913777148372 -1.4415069850970659
Ni 2.154607233908123 0.6691564312117605 7.879995189856641 -1.2613577570055632 -1.8494960624878145 2.1395861759765347
Ni 9.004425761515517 3.9384882771035357 12.272224006003643 0.2166684060634591 0.6584849735266143 -0.32291281644569547
Ni 1.5358429647745968 8.83153601984109 3.911708159535437 -0.8429320576625225 -2.03080202989158 0.4580479417203531
Ni 5.945498050708004 0.8197912068410335 11.342759751158075 2.060906048365812 1.7048319146767992 0.46333027316521497
Ni 5.890869338101785 2.4921209606051526 7.043048568531916 0.15085047912738536 -0.2928540493871021 0.3100501015504144
Ni 1.2647261465948536 8.481077277641887 9.922235766473918 -1.2017801545522464 0.3782444991384647 -2.5541318235388784
Ni 6.299365833786209 7.923750463034554 10.819056353439507 -0.21339976261451635 0.24929184852543518 -1.1284432935313082
Ni 9.278213773370311 5.084439703538827 2.5433340944457545 0.30445255285797895 -0.3711616241497543 -0.5972022154567327
Ni 6.231315773938557 5.292802150030899 12.697232401331856 2.332929534160808 -0.5367617507824884 1.2390904609669304
Ni 6.471676505503106 7.749795979825317 13.476998666302025 -2.1746902187685193 -0.7822064576476916 1.967114519034948
Ni 0.08291347808009004 4.904881317514795 6.616755945475313 0.6224887579376635 1.0758164113642117 2.4230695827820137
Ni 3.6179170165832333 9.02845716475296 1.6820002220548491 0.6870692129222102 -0.5111003414606423 0.3310608994741266
P 8.822635154203592 8.943894271277713 8.367501111326847 1.472175617825516 -0.3248557991046792 -3.914501477733981
P 3.960035283426419 6.017657639286504 13.62057252438466 -0.1631462657756029 0.046115306300823805 -0.7910672504724312
P 1.9139009283366628 8.187283332738275 6.216599925146908 0.09641174056253073 0.5046083059783955 -0.6237701957532483
P 5.14954771440871 1.6677401573588029 5.25376816497445 -0.8880574892462512 -0.5735722347426186 -1.1224451669663444
P 0.954372668873526 4.55389954438621 4.503364482786199 0.8115941667811895 -0.2353505558539947 -0.6649867792008741
P 1.7147755816509758 7.865311096514275 1.7830610054168479 -0.8302009832490993 0.5927580636424501 0.6732986415006791
P 2.4810158931938355 8.828650009891472 11.562146942454453 0.7835884255968827 1.3508768842133188 -0.6751518926593341
P 9.446125381377595 1.3644289175080668 11.90631156780884 -0.9457522728545583 -0.349300819520921 0.11828154405242855
Ni 2.9720858968542516 3.8922840983955576 0.008995198001547156 0.2790076304223131 0.21325218129305853 2.96571633159037
Ni 8.583236425955585 5.82539707354894 4.794858959568138 -0.9938804958203528 1.4141645885283711 -2.2110589872055404
Ni 8.033297423225756 3.219899819162476 4.032371394943585 0.3806086284952671 1.8049488720050593 -1.0928689959711244
Ni 0.8964087001087023 9.37841155569883 13.610388365002573 -0.36730214119434806 0.6319756143821762 -0.0632805052262007
Ni 5.189223346337453 7.474485574372503 6.462301176093955 -0.5615037336138587 -1.0186427903666972 -0.3495941823916237
Ni 4.464181060321355 8.684358852248545 12.2878897163224 0.30082626895930126 -0.9016043746927505 0.3835980501408942
Ni 8.794428843369129 7.841531868903497 2.273560344973957 0.8632800251912552 -1.200955601768422 0.5633675262954749
Ni 8.768473433498606 5.539355194205794 10.16204544759501 0.9375293707241337 0.500304536396719 0.6939764815650048
Ni 2.7899964147255383 4.7133305794671045 7.951830686055685 -0.7526979066656133 0.3105848910079618 1.438906057139109
Ni 6.614510648414185 7.499142746757597 3.987233825738023 1.2376233895031008 -1.3011525204049978 -0.7609483195998636
Ni 8.163121171768488 0.29696481991298157 1.0099577808934699 -1.5327096706548313 -0.5103742619278953 -1.1857750373732416
Ni 6.8549367588449055 2.237218101236214 1.7673682095678191 -0.42533373931678364 1.0506180577217132 0.9827705019501203
Ni 2.152122836993564 5.7604291602494255 6.069499344226164 -0.3481463942015037 2.2924428869006714 -1.6404756598879167
Ni 2.159809523687857 1.4091200424560508 1.3274384890114128 0.7955144876105075 0.6239815404331059 0.14235555428249677
Ni 6.280228505673687 2.637822433789802 9.439678091189174 -4.911117370207626 -0.2522725284203139 -0.6359209721831693
Ni 4.938196519748747 8.87156656561477 4.418420523919548 -1.0384881072273986 1.6045923157277462 -0.025452121524517455
Ni 2.160659448948101 3.424759826395302 2.5822111702233896 -0.6562285733922698 0.5675342560786548 0.8569142308742276
Ni 1.6080679322192692 5.4526161184708055 12.668361094030038 -0.2486706700016685 1.3564993726064187 -0.653377734207036
Ni 5.616987927866743 3.790190328948032 4.604178694424346 -0.3559882588434256 -0.2909272646780345 -0.32172111013043947
Ni 8.019063510076178 2.534458446370923 10.39612700605558 5.089636261784557 0.7425834439394308 1.7897953041930725
Ni 5.586530716068337 0.8629636741262081 0.4338401461643299 1.7030041174394412 -1.973129614880776 -0.12256037393344053
Ni 6.57489105551359 7.744771146968052 8.423383230195975 -0.8642313333609309 -0.44472705624173087 1.283575687863499
Ni 2.677638163288915 6.755187288741569 10.574517912326531 -1.3830442129744827 -2.109879135830405 0.5363609157996441
Ni 4.121773258499405 8.207392004005362 9.754616495396807 2.373618527239738 0.4088583673695797 0.01005635579473752
P 6.761790554225001 5.279240705219098 2.60698042066478 0.21945059679428655 -0.43190342211450133 0.4058332073900107
P 7.849293274301988 1.5709327362332333 5.162057493458936 -0.05567826739891056 -1.4555881457804805 2.7030154087478806
P 0.9032669431702078 4.22823807214247 0.5578367697634786 -1.757441056232083 -0.5502644132546137 1.4890682798157968
P 4.468935037875905 2.3549187400229417 1.4608365935661813 -0.7022947716227131 0.6515077708778327 -0.1709937868444797
P 7.056341026008609 6.38033288962196 6.1733760887525975 -1.2881285973415042 1.1358809807562762 -0.4388361446785926
P 6.837349843844477 3.42714148509159 11.89100077133502 -1.5475354228137541 1.3455379884989085 -0.8953920752344515
P 5.496251841722003 0.7288006368372201 8.82780475455024 -0.07917377941768945 -0.8285076547070763 -0.7440266041438606
P 7.435043438394376 4.012076860899808 8.451338299387576 1.4337623081546405 0.5403157866823339 -1.2319170831469428
