# total energy = -381173.72404845024 ev
CRYSTAL
PRIMVEC
9.23578589810031 0.00000000000000 0.00000000000000

0.00000000000000 9.23578589810031 0.00000000000000

0.00000000000000 0.00000000000000 13.51750622941005

PRIMCOORD
 96 1
Ni 4.707627850992513 5.013397015120792 9.055431330081658 1.0114437015150968 0.42943259197650563 -1.3930355198592397
Ni 4.33062307013903 -0.04978735110599892 13.386102426307422 -1.47645033394147 2.3580924065796807 -1.708272307816916
Ni 5.265284604249089 8.356973173467232 6.123227235539067 -0.4888443582759194 1.2892663104903732 0.8749366355935769
Ni 2.5317413410558447 5.036366414679406 12.417789382655037 0.69563047222866 -0.2671291338171722 0.5465319427953749
Ni 2.076952771266838 5.660391525486522 1.2945053011638397 -1.932202023428479 -0.4593077822693831 0.43113286249706395
Ni 8.61978669732727 4.349962805834944 7.6377289570833575 1.7037271116483947 -0.5377598530296996 -0.28305737501165446
Ni 6.541956526398965 3.66087158329062 2.0515792966358046 0.01601848691544338 0.49473655539063827 0.1295558314146672
Ni 4.422454489443934 4.228041196034678 1.2425484639475397 -0.5031031821877787 0.38648385632912147 -1.2305790810618096
Ni 6.988081929004225 5.582801688055113 8.460728915960766 -0.948799287210998 1.2516857811334379 -1.0438185183013764
Ni 5.49102568346567 2.524869916338672 13.330005186267588 0.4534371824212191 -0.5443328782615271 -0.4798290421511865
Ni 8.068216326985503 7.195859404625509 12.728314052948466 0.7758923425042057 0.11471825218120243 -0.9900685782734303
Ni 6.620257519345458 6.158357394405613 10.664906485297497 -1.1436963630356367 0.4102722169979709 1.1040124141824534
Ni 0.32778081268800596 1.0352300068859912 9.822171499087215 -0.9462196994092801 -0.9107263915986767 -0.001526206836539307
Ni 2.1728848795158613 1.3367784168533174 6.392590778766603 0.1908956679747293 -0.4498479224080639 0.265830983831039
Ni 2.8596856271544606 6.7671342226750255 8.288016025126067 -0.11301541055748278 0.16449918025907154 2.424470834004915
Ni 0.0014666428025363364 4.678645954806374 2.0561343862467045 0.9017709821776019 -0.8257154366739199 0.45197653871529253
Ni 3.670652280569499 1.7594172158889931 1.5901455788844245 1.4045427491678908 0.36153824212737734 -0.18180219031389336
Ni 6.153850330881446 8.06338601095448 0.4197322972097425 2.0830987824127676 -0.9019645862456467 -1.5260895942351524
Ni 7.790856440316935 4.134879823558708 10.225682985502912 -0.17745368353721053 0.0633442685846006 -0.8012426483435362
Ni 2.212829653577383 0.9180509731506024 11.456275724589725 -0.830642441661892 0.582250479242907 1.0988380690703656
Ni 7.281549026300144 0.9326111896379986 5.980009750587112 -0.6923865113700657 -1.7290236814316546 1.3251141734269178
Ni 0.27414675675041766 4.888861677907946 13.015114759974418 -0.2826917641421196 -0.24411570364113444 -0.4048600448434641
Ni 0.2691529673087842 6.68663511268191 8.87502687674096 -0.8447829948283321 0.5262397682052421 -2.907509898452967
Ni 3.0712774823566487 5.481078742040408 6.48979557831405 1.0718129466317732 0.8641698839953762 -2.9578323008566025
P 5.803740158598401 0.30731708184682355 3.952248622235067 0.38491162674599516 -0.6460189798491197 0.16728599897558932
Ni 1.9592149724838832 1.7638688646976992 3.521878546813981 -0.5704465446294434 -0.12637897634858236 0.8184006481800615
P 5.64580821953435 3.2182003646157678 9.948411762379083 -0.4444372929154539 0.03986032653004748 0.9630802226100446
Ni 8.934228264425204 0.37710637449849593 1.2465854259688787 -0.6219817363942579 -1.8266294423022862 0.7644691882689285
P 1.5758929140678373 4.818623526061039 7.8209050697757 -1.701053935691606 0.5613209281790913 1.7509143108571588
P 1.2606478335957165 3.2305670819494963 11.634003647173655 1.701142124530038 0.44917506471075547 0.46581498726028164
P 3.715464313805685 -0.16580175223811439 7.623373775043167 0.8858139446277131 2.218243677879438 1.8852891609270241
Ni 7.217461907869416 3.2242959833164853 5.9891744209457825 1.0363386649845636 0.3772569384142148 -0.6396002208069695
Ni 4.981459667443395 4.507008109451618 11.970927887912737 -1.0993360917527066 -2.0361784637121447 -0.5050520783840334
Ni 1.600256917298888 5.656069177680558 10.33766134819228 0.5601688168525192 -0.9373427086346244 0.39192482483903474
Ni 4.806653947521447 6.490143767442864 4.75176844259303 -0.021593152789743456 -0.0918302918394354 -0.044142241734853004
Ni 1.332308296472791 1.4068780319115717 0.2651714200029063 1.474246898532248 0.960533802039107 0.1536828063698579
Ni 9.097055170021651 1.8740056116765769 7.403646116032703 -0.21656504771637541 -0.5352867088988587 1.4620102472567402
Ni 7.620779442780998 5.682769834746885 0.9660862956694404 -0.7300945674438006 1.231659715720498 0.6185865946697798
Ni 1.1781999727755534 4.0664149426065554 5.701616379475195 -0.6102276811821232 -0.46479271664335436 1.4911102499464899
Ni 7.8761673947692525 8.285192645373325 10.134925688099363 0.029495181245639525 -1.0209542121086934 1.269647507818181
Ni 4.025842135103142 6.216746032929762 10.92661910347704 -0.9429834518601696 2.512327743018899 -0.40886556645843136
Ni 7.4834802494402854 5.677274542130329 5.9600576822853535 -0.09595845507519603 -0.49666076899654465 1.0608883292994695
Ni 2.432419699377786 9.256751144194546 2.084709907852797 -1.2175384458277676 -1.6974201955937607 -0.07542382545695397
Ni 1.601503748396762 8.829577574276973 8.346235648768058 -1.702946010507996 -0.5053618963149684 -1.0654834048693198
Ni -0.020159873484737502 8.756993532808881 6.271622302072268 1.9924064608325167 0.8640364437413055 -1.1121568976664589
Ni 4.349150056674848 1.7589000118780231 10.963251924711171 0.6935753894718442 0.2671252771624303 0.11435701218704176
Ni 3.020231293631093 2.7678634436354668 13.114481657003438 0.5507981742708965 0.8362240495147276 -0.9702697983799483
Ni 0.015531821165147083 0.15677746582527904 3.5644444369168116 0.835023344338407 -0.32340389714950113 0.9904935816259909
Ni 0.6769082973502072 6.404611154128701 6.39437513260445 -0.4058985134103074 -0.16452334862878762 -0.32122360166873065
Ni 3.0799406495403967 3.432821557596494 7.332895378067781 0.5325448844876635 -1.9386513785982487 2.432011365356334
Ni 7.520543458297832 7.839889227714071 7.34548005994899 -0.6800848111845771 -0.5932799975841911 1.3950607778193846
Ni 3.1136327965407276 3.8329712179408855 10.074070171158606 -0.4824237994615563 -1.1842388032343734 0.8552643539756303
Ni 9.17208669475594 9.479241226770744 12.395431392123678 -1.2751087880430685 -0.16283567651371958 -1.101668082319993
Ni 5.563831383795606 8.46096812281584 11.104374733418698 -0.7435144403941325 -0.5266467738356736 0.5748241048718488
Ni 3.576170190708374 7.035138258216583 0.5497961758684214 3.0551467557390612 -0.14746356493302346 -2.0479129785402534
Ni 8.627803359497305 4.2437697394397125 4.288469096087794 1.254073564639324 -1.2580245788672721 0.1581971493004437
P -0.09736365506510111 2.5425379747848433 2.7974613667418153 0.9974612711930756 -0.03532155811942949 0.021320101634014894
Ni 2.3121143521118013 3.5823581672681932 2.2370394191837337 -0.6563216473267084 -0.05054660259930005 -0.2975519690834037
P 9.204310351796552 7.4081808869146 1.315700506249108 -1.1931844424634355 -1.3623951692655634 0.3850468667722788
Ni 5.2097682951430055 4.235780784627408 6.090623064118955 -0.48172445940168646 1.012837753649146 -0.26421401705290626
P 3.020452952492937 7.992926200245728 11.999855292962007 1.1177421050637202 0.1812524884580104 -1.519372330115977
P 7.65555217673282 0.39507644314393014 8.635388710465334 0.9715563784018557 1.6789259934443153 -1.5589308091348892
P 3.588426078611181 6.616304602975902 2.610324949051189 -1.5113756850637454 -0.13416144850747863 1.8816140260682819
Ni 4.9563937444831705 2.323686791857255 3.5587136317595456 -0.195323878949412 0.6360680392839949 0.16457837023643915
Ni 6.741080070622411 1.2065076565902504 10.818344290937654 0.13966977992021753 0.28222356625644945 -0.38897242707893015
Ni 3.7167203806894693 0.44876037232543337 4.543504241054279 -0.19195187715338555 -0.2703206441712764 -0.11814604691582878
Ni 5.607627480581673 6.396141938449068 2.227360315549867 1.0374794634572262 -1.153868161362316 -0.7160257480555604
Ni 6.323234644474118 1.3172354938673798 1.6750760189572436 -0.4771424964579589 -1.0066079706893503 0.5773437859699089
Ni 0.7604589110080455 3.2209895719606414 9.420552425204514 0.48486557613382947 1.1709801384522545 -0.27455422263664975
Ni 7.393874654539734 1.8935115915188738 3.9960317889208588 -0.7993549444025201 0.568862230861459 -2.2665372227785032
Ni 2.675681064465976 1.4947565348469194 8.978151815056831 0.12513713352168127 2.4652729556229414 -0.7038492605940265
Ni 4.735667697015816 8.510656651012601 2.0215565273775877 -0.9250975727186843 1.842210584569995 3.4841731134160834
Ni 3.3884158989403566 8.867675191156458 9.897734081511341 1.7446531604387954 -2.2654208497858725 0.868444343001014
Ni 5.568587813539349 0.808207000585077 8.419919672338054 -0.7994811855677393 0.37334551917495057 0.8025215150559598
Ni 1.1301554144708053 8.07691643731289 10.666407300507899 0.1992666656472439 -0.34593730236532677 0.5465121453010331
Ni 7.130590105598277 7.663079342249615 5.020902014751403 -0.26046149198900953 1.6218616443311553 -1.104357456226698
Ni 7.169435821136489 4.327787683864606 12.638827599686156 0.552218708767507 -0.5419198979446602 -0.2133102882245036
Ni 7.32795885049879 8.451362905469255 2.6221125826083496 -0.9908386236702355 -1.1021709900983403 0.2874835291038081
Ni 2.705263286736277 8.04213446757516 6.2739478729644516 -1.5149302351842233 -1.237677639779804 -2.9213262355107683
Ni 2.0443319754320877 5.635362545669938 4.212906513663669 -0.697630019157192 1.407506459781905 -0.8811710465390631
Ni 1.6005801698057442 7.956472553258254 0.04105122121356113 -1.6664358313971044 0.6607837968631202 -0.05115723960010545
Ni 8.250041244199185 2.4786632794300494 0.8000767382483469 0.05783208051711975 1.889969082901197 -0.9864584923246689
Ni 5.347307618917383 7.722068306857925 8.649851951200674 -0.023843639386817 -1.3027514894610015 0.6928035443028263
Ni 6.772906588868887 5.218727007475879 3.8194934355621624 -1.7331094214652538 0.3548279199867373 -0.17326612781842418
Ni 3.9639254263613055 4.638220919877523 3.5667293703509895 1.8787007090762289 -0.49050426247684553 -0.14260058041376733
Ni 0.13161364353440685 2.0403051727752497 5.170148620745523 0.5456713945672925 -0.23723260336805593 -0.5391629040248134
Ni 3.140222624176131 3.1592483431510985 5.131989124100438 0.8449969106113512 -0.7243874897566944 -1.6646697406356168
Ni 8.552670241118003 2.469002647368003 11.527134521249797 0.2907128346743832 -0.16002468942748568 1.714626532169718
P 7.1250486340521695 0.7704307890552653 13.222892235595703 -0.07287123423842934 -0.014427745389555796 -1.0368485147414466
Ni 8.837640415376558 6.614097250143369 3.9397987828281464 0.11640772406848339 -0.3853026915368267 -1.4381792062754135
P 8.774486111322759 6.244434919088476 10.769627367418645 -0.4195896377441548 -0.19000452361902762 1.6475870741217176
Ni 6.766672433379516 2.802109737790408 8.191473431428381 0.45527449274027393 0.0682584180567663 0.29801528187306736
P 1.2134437318087945 7.789295592498114 4.5395845735139995 0.7382331373905351 0.6990171293127058 0.8514503795461786
P 5.6947394132864755 5.937308094431402 -0.2364250363574759 0.666973984834232 0.8247499874368571 1.1146706652272482
P 5.034177533418694 6.2756980543944305 7.041796336279231 0.8267343648567375 -0.4163356495832314 0.06022423489838015
Ni 5.002387958315859 1.8848853674787671 6.362379599475819 -0.5323952462836766 -0.3722821109074427 -0.37214584243989457
