# total energy = -340861.4502749812 ev
CRYSTAL
PRIMVEC
9.33973278112170 0.00000000000000 0.00000000000000

0.00000000000000 9.33973278112170 0.00000000000000

0.00000000000000 0.00000000000000 13.66964299982770

PRIMCOORD
 96 1
Ni 2.781437781666326 7.306426206934889 6.140772459256462 1.2847504248978907 0.8919624807276122 -0.09688688042673636
Ni 3.906530004122046 8.940178952699704 11.464223974353121 -4.07584360042131 2.1772016723364636 -2.292088845995362
Ni 6.818555928656937 0.05956321143827656 3.3860117561536804 0.3907336327444109 0.2415703115114614 0.5806777354391484
Ni -0.10075330067293133 5.494929007806346 2.6516509878649996 0.32418576962084816 1.7506913962130752 0.837892438356086
Ni 4.504506391417128 8.829437741857722 4.343050431914277 -0.48858673373915845 0.27756755554167684 -0.4507426663081915
Ni 0.8971849986347772 3.422134106415336 9.344281168226393 2.5423664554728345 -0.13209428156580474 -2.041603491382458
Ni 7.634064030696099 1.2822238857099562 10.543572897263383 3.071593074220542 2.1656131961679157 0.6903342568267272
Ni 4.27493576119904 4.660526626477876 7.829083253695766 0.8158549989400724 -0.3510118886747568 0.9649190755909963
Ni 8.14041764002375 9.002596386456721 8.722667785367603 -1.0130287866140295 0.8205940562869544 -0.7066939291316733
Ni 5.675848970294328 5.8081276047849215 6.011266791409959 -1.4418348007501298 -0.026474906362076986 0.08258948996745777
Ni 0.8594506105059277 3.254719397438149 13.28953090227908 0.05336530299501777 1.0241596064198686 -0.7949465309221794
Ni 6.112229302095783 3.4650034795927573 9.777785796323855 1.4940688183541817 0.7253331414994153 -0.7821342096488595
Ni 5.161537908690606 5.589176250667646 0.558200333593992 -0.14525061644210469 1.349205924268799 0.5004870847211703
Ni 8.287443712476685 0.8538579785541544 6.423050937097527 0.7562475716900846 0.05012956966653947 0.8541711209114516
Ni 1.1855856712727486 8.28492198464272 13.140244614508294 -0.2606278423635447 0.5098117045562058 -0.4302756567030912
Ni 0.5385523378743096 1.4773682611280496 11.56202965538013 3.055872578161492 -2.454500290487469 0.30931425182565436
Ni 2.5157410652934953 2.197573730508735 2.655054386467582 0.16829669962829077 0.6771977194447691 1.3422420913564561
Ni 4.854746368356849 7.14808971815998 11.939011155039148 3.2512537927114007 -2.802358978245225 1.2182156744004504
Ni 4.4845287031324865 1.8522184337807341 12.084456010742862 -0.8041618788728602 -0.2643680261322673 -0.0037139585164774743
Ni 4.562758304381743 9.094985022507059 8.340204796576158 -0.36800019570263715 -1.000778765602083 -0.29277845895416027
Ni 6.6183213989073195 2.690188593007631 3.062874749589464 0.59954011956129 -1.4901039201691628 0.4423930087919155
Ni 3.7683486585534283 7.493912001523901 2.4521561649466785 0.4911982032200766 0.3186697248986254 -1.6141583621496265
Ni 6.045113982781414 8.143116822779366 6.447875012689743 0.6846171518372919 1.0692678116124166 -0.8852493303734946
Ni 2.5661849617055332 6.748125004227538 11.405854380756255 -2.8576960602546335 0.12609178412546673 1.3706304126911621
P 4.275103876387971 0.5592930823220439 2.3351171723326867 0.0175223251544795 0.15020461801327034 -0.4569621648553421
P 6.190664377464842 0.483521698724269 9.58181859045327 -1.8099324412625797 -3.656007393883988 -0.7970139549741694
P 4.4324036548311385 6.88628767033072 7.651760022277638 -0.3724291780082683 -0.41998738740320574 -0.27320927857298105
P 1.3889209922848726 4.564439456271053 1.1718628019896142 0.030567588374211873 0.5910055997277177 0.8553471434974237
P 6.989192845421968 3.0476014846750767 11.731451472918497 -1.6275047015495454 -0.28413029636085907 2.072246927299928
P 8.140744530668893 1.186024638710513 1.6025879256300821 -1.286602904725597 0.8732294230944833 -0.4137581186640423
P 3.9337086263325682 6.3216821480384535 4.201692643248133 -0.1550622032158878 -0.42017739192682474 1.4549456271004748
P 2.7884145620069654 0.15255986408858288 9.618712402637465 0.7513352219901318 -0.602901065613723 0.6646371091709393
Ni 8.953665526745063 3.33396702955371 11.085328763460103 -2.421870163157274 2.285186205338258 0.9329597490755803
Ni 2.070422609280539 9.176418152078725 1.8563372559095452 1.866865407004198 -0.3941531999489212 0.652027905047361
Ni 4.216879982621512 8.93067110479238 13.757538370984827 0.039085653147552045 0.5910274541045886 1.4074061867586147
Ni 7.8565551435136465 5.146416881419529 9.762599390923748 -1.1189078432370472 -1.0264743705959742 0.1720718504000069
Ni 7.020256796443341 7.40391433704947 10.6746102812757 -0.12040167571922492 0.8474068056044245 0.6192951907010302
Ni 5.2578585722153885 3.693378624022892 13.100561958134387 0.9880659460211049 -0.7611321534758956 -1.3793626503578376
Ni 6.953197515525283 5.253291442916095 12.264294432182053 0.4498216971558188 0.3349396657032425 -0.292399992568819
Ni 1.3052369871280751 9.198973606593643 4.71740746667943 0.6337550748801022 -0.7847878452216226 1.710489370072893
Ni 8.376236551430445 2.8395962973037565 5.057248585210491 -0.24307209286796846 0.8416310794629117 -0.19702337813902196
Ni 3.258847559299679 4.8823079196088255 12.846771533030964 -1.496188950020978 -0.7332855635772726 0.14294382268579897
Ni 6.318870888490218 1.3809261810779283 5.4235267511742355 -1.4646096325528002 -0.16840494307138093 -0.5672293232437262
Ni 6.819069613956448 6.7341434243481055 8.14304770875725 -1.0941892574444447 -0.7899490777075879 -0.3685748372591846
Ni 8.116367828273889 0.8830437093258592 12.806677928417448 -0.45430698662068214 -0.6409395084436833 2.3035505667780583
Ni 8.97540842451348 8.616473156412937 2.2716620942706554 -1.0702188626717761 -1.7570021689224515 -1.1134234230837081
Ni 0.22272834202859418 6.700679162018105 6.6190050673423055 -0.6294225089430192 0.12176461750502257 2.340632045011388
Ni 4.742109191773035 3.534052123579833 4.210331896012646 0.3502883802451709 0.8092328656378643 0.14033646696993896
Ni 6.527511177686388 8.832902782696246 1.087924756102877 0.8241293231337226 -0.8374592074734093 -0.8338360088985252
Ni 4.39415744934932 2.3904578906089773 7.094135016219099 -1.0767762041743199 -0.30147650094879047 0.31884533124454123
Ni 6.049120728117605 1.7193420563961637 0.6088114112216892 -0.017975096421181946 -0.7805285557246364 -0.027395618404133463
Ni 5.968537514223313 0.1080523017923551 11.974812218495293 2.2779891733691864 -0.6428444387758799 0.29185131915420065
Ni 9.01009619182959 3.3286900805678186 2.344576453629874 1.0772516011488416 -1.9438766315529297 -0.6594578789628449
Ni 1.3434925323426112 8.029891243034292 8.36144708467087 0.10444746638281367 -0.5706144376658754 0.07579946362881786
Ni 4.637046538423837 1.8524052284351022 9.6923094964584 -2.164235856204414 -1.636365494374285 -0.5374400077964356
Ni 6.5333204914372285 1.843625879679813 7.846170294704066 1.5467193546703621 -1.358173932095364 1.506244277374451
P 8.08209100919739 7.837231236519292 12.696063737940436 0.19389228870920802 0.1778437198867776 -0.4909894296433802
P 0.9959704176239432 0.31718012503642606 6.889117609344392 0.30980636097072445 -0.9872581054078288 -0.3203111171567903
P 8.599465503132745 7.052675008708882 9.16866710789573 2.303816933065568 -0.32974346621428374 -0.3785324626925287
P 1.0062067646833015 3.009448676520443 4.177292591521333 0.6323877622189302 -0.1754605643665817 -0.46384989311411085
P 3.4496396192710015 6.94520270431834 13.475753031031294 -1.4066261140594807 -0.1651203587828382 1.2936757524119784
P 4.449084417466187 0.3569879338287587 6.222940625793064 -0.32676587164319854 1.2209387297585683 0.262603992253309
P 6.225062613066683 6.853430490627415 1.939790569668198 0.22714282323222174 -0.001806199970803341 -0.9289848235882323
P 1.213147222524725 4.372713423027891 6.253670214383119 -1.2408943469448888 0.8356504363994446 1.4892073764968223
Ni 8.610038080569964 4.464457617520662 7.534365185847075 0.42052937594960477 -0.1873074364028387 -0.7106642266333308
Ni 0.29801125760519726 1.169297177411872 3.293604440637905 -0.6190938733235015 1.5897444520816362 0.01415546556477562
Ni 7.834195823385814 6.239184288936893 0.5995081034608984 0.339477405672596 1.4808294368457724 -0.17367904698612668
Ni 3.9482505901751055 3.8093314057217347 10.65331288875795 -1.0895134492353302 1.8719261093565567 0.8671878448860937
Ni 1.1866130418717717 6.451700567211196 4.7289037436824986 -0.47821207537305377 -1.0660143376721254 -0.6647533230338293
Ni 3.406032407208827 5.0532530475535635 2.320832051139905 -1.5156897390580673 0.06312032549925259 0.16683451326046753
Ni 0.7013961816591145 5.637602764812511 9.961752379624576 1.6715207021191794 1.529040192223044 0.8657356858205993
Ni 1.192497073484359 6.843306220360677 1.2022365467630987 1.060285405608148 -1.0523180711319553 -0.01934138064108927
Ni 3.1416245739511344 2.0459992082219425 5.149586786704151 -1.1188602778285635 -0.8160653151786655 -0.29684825814815974
Ni 1.5608748113631974 2.3485785290997057 7.408058376456621 0.2181064240615663 0.8637448806428156 -2.225995296800399
Ni 7.54952077012921 3.5267484525940507 0.33679356374505043 1.3960187708572798 -1.6481192924761034 -2.9338889026671278
Ni 0.8726345772112106 0.7520632976831222 9.035989666818061 -1.237414101705772 2.4068595486810547 1.6359844568857824
Ni 6.090579801654549 7.095777875204264 3.950062498322474 -0.7329173816045764 0.07019805828164039 0.6982141737954363
Ni 7.827050927856244 6.192868554386384 5.11343081340471 1.7107367101970088 0.35046167259824157 0.45434041096177885
Ni 0.8998729737111306 1.2612748652226016 0.7331811600463479 -1.9492767195225786 0.9387377892099382 -0.05681058123114087
Ni 0.25282563071361414 8.153689400216587 10.917875761578768 -0.31411501564840744 -0.03960681575834469 -0.4373708729869758
Ni 6.317806158960321 3.5685717757070123 6.508622502236712 0.5201750500684009 1.5739329389706764 -1.1786150292896929
Ni 0.29129318786085745 6.029049642505778 12.757591095169392 0.48131822510220335 -0.6851038616657233 -1.0295496670871882
Ni 4.041638577626313 6.682774894396945 9.881497924321973 1.5346138296560796 -0.14760086184183613 -3.2928246741746516
Ni 2.5425647776607185 4.540828611958957 4.65138302814657 0.9358131593639755 -0.4584171521343137 -0.67331252545775
Ni 7.111001639535244 4.640259406478964 2.014713905535143 -2.0761251793084115 2.631999996771267 3.189101487552372
Ni 4.753541024620348 3.415867145761294 1.6292706080332577 1.13912031362918 0.9319727025719626 1.9433462129707564
Ni 3.524329461819987 1.98431027361696 0.6351644010599057 -0.9042145586220879 -1.4121408732301228 -1.4855309560864998
Ni 2.2710307283388924 5.963176507642956 8.0738655065923 0.029755891106193918 -1.3050420852673912 -0.27633162625204666
P 5.79152156001162 5.519585902182903 10.473201747123383 -0.8640287304318217 0.17774961751107454 -0.421411521444242
P 1.6691409930348038 3.992222051813298 11.198882167823589 1.7396755047185457 1.2639820820022876 2.537739498223784
P 8.4549237995829 2.6226529857209346 8.796456343709265 -2.1502218013135095 -0.538436310271434 -0.6611797467499582
P 8.236252637447176 8.406805496617743 5.352225363655483 -0.5313860882928719 -0.9251425670240067 -0.873265161428425
P 2.3143390689540784 0.7171962074988192 12.91875565501143 1.0711058932624198 0.9022111550388139 -1.4411796836646342
P 6.810589136648148 4.5081582269100196 4.460199633374346 -0.6830114979130688 -1.8281494784912387 -0.5069649791360301
P 3.001519243442528 3.036842112583489 8.845406816859631 1.0162359806974175 0.7112620081183298 -1.031155063901095
P 1.378609927363767 7.711070126959246 3.182005842332376 0.4237797645661024 -0.4116865808469943 -0.9919246576455626
