# total energy = -340892.4707755724 ev
CRYSTAL
PRIMVEC
9.04981015435835 0.00000000000000 0.00000000000000
0.00000000000000 9.04981015435835 0.00000000000000
0.00000000000000 0.00000000000000 13.24531192973533
PRIMCOORD
 96 1
Ni 6.5424155482458435 2.0763432226341343 11.606522866966897 0.2954629477648589 0.3009386261674495 -1.0080225916486898
Ni 4.56161117278563 0.31786463145326155 6.0645249314930645 0.16839440154841967 -0.26519669268114976 -0.2930072871355147
Ni 2.7522283037352318 1.6363414465996513 4.846843998314887 -0.35230206824109 -0.2552856042150249 -0.8862803427411704
Ni 3.0085460804243445 4.297492459631242 4.4058413132629335 2.1018845476607027 -1.6223439832842124 0.855585741870791
Ni 4.9868527082460234 4.4755203275487725 2.705354811366441 -0.5223820850220487 -0.20910936276927855 -0.03656057273285316
Ni 6.863638564295699 6.04490222785309 2.941466171652226 2.181945357669036 -1.253109400953842 -1.3053701580307713
Ni 5.170165665369727 4.759331427882327 11.454970219036797 1.029503387230285 -0.6222355042762767 1.1003640187965888
Ni 5.776303858607852 7.884493363633293 12.294404376581186 -0.2846738275691549 0.3270011275824562 0.47296908180655967
Ni 1.8869668926197862 6.521229942369729 0.6481700371046845 -0.9245149607423369 0.9228720258222751 -2.012361049577573
Ni 2.8398214174793237 1.3503674416080906 0.4398334495631905 0.0019419542177192362 1.0751327550336258 -0.7435409227566936
Ni 0.522202107830016 9.194878743404272 4.908341984103499 0.2149082288392428 0.24162224779531935 -0.7601283948017297
Ni 8.59354599942724 2.2618643334672663 1.4224012165299682 0.2098207870140064 0.9792594034730683 -0.17891458435345314
Ni 6.798443731005851 0.4200496593001509 4.597223081236336 0.8951370218008519 1.7159745615571802 0.5998095711725928
Ni 1.136810018513444 7.529731750668921 2.9079556291495914 0.27553638404426095 0.30586048894909906 -0.10839539528696815
Ni 7.229757689167172 3.832431758918859 3.797933882114181 1.0125575034045657 -0.8269176845121372 0.07856545640972921
Ni 7.519360668082835 4.078378453021885 12.517270434534513 0.7115756827040068 -0.3621349951711118 1.1860522022940283
Ni 8.120992055799256 8.939103955332232 6.849733530793499 -0.49526054621490834 0.4252069839309322 0.49693999079986034
Ni 6.906254120925612 0.6622624016797749 0.3770268612074333 -0.06580250031710602 -0.30666935800363965 -0.157192105074697
Ni 1.896179599489451 6.461374497147761 9.158417962748878 0.5094597205334258 0.04776261209625968 -0.010677534318504192
Ni -0.03528249535634798 4.800861007278095 1.4971046854857857 -1.3715842919639993 -0.3563281586813476 -0.4443385625540605
Ni 6.323591135565593 1.816152127143237 7.079420430758287 1.196678314549307 0.09527068497955204 -0.7636029836138913
Ni 3.1002025589861963 4.5352400256164715 0.6349473592979386 1.0666537710283372 -1.3876524011704554 -0.4090473434519342
Ni 5.880666270809202 5.501225825198881 5.049245720271777 -0.19400336036577556 0.6424713717071774 -0.40941346854210137
Ni 5.207315136587777 3.183135020433749 8.88025303905185 1.0907005275648958 -0.9071785263464184 -0.15727155216238076
P 0.28344367803600207 5.600855186621416 12.693101913495985 -0.42753306096094756 -0.07948462578988891 -1.0579762978589973
P 4.13978141580251 6.2341247110926 12.834297053555426 -0.02553748214947215 0.05727466535175297 0.3407698992317744
P 2.5080372728274067 8.453672131669343 1.3150541768967754 -0.19423553098123966 0.7081453168662191 1.621629473715691
P 6.457718373792805 7.678745926814207 5.9166012574870654 -1.6701189366756461 -0.035815209926396384 0.47438601675874426
P 4.871250431671271 1.0629635665915729 12.503667664695817 -0.7026094746496544 -0.20668764070166337 0.6484818395673154
P 4.082794760440742 6.124422910823369 8.10431597038793 -0.40819836518807767 1.2252962353963157 0.32562867271496176
P 4.809811269649508 1.1535250181089949 3.905538841340483 -0.45037731254897273 -0.9501277762144348 -0.5992796668110517
P 0.04627348994692551 5.7541137237901525 3.5133589777926106 -0.5126463457915237 -0.9392941759340404 0.11081814579584784
Ni 1.435860999366169 0.9845288608554381 2.6541618445488377 0.35044650308958997 0.6098864957926206 -0.36977631376645353
Ni 1.77390761273499 6.204540881272429 4.838459349086258 0.539656041611148 1.7083836365837999 -0.0020982772899254183
Ni 5.889118793614966 5.6922492206850155 9.39818454140859 -0.467667209977672 0.6787804905508568 -2.042192016896076
Ni 8.842750625232703 2.3208600467122027 10.450921822378627 -0.32083793619453777 0.49795146278351016 -1.0322912343880675
Ni 2.282778445034846 5.11694373108633 6.980306003540942 -0.29777282684495815 0.42507328656654536 0.1929011284405323
Ni 0.8041742867137514 8.852062880015499 8.933817056164003 -0.38855076616047923 0.6838057116795901 -0.31126751889728327
Ni 1.8497359731091763 1.132176515647758 11.400941946657046 -0.27811134386028874 0.3144047789746844 -0.30981458850084065
Ni 4.12165464580257 6.773963994186162 1.8271512665630707 -0.28232332505910734 0.6266212920487982 -0.9428890923741503
Ni 5.939643884433569 7.984638564242047 8.08466068743093 -0.8796942048832205 -0.415445019448162 -0.668749588677416
Ni 5.0581199642368 2.9189710582279376 5.111326513842714 0.3136434753286276 -0.06444855739237287 -1.3039984744942252
Ni 0.7655940404897158 7.313984273485415 6.85684668167715 0.32839723659903447 -0.44782754954392556 0.1420375088214457
Ni 4.735385629869426 4.501267037808297 6.860886516988169 0.2029968221136375 1.0575487234032752 0.7026773517731124
Ni 8.303870622029303 7.141748284149991 9.1969882541816 -0.5661975395451023 0.13512406953106407 -0.09699718075235554
Ni 4.513629078656983 0.260848111717555 10.370563126975998 -0.235105272612408 -0.7042752923878517 0.5325022041751861
Ni 8.071272398095976 7.336083910200268 4.666363631810245 1.3714680781011088 -0.5914573425531556 -0.3213490715030014
Ni 7.268880019027253 5.976883853754464 7.093314604488145 -0.23547371169542028 -0.04787728329725303 0.6186588426686119
Ni 2.0429494226841705 5.260383224096337 2.495377493220359 0.595561080308884 -0.23427326362941586 1.844102916496701
Ni 2.8563011220074768 5.032916242594348 11.535885477771924 -2.3828827261504832 -0.5822101129232747 0.2534128126723443
Ni 0.923234495798228 3.3860951156851957 3.69279318622836 -1.5198857794172855 -0.1503084905809863 0.07616070362297851
Ni 3.7537617581153264 2.3828693467818916 2.3628176821344296 -0.6022567471615048 0.5185940787345262 0.921122133010704
Ni 1.135859788433567 3.460421207552148 8.415673788246604 0.09780167893152188 -0.5917170239724454 -0.030767620200159912
Ni 3.507652167427178 2.6085263662269726 6.862409600059058 -0.5205139214650584 -0.477882459947777 1.7462274469044508
Ni 4.0219619357080445 6.8969237665222485 6.015769078585088 0.2404968759416245 0.37308095265965424 -0.49072229202492257
Ni 0.7627469701741986 7.297350722182425 11.322689142107633 -0.03622247266714407 -0.444879265548879 0.27533686643894517
P 0.19366232016510743 5.473062815593383 8.156211202483613 -0.028657515835692586 0.22125525410319316 -1.0068167442660467
P 8.586070856132208 1.535598958512118 8.237047727869266 -0.5043650796193379 0.6522045398345413 0.06055770697839894
P 1.9208403325148309 3.262746201506874 10.549149368188088 0.6620287250138147 -0.8826610008210283 -0.4523730028227629
P 3.907327988833737 6.142169588791358 3.8037357154876013 -0.0936514042085742 0.032222350368815475 1.2831388574363964
P 6.884389779278156 3.975246815019233 10.217380608213654 0.33400326993190216 -0.8061483131752698 1.6319041161688217
P 6.3882339304280835 7.7017595943678 10.208016769512238 0.18445788276918554 0.9598156929261598 0.4990125570581729
P 2.3889508192931044 8.474206151204971 5.756995183384751 0.05596263140854878 0.30061003918343715 0.5649238150390012
P 6.726579187536294 4.002559142457984 1.4392094291714501 0.6686236046225129 -0.9813114009060907 0.7953093135782368
Ni 5.010264567452137 3.1132252359856536 0.3073876660868461 0.6048962416668808 -0.6270131281705782 -0.3387446412716295
Ni 1.3238243480435261 1.3987929764406808 6.948623522715787 0.15976937888357 -0.577937967910482 0.03145179075137809
Ni 6.671393444421152 0.8444911915313905 9.35283322712966 1.2656355584453107 0.29785021705011283 0.3735926021887502
Ni 2.709739444449302 1.5322595785171216 9.153980840766366 0.20566562719505224 0.4536958353992444 -0.3747246589106643
Ni 6.216740025535993 1.8947678290850625 2.3908983384663385 1.3092239845592226 1.2715593801289133 0.5586701208198056
Ni 4.09858667938727 6.8407877933272285 10.732822507761117 0.05713376889851451 0.7028691560689443 -1.7590120002636287
Ni 8.01653914549506 7.3128801966307 0.1060384370660478 0.7578344565612303 0.0003820659297670839 -0.14044599596460972
Ni 7.7143297808530304 3.734395164106404 8.24357807097059 0.2607957353999767 -0.5265799251534802 -0.42065638844577224
Ni 3.180338629055825 8.313553919033764 12.447904543684519 0.38416549260859 -0.21823857876405642 -0.26962747475899373
Ni 0.19853564300333382 4.854146290233484 10.342681566470352 0.3747187453733934 -0.33139668554699053 0.3961332064934274
Ni 8.493165503751088 2.46579275841916 5.626370221737656 -0.16379649776509211 -0.04031026958327251 0.2836757253219437
Ni 4.161890102327648 2.6515039152682673 10.95156818709189 -1.00747468956502 -0.2764714942640206 0.96475478209899
Ni 1.090882231319388 3.364502268346276 12.630743290749313 0.09932917131964183 0.6647582081298358 0.5560802486054423
Ni 3.3153617985012076 8.351870815778518 8.03203694560734 -0.3486567581790189 -0.419993815161109 0.07735780925487323
Ni 5.62693673986147 7.686166771247533 3.715985135044558 -1.991064602092642 0.8575204969996586 0.5232786286943891
Ni 3.2395062886961674 8.526188261479387 3.609810950824242 0.22843223146760658 -0.14853211540685388 0.6464843495213124
Ni 3.387443537417593 4.497095075267123 9.295149736375981 -0.39673227353000706 -0.30686527606452957 -0.09759701911988353
Ni 7.407423564673322 6.051707685187067 11.26882014638889 -0.03700820179323303 0.8807391012079672 0.5236586377416271
Ni 0.71349518766263 8.999212795242167 -0.06485999030932002 0.13333689572365423 -0.10325113208186734 1.2483777998061274
Ni 4.751213748057092 0.17397264792902709 1.6723397819495065 -0.2971737598083785 -0.686874580412901 -0.586423379673674
Ni 6.054449777703282 5.904349624323852 0.667754731541464 -0.05820000537949977 -0.40187782228668856 -1.4794544108751166
Ni 8.158575917910964 9.072796802665787 11.314834811761678 -0.6052374270563834 -0.4555534574332735 -0.5698953001116636
Ni 8.937474989481014 5.035531637766581 5.67129800489527 -0.2075049943966362 -1.033553903150575 0.1020357716175275
Ni 8.433373407201113 -0.3024537095197132 2.2526434817683456 -1.0791490752818704 0.926950823877339 0.005741273359151403
P 8.433880196577048 1.6473912649570783 3.480881018643443 -0.7063123774225384 -0.5836424744944271 1.4064224826891067
P 1.7048756598844956 3.062229555032254 1.6955724549119855 0.9277280683629957 0.03987369626648617 -0.9485732872431211
P 4.7440824975528715 1.029705513795877 8.279604460732328 -0.8613912928089745 0.43872738701487024 -0.2656252955781361
P 8.665048550485416 1.780758319120389 12.551046136478485 -0.8504839018678514 -1.2039756195416684 -0.3176068308517498
P 6.577827455889261 7.825932041282015 1.6706574222176098 -0.8218140447369847 0.5228495115767705 -0.36842339928298484
P 1.6448573180774062 3.4011720996192443 5.838083293496313 -0.7554628710052602 -1.12696748031673 0.3951371611287453
P 6.701248768549858 3.841264373756573 6.230488497320271 1.3727387172834167 0.26495038099829854 -0.6881488191396342
P 2.371855727665603 8.31894760596335 10.218175181556637 1.3803034170045518 0.8891512365310622 0.8036049779281257
