# total energy = -340885.2886641405 ev
CRYSTAL
PRIMVEC
9.12673556904901 0.00000000000000 0.00000000000000
0.00000000000000 9.12673556904901 0.00000000000000
0.00000000000000 0.00000000000000 13.35790004987324
PRIMCOORD
 96 1
Ni 5.484346759682632 3.448391062884504 9.903627190708079 -1.267472097433417 -1.025680156829453 0.7162640893186116
Ni 4.883040903705979 0.8498241315289488 6.6424163506428515 -1.1629762943111714 -1.4580723456549147 0.5060424673217607
Ni 3.6256961576580213 3.3841479701727732 3.729792967225032 -0.9351223039445379 -0.9350572550345574 -0.11322007036912113
Ni 5.273154095192015 4.954676652348452 3.2037854189340718 -1.6884462742299244 0.2968641989877597 0.27178822985573836
Ni 4.887138808042897 5.024852123276212 11.937234578406231 -0.4125065056451283 -1.1210549714870368 -0.5597314722047844
Ni 5.872579843610973 5.890586893180549 5.449889681656794 0.48157250720485456 0.3837073220252489 -0.7630707652595052
Ni 3.8598243090053757 2.803349889352145 7.696221200098869 -1.4747739746803117 1.090197105565916 -1.0963245586198926
Ni 5.2078614278728335 7.859506716137553 13.099371042801932 0.18528732064901637 1.235756768608007 -0.8275352634914781
Ni 2.116782068307587 5.109913300158344 11.967209516521466 -0.11909966907834972 1.2475424483890256 -0.08403085039967463
Ni 7.951914915271844 7.463871849542751 9.579350619989956 0.3500415543416875 -0.550826970626303 0.3160279164004041
Ni 8.073483035021845 0.13823718986346875 7.305074862129671 -0.1449081455010214 0.004177014195825065 0.28578788656894005
Ni 8.136813454161878 2.414459680452182 1.65475019937185 -0.2880507144611878 0.11412304179936476 3.190922857031827
Ni 1.1664880919855505 1.1392904195489888 3.2035718533182944 0.49117172085751537 1.9923637805200394 -1.360111258327393
Ni 1.7801606748586936 6.673624310753448 1.0910948662484012 -0.4507439518597721 0.1555147173722741 -1.9479752271023354
Ni 7.821685523326442 4.100003486133079 4.262759651500179 -0.7205184937195913 -0.7137528928609836 -0.10302718899651934
Ni 7.605144591705683 4.101728439183586 0.020857329133984654 0.629146115353181 1.2461810492651249 -1.202185617520781
Ni 4.390388836439818 0.2127031392517741 10.860667650072099 0.6682489948919137 1.395479610524358 0.32080965405976364
Ni 0.26755390823717395 0.3560321349717387 0.5622753706830436 -0.5479043976628692 -0.48891069273748056 -0.005522986700758231
Ni 3.05724655026245 4.049322722696761 9.962481858652513 1.0268821475573542 2.1565107196460156 -0.640053249183988
Ni 9.066754809835079 4.864504503464818 1.9696755166743696 0.9817754850267028 -0.1439324118513134 0.14566225005822656
Ni 6.633676588520284 2.299198135082606 7.405178724820509 0.07764577280893724 0.7612062012469406 1.9677698932307592
Ni 3.509585825866768 4.4891401168974 1.0452613121513648 -0.0557397167644653 0.16715384427309923 0.16710267932018963
Ni 0.4607267457282104 0.2593635756047678 5.291839261225362 -0.4109088221407052 -1.2208916785707167 0.4330082251429059
Ni 6.866326208681489 0.6180497653230005 0.44417814852620585 -0.3176348558762078 -0.336660247938775 -0.7287449953944417
P 0.12083889356621458 5.721267692159377 13.068755407839367 0.5535148018711112 -0.7882698902329521 0.7664399388420542
P 3.54309919941947 6.327930942001889 13.131390369717767 0.5559000142738362 0.2555172606098567 0.9128028145117312
P 1.9728808262581683 8.804059975693617 1.7742228206012347 0.572823272391736 -2.4739925948841264 0.27810723009523075
P 6.536750655206094 8.264870683006642 6.192829698530771 -1.0380021687299157 0.25357710616435036 0.2247313855772517
P 4.538269335261834 1.2542781628470558 0.061328013323731355 0.13878532043273517 -0.26293412189921817 -1.150173486119548
P 4.052562713876284 6.255701955537813 8.65006821463552 -0.7781813956486985 0.9750597635694239 -0.042328585564881935
P 4.191590279052843 1.0446187899568902 3.9677242293456465 0.8856879605728101 1.2561839261141077 0.43667024737552534
P 0.2104844297989794 5.939798252166434 4.069898035697092 1.0204723873762682 -2.018767210214233 -1.4088334061234447
Ni 2.510993164130542 1.4713028114608138 5.441567924030064 0.9933451921421731 1.7802981633359145 -0.5549103966670572
Ni 1.9199366323640428 6.679866997983853 5.212773437035705 0.5474912213848506 0.3291006904239623 0.644761967513567
Ni 6.846749360568595 0.8178038919395418 9.777341461265978 -0.130311221523453 1.013623482775235 -0.28069941630243916
Ni 8.533689556814188 2.5654615228894007 10.817748262689488 -1.226218747210585 0.5538246198020461 -0.2673137390241525
Ni 3.696127177185856 4.85098780786799 5.813237807979253 -1.3625072693633955 0.4895740373530923 -0.22224564304092048
Ni 2.0587725360905447 6.367650495842129 9.642707506663568 -0.9684952229780288 0.4741085947276416 0.0708644882210457
Ni 1.4577678623925518 1.4542814493486704 12.054943914295098 -0.9196128954550291 -2.098714377462837 -0.7535641113206505
Ni 3.947924688881258 7.15556159028789 1.9053977423669146 0.593711685804971 0.11666354883303133 0.6621557375099821
Ni 5.736053004020864 8.10786344846766 8.822077977346053 -1.5773561057196124 0.4338271214997754 -0.7913924950223338
Ni 6.68622833277858 1.4467245121750216 5.33379577798983 1.8599846207239645 -1.7639441474579234 -2.0525332509210843
Ni 8.32698724629632 7.2149310061267595 5.297129117246915 -1.219708714006209 1.538081733600022 1.2203085523737371
Ni 5.2681435172834 4.715163726928087 7.747875786236187 -0.8528140926629248 0.3122622787103848 -0.36639711288157545
Ni 0.8454505997733781 7.552547213768803 7.108273234517569 -1.7400125763429903 0.92416143405766 1.1405683589296163
Ni 6.253712327151514 2.0864356720486716 11.852611484838514 -0.21353217442732256 0.23076473625552515 0.5580227170437938
Ni 0.432432952332041 7.921577645748646 3.124586344402947 -0.03609468884002816 -0.4842443976100628 0.6650883377757449
Ni 7.001073334806789 6.544353226058329 7.492379208554698 1.189258882156784 -0.5458619133115438 -0.023844667828081516
Ni 2.2262937701754737 5.734683993663318 3.073586145216536 0.23179086352719439 -1.569579547097987 0.5117451741334929
Ni 1.2699396413373711 1.3712920414742895 7.6040110511296355 0.29135843867818206 0.9086599959879511 0.13640370757443604
Ni 1.145560486986545 3.558185693559617 4.266860293857812 0.5962802178630957 0.5362709271889989 -0.8861219627864353
Ni 0.8205702055353545 7.440762954707391 11.980139363011693 0.013769800090582738 0.4301969809463559 -0.09446567257975343
Ni 2.044124125264813 5.636425556934452 7.446374984499754 1.4697513246547398 -1.0686782576575335 -0.33274368649318825
Ni 5.833480907799486 2.5130284261954254 3.272859292860793 0.44923394297314884 -0.4083557167015483 -0.6815477688833488
Ni 4.306149065772212 7.520466737723663 6.521006123420755 -0.5771180431123479 -0.5055531863901681 0.5284151785900061
Ni 8.623131566840465 7.308233625361313 1.1087085535085757 -1.886970148173873 -0.19396530803898854 -0.9578554838759955
P 0.0486820083143019 5.849607849811367 8.369098917567976 -0.6019584991947956 0.5647986023150467 0.9690338690903182
P 8.40768584350574 1.9910430303349327 8.658043156305006 0.6461308228366356 0.30860488446345563 -0.8032488801402876
P 1.3748697218753405 3.2049353876344098 11.019386147558011 1.6465360071493835 2.2765861223740727 -1.2038131258218752
P 4.013892734643496 6.451041480088057 4.232543767562017 -0.5977958831766736 0.8468725303675091 0.5148515809729585
P 7.010136183373738 4.559461615596631 11.260843067686091 -0.6215793587495166 -0.3977380890867021 -0.8495243661680595
P 6.2927382490772645 8.27866118067498 11.102859272425393 0.2788492504675778 -0.053652752328449536 -0.37500568048619287
P 2.400404507448053 8.901734301336598 6.694926111916849 1.0550005030601248 -0.8813793058951271 -0.8335382751524483
P 6.8886867111880585 4.356090563615456 2.1428343354116692 0.9166417286418471 -1.6098257962125437 -1.204308834511371
Ni 2.337922874729697 1.4755923772477881 0.8970230452892436 1.8881947646095933 1.7331772985887117 0.07679242366970646
Ni 0.9005550920117098 3.7571576589252142 8.652179228606855 -0.8671510781108873 -0.6351162168936868 0.6277422930271189
Ni 0.3027100942189308 0.15816906799575295 9.411321939399164 0.7639176866408328 -0.3200082412043908 0.7302213228296521
Ni 2.774363376715058 1.8752338808223388 9.601043958115614 -1.1778562967467974 -1.4309693187905357 1.2925177275481354
Ni 5.515587576041809 3.16118181660727 0.6136753208938582 -0.6164538645974932 -0.15962051201053154 0.7673945894458397
Ni 3.584644100403104 7.130271405616175 11.13712286365403 1.1930224629642743 -0.9865034866299913 -0.5139144138706697
Ni 7.36638005861411 6.730858070434548 12.07360535081558 0.2733100658169035 -0.8512642316773016 0.4725944720759603
Ni 7.24863604112952 4.322321641462677 8.89592057068489 3.2354903592295567 0.08719484994995305 -0.33819082565068853
Ni 2.891961366428178 8.652200220099004 12.801249871301492 -0.3933060214572775 0.7306247289156579 1.3665500719742012
Ni 0.044475495822351815 5.399933581036404 10.728304427316068 -0.9547933000109041 -0.9394183602167304 -0.4775597865010356
Ni 9.065230644970345 2.5110661780162777 5.997683660777725 -1.1915006270031092 0.23982607512684498 0.5482381268532042
Ni 3.323455177654943 2.9545981536537225 12.174496850798791 1.9402794011199747 -0.5958055922195223 0.4193569529080584
Ni 1.3416757840727316 3.512232579224688 0.09891008565905801 -1.8342440214247508 0.2991337117482267 0.7846456632168035
Ni 3.1566732091630882 8.795426083705367 8.734784400907552 0.13657468593466157 -0.9895993519464958 -0.2991180280189429
Ni 5.500099505530116 8.295280966415577 4.290557863146917 -0.5060620077057866 -0.16509259086869632 -0.6087608668286096
Ni 2.612382071210328 8.617646398674566 3.8973680490506912 2.084897526184403 -1.015839259479631 0.1573386579548903
Ni 5.068149357517503 3.054143460118681 5.647866832829242 0.5980008000986282 0.29715010565929467 -0.6861754974633474
Ni 5.827311234454817 5.997853418062062 9.905136752795666 0.0330013946266851 0.4704889956971833 0.4864599172041429
Ni 7.48217095465527 0.016026547918994025 2.6231981657085055 0.38083617112504087 0.32765264512352604 1.1374920339971377
Ni 5.054559648034939 0.2643960576791034 2.039203902039796 -0.4071043607929504 0.4814223547802354 -0.023723311758868822
Ni 5.729545641454666 5.744796416837718 0.6242294780769588 0.5181464496741464 -1.1077621110328728 1.1608330227159234
Ni 8.372228475245324 0.11962047434799948 11.641596791694377 -0.8468586464104382 0.021504449730679092 0.3944553045703723
Ni 9.091652544870964 5.031970977135445 6.129953790829442 0.1712796935160147 -0.07854977268044536 1.0611084157300759
Ni 7.344512399836257 6.283794048074637 3.1168788160899688 -0.24074190207289506 0.9532650362918358 0.13457822432992306
P 8.435221205163831 1.6452218872833366 3.933634046095631 -1.5110072459807333 0.9419503826099649 0.7955018892050171
P 2.0303062473893245 3.2889652433805248 2.1784861031428573 -0.4188769279478463 0.49677261198406053 0.8909114137552786
P 4.817583955143892 1.472927370418434 8.958395814688245 0.9990029046485827 -1.3045574323214888 0.47803364081366057
P 8.368860709765764 2.128966260489738 13.029402748774949 0.46503260056830237 -1.9769723856656338 -2.2139645908881094
P 6.360175699289933 7.518349335037327 1.6072628807628992 0.17091742508058952 1.4961321286411136 0.16935650835137284
P 1.8765572575012988 3.5533211434224734 6.660329394834543 0.2587005434338448 -0.5807620676228384 -1.0521910586357879
P 6.950264797070434 4.26333554852392 6.4403513345427745 0.6139020447099169 -0.30753067756267033 -0.4928218548664286
P 2.04262734060723 8.680693889007374 10.67737085330039 0.1884343509184303 0.9339766203758689 -0.2399170921787546
