# total energy = -381167.41988578765 ev
CRYSTAL
PRIMVEC
9.26060963809470 0.00000000000000 0.00000000000000
0.00000000000000 9.26060963809470 0.00000000000000
0.00000000000000 0.00000000000000 13.55383828212393
PRIMCOORD
 96 1
Ni 5.792853955501134 7.273755081157983 4.643084447777124 -0.13118873903239986 -0.808690105760517 0.838330297224453
Ni 5.378173117639608 6.86423240285091 7.044132709437327 0.4969546460878796 -0.7337591607795815 -2.068347592245522
Ni 7.002558128640625 1.7191117867326218 6.7823000853606565 -0.13018960834392415 1.3836221969651397 0.3958028197372022
Ni 5.148056229365617 1.1481581616513445 8.408096413266698 -0.41093993248895677 0.7735030163364226 -0.021474882044324305
Ni 7.414627474591279 6.577042377531862 12.725738961657225 1.2147909649896176 -1.1222595333180994 0.6887350306604074
Ni 1.2283457802905047 5.369181065705364 9.040044117503186 -1.7670035031095372 -0.8664373398733143 0.6649402422336548
Ni 0.610145451024549 1.3997041005698694 4.382037123395637 -1.737120599507176 0.2653543013049366 1.536200457416909
Ni 0.08911577236707495 6.554048283862728 2.9934596452758147 1.3318149824858612 -0.12981936948869902 2.6542418388886033
Ni 2.311624110993015 1.1740045230812897 0.9618300659325292 -0.4719318987912969 0.5506307954550969 0.421393523722113
Ni 6.965923157011509 3.3845305589289403 1.7144925946576461 -0.9015691505794409 1.7886411359839711 -1.9337094612119408
Ni 0.164939791756579 1.762349573015823 6.60211547805912 -0.38362838915819736 -0.976109287879861 1.011615965426903
Ni 6.360899749163922 8.485144685247043 0.8668375107050303 0.3967713542980586 0.11532811785105944 -1.1989807374302384
Ni 9.217056966012262 7.945991993576885 9.346753655764562 -0.7656266989121395 -2.582215212038656 0.13330989914046074
Ni 4.990292483998169 1.9879658050178852 5.787434646755592 -1.8958959899085928 -0.7132399577803071 1.3371145403219038
Ni 5.476780088799069 4.81291476747034 5.69266619828073 1.5878312942193236 0.561062275201066 0.8757226218299821
Ni 4.665430298773347 0.9012378972345243 1.6536902101214257 0.08288156728657985 0.15833033244419828 0.21323495490187794
Ni 2.0013473859087023 4.781215700764964 11.503684839537806 -0.5631538676227721 -1.3464579292100167 -1.046310431485295
Ni 2.3708920125163577 7.281348781040662 9.518725028400308 0.9064632454469485 0.9976214509200239 1.6200844978260744
Ni 3.5169572763951593 8.936775355464528 5.457018873945841 0.9772112626947881 0.9209331569283494 -0.10170975573667644
Ni 6.022970843775125 5.283177784229225 11.172469876118452 0.726038395096556 0.45301809260592946 0.9300703433429273
Ni 4.933386037926146 3.4452338549423014 7.726541475455173 1.571900996142312 -0.07606120193063674 -0.27471748768739135
Ni 5.405741952457576 6.418204401449304 9.141115336880672 -0.5283221046555676 -0.33743132177684465 1.4932285818410735
Ni 7.682694341059435 1.092279643246368 4.725071402864094 -0.5967841540827077 -0.973838232457497 -0.6737575834149687
Ni 5.9211874835183975 2.7129604104021756 11.529274682081471 1.7843589636688493 0.18744987551797393 2.016226188959934
P 2.2186753723071098 0.5828257266051718 3.6350309750221546 4.093045051901261 0.37356920514998243 0.1414230151658984
Ni 8.765250344212129 6.757411270964698 7.2849715315212755 0.15102222881855926 0.5266010081994028 -0.23141419691406595
P 3.855775200306806 5.848871383050306 10.60049758397974 0.23282007612265712 0.10274848141383594 -1.1772040078747792
Ni 5.599279432760128 9.523518319936008 3.984218929578464 -0.3828765985938374 0.4374048115487048 -0.21981980720824723
P 5.930059147527672 8.999664155346563 12.174518769600336 -0.6415064366907469 0.8806758520701994 0.4267398756356909
P 0.6790758726181192 3.124057392343462 9.858140261631995 0.04347118380975739 0.09708485537015538 -0.03950782828663519
P 0.6462757194297555 6.481806268271542 11.078040365955424 -0.2410643184093203 1.2738795436216577 -0.28849320131524514
Ni 6.15838873814635 9.019407775041527 6.302440298859796 -0.6397506303419046 -1.1723338242666714 -0.4221039195255763
Ni 2.6358102717160867 3.928396900892127 0.5233068625613162 -1.4283115694527142 0.22930512099086317 -0.14294973622306992
Ni 1.9100748175627547 2.3052435509696427 12.27920810915363 0.5565337912030931 0.38810493687231223 -0.8996392805465796
Ni 7.264225913866182 5.975213880000769 1.6471975967217358 -1.5696327689334257 -1.5589076692064379 0.9013434077218799
Ni 4.509833536055345 8.493488494508377 10.231860497114162 0.07122469977394184 -0.6059035998854727 0.07679653743476451
Ni 8.483246260276374 7.642577380215822 5.116397909342539 -1.17175146940064 0.4562414846392336 0.4115513408207106
Ni 3.3129275254010517 4.862051562077036 8.177274792601155 0.42425850397473386 1.4128618105565474 0.6541850605996797
Ni 0.720397638772386 0.5989447436975984 9.69827250576047 -1.027907760608391 3.3738241939471703 1.2476159819394383
Ni 3.390744427979278 4.143983892683287 5.359702831766435 -1.9456159828415396 -1.2165058907981952 -0.34986363400292647
Ni 4.558007227262287 3.4422704598661342 10.176207937583742 -3.0138134442079125 0.8744180440859456 -2.348288790225698
Ni 2.0049219812193293 6.219453197934619 1.5301601603104371 -2.0136121483758544 -2.678905403073554 0.25037993938329134
Ni 0.15664506372619488 3.0961644361890386 0.22081090167386516 -0.861667943509129 0.13966078105915303 -0.08668911395812812
Ni 0.6544306122549829 5.5913986539794465 13.268462544394163 -0.5072650268749521 0.018912006413154527 -0.3434428180782472
Ni 3.7780231219958713 1.164605004324072 11.262439476691846 2.7895679971281444 1.5905792892781059 0.30878074791968757
Ni 6.465535377181461 0.8208048724406191 10.245604167840849 0.3745050867006905 1.0447639129337813 2.084376106463294
Ni 6.807288914340436 3.9398337537642094 9.692119756733577 1.19724061481068 -2.3223671852639294 -2.295179054884912
Ni 8.898547558981972 8.831945254645115 11.682974871950725 -1.1685175358443747 -1.9054746347359635 -1.3371263673964455
Ni 8.210975077043905 3.3871327902301993 5.301096137769462 -0.026472078148599573 0.2999047855862964 -0.0635134471726132
Ni 2.0532438421800796 9.12902561103087 11.327755482353453 -0.44763343125524846 0.14164233026555606 -0.6137567773813043
Ni 2.5963693353742245 1.9292813219001628 9.480584281648115 0.7813325396831705 0.019489476183179335 0.47041160549202854
Ni 6.900320998512858 7.730053098620431 10.787160913766547 -0.07126403765230953 -0.29269206988794105 -0.8689099697835229
Ni 1.090223787912277 5.784732400870514 5.394929264673411 -1.4123079949356063 -1.4060316750085915 0.16405772184627876
Ni 8.78430867879573 7.2526131094114525 0.9312404202587939 1.8003823356802995 1.8998570314388699 -1.1154198846884467
Ni 6.899274549626587 8.749785126158383 8.576448739665675 0.8639328282839057 -1.5006567559843447 -1.7286585847827518
Ni 9.351919223806705 4.565999133358326 2.0826962849933355 -0.25252938162612637 -0.9846520352435494 -0.2990429518066334
P 0.22687197066558823 1.1096710680996238 12.81024758074182 0.8262006038404545 1.1499585418952645 1.2946856817337316
Ni 5.152732837220193 6.844322092182913 12.6142588170747 -1.136032418732476 1.7348981379345607 -0.5079530540809123
P 8.74871089544327 8.993968880434554 6.963189425053744 -1.418461673241828 -0.6368828218758064 -0.3018793928141639
Ni 8.648687051013018 0.45263915060434295 1.0949374382053052 0.6478650319189229 -0.043729065456834366 -1.5669469945711465
P 3.210014370771535 1.4943475308149574 7.357281149562637 0.5157445251008731 -0.34677959576096407 -0.4123378412777479
P 3.1508853783923874 7.631557254776326 1.0152924912894683 2.411496276122118 2.6534715363814816 -1.0912713124667013
P 1.105966824254415 3.524412067133642 5.804254691995726 0.40342048418346005 0.8956921229733735 -1.213492300782852
Ni 4.34306847814404 2.3587883957521374 -0.22926954249439974 -0.5220882079307138 -0.44926273932855526 -0.2998235387263997
Ni 3.9613831923337126 2.233501608297559 3.613019432032962 -1.9924524835791042 -1.000600845263322 -0.212103412400596
Ni 7.508567098505777 5.427809985165408 4.436699723758425 -0.09990278443492472 0.671074894376483 -0.717990327981099
Ni 8.104005775403884 2.030981336670374 8.603068361998309 1.0366662235273114 0.39347468582465783 2.1659636375287987
Ni 3.811611353062303 -0.269844903513857 13.180281167537043 1.3096579867728477 0.6769372666945309 -0.5347454916834081
Ni 1.4993204781771503 9.20981516929488 7.769018965689145 1.4435178448795074 -0.49085110429330303 -1.5039076588214746
Ni 6.68676208022695 1.580100775831544 13.358378433431804 0.5490192279936029 -0.9061256596018716 0.5195081059083634
Ni 3.6897880336029942 8.29537627305699 3.0773450253334547 -0.28220068343831395 -0.6722686575742681 -0.3365018679840398
Ni 8.989431181724173 4.474995122691156 7.379360295002005 -0.5411264555090874 -0.8239699147377229 -0.103378401688351
Ni 6.0122100154047935 2.934029683084244 4.091077103903128 1.617318762155479 1.3891330994810398 -1.2914682032376985
Ni 2.176752592588958 6.901219277645321 7.342317856549916 -0.17949848188138118 -0.32201858676620027 -1.6714826497923925
Ni 4.6863222340603246 5.227651168989544 3.4049816891983387 0.1605759339452654 0.4152455018428461 0.3769340078571573
Ni 1.3425568786479087 8.385833907756991 13.353282319961759 -0.39077785571878504 -0.1764761501152896 2.132187569519618
Ni 2.7370009529575814 7.053269226881535 12.067808765029481 0.1337996942926857 -1.2695436352504652 0.003101264633143046
Ni 3.9870350809617845 8.526724822409514 7.72198803370845 -0.670793101470006 -0.18404599204274755 0.9293872012329736
Ni 0.8389973400254013 8.840955827798586 2.5481354502047977 0.3182048694470649 -1.2219635714786568 -0.5898136363021456
Ni 3.311936640172458 6.499438468974736 5.079924072320689 1.1212053810219722 0.5013759150840269 0.2735273240340322
Ni 8.64364001877392 4.6721164589139486 11.326766449246783 -0.3361431990930404 -0.24552466817351906 -0.060361274696876695
Ni 1.3647082568422582 2.7076170386554614 2.809994930049346 1.1648580847149166 0.9378505015089784 -1.6112339894139798
Ni 7.7717073206598055 6.019942624431668 9.320446115975889 0.7690130988858692 0.4521971393665309 0.569913812054425
Ni 4.133093415778372 4.5797048355855985 12.281675135554538 0.21877439666286835 -0.6416640453145337 1.887594412021433
Ni 7.00239143766759 1.1752824872078869 2.27127100460427 -0.9511266497925943 0.0434722122510219 1.2216378127081218
Ni 8.426978796267651 2.1926345380752914 11.203589228662052 -0.20229054007523223 -0.00024528324158667433 -0.12957100092331877
Ni 7.821158975993344 8.140677789471452 2.9603613004579117 -2.1530304744068984 1.2667709576013344 0.11065745184826749
Ni 5.022065635580448 5.579406164530583 0.9561375692034044 -0.44763163148303553 1.0659762853453383 0.23875778176333073
P 5.7400314382684545 7.404144464509336 2.572586237766061 -0.6128898013953187 -0.9459044821617064 -0.1464613489207542
Ni 4.476069353406267 3.6113969732287603 1.7871550419252644 0.2791845223198095 -1.9355447146484663 0.3293752842415876
P 6.894134911291359 4.992014957386191 7.659585415831099 -1.5022420981935936 0.04346707004469934 -1.0094271853057002
Ni 1.6808469478116135 3.1792691468563006 7.800478182605543 0.708189025619961 -0.1239755091134123 0.1508219398822951
P 8.237469681146763 2.7890826214212185 3.198339520232398 1.337505348002419 -0.1411175681103376 0.998051853589223
P 2.0789605550754424 5.4707143895025405 3.4922416353989636 0.6365519208989489 -0.6567772468068882 0.887784952311155
P 7.282691569434549 4.295450423513879 13.217824604969199 0.37198283449946906 0.09086407127142415 -0.37310820635316383
Ni 1.426930292832155 8.039348199085763 5.079666627373447 0.10843756137881323 1.4271365753080065 -0.18251258611735663
