# total energy = -340864.39204871043 ev
CRYSTAL
PRIMVEC
9.30294129570039 0.00000000000000 0.00000000000000
0.00000000000000 9.30294129570039 0.00000000000000
0.00000000000000 0.00000000000000 13.61579494197365
PRIMCOORD
 96 1
Ni 0.3112215233189517 6.587719620985745 9.697454690066325 1.9220435948382386 0.7847515926670485 -0.8246047201082444
Ni 5.142377473119695 4.6415257278195465 1.4026853718393626 -1.0904835264580832 -0.49196490618277205 0.3261572915249222
Ni 6.908968784563604 8.925985968657587 1.4216791867726684 -1.3341392597436637 -1.5246945136598389 0.26156835189994304
Ni 1.6322289325039392 1.3811611569149422 0.1357382839351378 0.039423238992628874 -1.2057810481815234 0.9273408602269061
Ni 0.2158189315951217 7.347100100672224 6.572901896331893 1.9967336274529615 1.6012683935608358 -1.278152974186031
Ni 6.60347880328335 0.3495319652432532 7.388474931409294 -0.9554941827326705 1.177589930459288 0.5796503226158984
Ni 3.0876833773933043 2.9203606779808355 1.7411198585921714 0.09885223168322331 -0.10608500198623665 -0.6929074168705421
Ni 6.881450684660231 5.7755821620727525 4.559330521637576 1.9299070567467147 -0.32535716422113 -1.7737436500468484
Ni 3.143975474254466 8.369139820612878 10.061268530553548 0.6926163679926846 -0.2400435904542898 -0.10345964854824763
Ni 6.1711153106838905 7.999264183676353 4.174357141518771 -0.027442926702301126 1.283709899448518 1.2593785217920053
Ni 0.3665247175365266 5.126088023176894 5.635087284330788 -0.06114237583727534 -0.7721501018529541 0.005146062977313718
Ni 2.587129326209757 1.0166626199595363 8.05654704376933 -0.6945295258549974 -2.4838316924617354 -0.033128921343484885
Ni 6.111902090303574 2.5393215116717456 11.297950360034633 0.12103416709690122 -0.09590600457070579 -0.7322455523485324
Ni 2.1091535131822234 3.353961461752422 12.845740216952715 0.49894236594186975 0.6478539761753294 -0.3069172123483876
Ni 7.680470996560459 0.6816683608417063 9.819166929638948 -0.2363967377303219 1.1406886865575645 1.119407408581285
Ni 4.834636180082641 0.27697088490980654 11.4968230540422 1.2321698225876971 0.4133374861868559 0.11030623915643584
Ni 2.9860673512795275 2.5428101146006723 5.798490654639371 -0.06555207486919679 0.1121890580014455 -1.5104488023741018
Ni 2.435761170858913 5.9978480318805305 4.544189984926034 -0.5053027609422589 -0.14069076498556415 -0.9321197696727882
Ni 2.9346499955777197 8.762747260407249 12.99916246170811 -2.682420358205348 -0.23258996238972202 -1.8188721669543706
Ni 2.9036339898042756 5.398115325162883 2.204873335199057 -0.92510914268291 -0.18650730909904653 -0.9654960311403887
Ni 7.158334121923285 0.8945047695061242 5.269489139732183 0.8526153463885574 0.24683027435882007 -2.093017841298692
Ni 5.761506812122176 7.519325450067477 7.661172045157636 -0.5650024907957367 -0.5579826078344777 -1.1971372564635965
Ni 0.723537177753513 2.8718737487393264 6.961851353495561 1.7823748433592852 -2.3070575514900526 -1.3921271491123572
Ni 2.617112705516239 0.34590288790305507 2.142458972771158 1.2785764348766948 -0.9955776810171177 -0.7594329113966017
P 6.625731438499331 8.616579449155791 12.588415283150395 -0.383915581381313 -0.5934643456808554 -0.5248657706758509
P 5.974609284903307 7.117661663242571 2.2604667811803187 -0.3623895343840791 -1.6106979144048517 -1.2031225275127537
P 0.8852585763032969 0.32381863592177745 12.083337211688615 -1.3283265097166284 -1.2755857276794869 -0.5233634750987116
P 1.2552086367689723 4.084726094480557 1.07881463944718 -0.700929001623438 0.503389603079946 -0.13797670848851076
P 2.543833438126491 9.236313479332619 5.59320544330138 0.16638945530324892 0.19328807946630583 0.4020845389808559
P 5.701874959390389 2.321009391850084 5.678072454179851 -2.4758977823266393 0.32264799282008305 -0.5200310682913689
P 8.525057114183042 1.2992208513203116 7.774156265349142 0.44848446640163403 0.9464742386222476 -0.003628597891522783
P 2.6209455172674865 3.0466201951845515 7.859254919462095 1.4103447005616485 2.2901396926887916 0.6781703677706837
Ni 8.192216485940003 4.8725270593613565 9.838296567512954 -1.7718168653377808 -0.1848605175242429 0.3309364580811204
Ni 2.6283692643002423 1.1988886310843796 11.247027920801674 0.5313956013745686 -0.9600805165517724 0.7225962021842266
Ni 8.959876583244467 2.404028838617396 12.697014096886711 -0.7004762303567357 0.43038749969060713 -2.7816068332995387
Ni 8.009097392465355 7.260992077445168 2.877875076071195 1.6484905597725934 0.2670532862739143 -0.5983615258721566
Ni 7.066560607539653 3.4815047848339824 3.8607996496786097 0.8027233466541208 -1.3825557033738383 1.0420470282232503
Ni 3.0625096186581695 7.930999201563115 7.544443391155749 -0.9265037090375914 0.4620462642464688 -0.08171582911325281
Ni 7.509445726572757 1.1807758046773922 2.78959016461649 0.6067782891809421 0.7059161704253842 0.9219065765852122
Ni 0.916335051194176 9.017080368337721 9.860817127433876 -0.4823957744370983 0.4719483538515291 0.4098978643776876
Ni 6.662022211901312 2.681572784701661 8.404499369606365 2.0456732905764574 -1.1071895263588547 1.5425914485449175
Ni 1.9531710990240523 5.9083909498417055 13.425623238151827 1.9249941928261298 -2.2617212894470984 0.9307851100217649
Ni 4.666932060083277 0.5948021479114313 4.403579750713885 -0.2316844198563171 -0.08561079329228481 -2.580511599083988
Ni 6.429551015658781 5.560823765768024 11.486855882900727 -1.258334396798207 0.7672616634124011 -1.3154026025661087
Ni 6.159765722488449 7.979076801394297 10.021469618046236 -0.24733909567443854 1.4830817232150588 0.8213859560606307
Ni 4.567623163373163 7.122917824988821 11.836905091671577 -1.0096999793511126 -0.22667231135370638 0.11296553115615383
Ni 2.8742739075544286 4.4901854812921345 9.876502816496444 1.1868960383515623 -1.8872213449527304 -1.0962790500939377
Ni 6.14037839314476 6.329656033656608 0.02700271696400708 0.091631545565068 1.3116595905839088 0.8772233747452247
Ni 0.8609378972710486 7.444399562095275 1.5960432823368826 0.6428974035010024 -0.030517194752250672 0.402302568528933
Ni 5.163225364222962 4.276859737923552 9.7676174721729 1.8189870952656804 1.0597215626848782 0.9592837316820898
Ni 4.202473420537691 2.261191480295421 9.355970699206576 -0.25833133301988415 -2.237470387319534 1.6391376578027839
Ni 3.1023727214593717 4.984004203087568 6.5414226040894885 0.609431410533073 -0.07473836935415515 0.8400228544355276
Ni 1.103254396126069 4.474882143110576 11.075183061699203 -3.191806030967729 0.6159923515800424 1.2686218947671442
Ni 8.67263897248836 8.965718830282777 13.724721168572174 0.9940892693970491 0.7477860711862928 -1.061106873068179
Ni 7.649138690788125 6.100347837402969 6.636801008166344 -1.0699990333514864 0.005538927540358202 2.025866283152859
Ni 6.557345518151224 1.3745839775262723 13.419060013174873 0.05968841699956818 -0.09189174120499012 0.42635909525750443
P 6.831652040717445 2.9563351513839278 1.6804339826287913 -0.13666390321435817 -0.8355319085437094 -0.5815233712688953
P 2.421174159145428 3.6535533783475036 3.6457649560219108 1.5331974089245273 0.46792380607316836 1.9575667274455126
P 0.4428283710921259 6.715337367596456 4.024012309693745 -0.262503976340335 -1.1698488530612885 0.23983661664980632
P 8.658284534303467 2.7144772875272976 9.902318478170502 -0.02189500030087842 -0.055325512045182136 0.1836299875512515
P 3.114010700830271 7.383055968193029 1.0865909679492862 -1.5052960545285687 -0.34111622682759957 -0.40472994702350296
P 4.677100174753455 1.3404421835285096 2.3665882216900402 -0.5255175453272368 -1.4296354304704606 -1.9713941202469083
P 4.755226274479125 0.06315952801351783 8.621875613548958 -0.641502837146321 -0.38249838931881225 1.0161197668345274
P 2.3955724651176773 6.341061439498912 10.827933213155623 -0.0642364413815668 0.98002302111197 0.625940978152322
Ni 4.412673375681955 0.7693048572986882 6.51371472418678 0.12510473762184907 -0.7188732448066845 2.558831285897077
Ni 0.31826384976481176 0.8390090044068726 5.600898045333191 -0.4440197457620611 -0.5217452227689983 1.9981785874296036
Ni 0.352619611408882 4.008116374161326 3.2300611704227755 -0.8673459677305128 0.638423684000365 -0.34046368084526524
Ni 0.7425421562161914 7.402173512243546 12.592689984605974 0.18295995806742038 1.3594664256545426 -1.2810822320176842
Ni 4.802727091959392 3.1182063272861273 3.466036784594179 -0.6167032616041379 -0.914831929126618 0.8424607744530588
Ni 4.190072599993 4.70095291584617 12.691227667495266 0.7383442090471025 0.06872147373611391 -0.14651662763872186
Ni 1.4156378567938819 1.6654869470930405 3.746317655962951 0.19505134201431568 2.1920294813779155 -0.7142066925689505
Ni 4.049179556370079 1.7917557672378996 13.436025786938828 0.6164047565271126 -0.5768349646542904 0.44579534960524514
Ni 4.698422515855055 5.3030764784377755 3.8303269356679635 -0.13009781996106629 1.221032317913639 -0.17795787686713868
Ni 7.310158121390176 4.924111868003753 2.159737325357546 0.8542672801696836 2.276049276033996 -0.5014149958520784
Ni 7.043117195857266 3.804577324876027 6.210544896427791 -0.17953447732563918 0.912106559775655 -0.2420742477310734
Ni 8.386954952903263 8.551663525854323 8.190717782121736 1.004948066488424 -2.205421072193473 0.8005913879127825
Ni 6.639955635508208 3.7941580307949656 13.25910152197184 0.2722669692643698 0.4740551157818868 0.2839364351824981
Ni 8.655279684314019 5.8039654355025005 0.2357142015252621 0.3339983848358957 -0.09336395487514243 0.08002738566723636
Ni 1.588737682656653 2.3367964829711205 9.754940354276236 -2.0604008265946194 1.669694447543718 -1.2140715703250897
Ni 4.837306124190913 3.5291358434902618 7.621141489415845 -1.215536070685758 1.4974595892032856 -3.3222149544113107
Ni 4.727931445163203 8.644162669647171 0.46799096629788844 3.0260755494047173 0.1733751425924627 1.3325981405087888
Ni 3.969946406648296 6.217825378166933 8.89788085316804 0.4081189181003939 0.5400003123244442 -0.13708633546375745
Ni 1.1166506313731475 8.772292078020792 3.989591427461668 0.20937135818141359 -2.669181233807255 -0.8249034822955857
Ni 9.115170579757997 2.243385650946179 1.2489031032617017 -0.8289995067418303 1.1580706294794378 2.1419603326356658
Ni 8.34562198540134 7.854966263594801 11.257361627824212 -1.7231394547367356 1.0148270161650328 -0.297400531107204
Ni 3.976151468391214 7.474280609049176 3.007456673557363 0.004748570428578919 0.880207139963897 0.4437019574113261
Ni 4.183430300016323 7.479639103148006 5.584980713036142 -0.02958182742217486 0.06914364887519706 -0.8071641560342938
Ni 8.612495457993662 4.055347406348422 7.78527979207479 -1.6784948194441673 2.0920770746519777 1.5707360292999335
P 1.5668013474395617 6.184437122401818 7.488619232234122 1.2261336436959462 -1.0506185719423455 1.441491301367782
P 3.9359534597088346 2.829312793006421 11.566399750856714 1.2044407321035449 1.100230321432202 -0.6341916481968884
P 7.802506978484887 8.228572379929991 5.877271681421565 -2.1410493907856227 0.35534085506741386 -0.35034237341155794
P 8.192923509466933 4.6900219600022 12.012017143703753 2.012739258852598 -0.8609580619262979 1.1053812695055223
P 5.315663357805343 5.597849471520366 5.875583197603965 -0.9423363051944738 -0.45885346834078394 2.0908326607219156
P 6.212792487008135 6.102906146217515 9.164995271935986 0.6837041531047192 -2.0493723366945997 0.4164222957597667
P 0.36273655990276943 0.2717277472811583 2.0168125193888193 -0.36780479186237947 0.3514332924828915 0.5963637787158375
P 8.91608763928058 2.816195645993657 4.981651489272299 -0.14053881278873215 0.5262652221265389 -0.3250195783760531
