# total energy = -381170.2042811177 ev
CRYSTAL
PRIMVEC
9.24536109807492 0.00000000000000 0.00000000000000
0.00000000000000 9.24536109807492 0.00000000000000
0.00000000000000 0.00000000000000 13.53152050245185
PRIMCOORD
 96 1
Ni 2.242739633194607 4.9464714487222565 8.587089301522072 -0.4290708377617127 -0.22048880825081382 -0.4301689559218979
Ni 3.3283299033311007 4.032114506751305 11.12029783259689 -0.913020329839176 -1.265728118159117 0.5677319739117577
Ni 1.939343871784292 5.625228860341579 13.401563808958638 0.9245234453827692 -1.6114085673186314 1.5533479157304733
Ni 8.07588741352511 1.315198806662127 9.93389522329675 -2.01647815706974 0.4893524082605895 1.8259846096294359
Ni 3.271433952705824 5.436484818740177 1.9081204391467093 -1.6667945002881035 0.6288113577215815 -0.5932427165883525
Ni 2.124315806161918 3.1886140102779352 13.024291142663468 0.5024071845620186 -0.6307414848647588 0.0679524567805733
Ni 9.14376357228721 8.423217129659397 11.248983085628765 0.22388292153402736 -1.1638900643746923 1.0714283095988453
Ni 4.7149583678630504 1.966007492454311 6.9980151706200076 1.3182344155879493 1.9850690466308392 -0.569300089729826
Ni 6.0259227992592725 9.074746953597302 5.672075103730964 -1.1859830396189897 -0.188669606857688 1.176904217246173
Ni 4.7513111266961 3.8638581847770754 13.016618417700206 -1.0013318098920754 -1.4376973815429883 0.7310456185031604
Ni 7.643907173516105 6.428280903128632 10.731279859887298 0.3925444607009046 -0.2348589609295568 -0.1270657180029618
Ni 4.137983133759762 2.9311861829769597 3.43457019384543 0.5844063492436451 0.14177268519583325 0.8517995353554815
Ni 1.1276196805268919 6.764987699654786 9.903300475196462 -0.0763422235061653 -0.8106189473521136 1.7578454907593535
Ni 3.9419075210101897 1.5287573967650303 11.866561170944442 -1.2662173990907097 1.777135449337217 -0.08521947139113711
Ni 4.527850755130787 5.404209264038709 4.237138704260416 -2.7788215572449175 0.8799983663872005 -1.2902795822462358
Ni 7.590857293001344 7.226756492298606 12.91464486121473 -0.45976286752893075 0.08781705691498425 0.9014848183957507
Ni 0.6759218594489013 4.058750391338796 6.7099426702701965 0.2042360938373773 0.6737868939910073 -0.026687793703831456
Ni 4.01397510877815 7.929598068912867 1.8929108960245702 0.9106119775079994 -1.6739951318016009 0.39798800031397913
Ni 8.423059958525073 7.188240319028392 1.8063086764759793 -0.8729427450919999 -0.56850021953635 -0.3213033058667305
Ni 7.166809572595276 0.5397866946500695 2.12312223007714 1.5637382578258616 -1.0335266494570652 -1.4056424099899725
Ni 0.4920038962073302 3.673588658636647 9.90217716385409 0.44674074423765 0.7974258457006073 -0.36675603888289093
Ni 0.3871522588915579 8.857730598539272 2.485578281085981 0.6313323243712223 1.418051582287603 1.1200280728844194
Ni 4.537687819067299 5.302824637038906 8.102133143885045 0.4923796251226875 -0.6111566207542958 -0.7482141598626468
Ni 8.704081946696329 -0.1181085602279569 0.38877666879160033 0.3771422672132214 0.5253254839210889 -1.6364264295192075
P 8.180988675583633 7.858824831662868 4.293469763338211 0.3004665716270374 0.42345760533999327 -0.07815973633087829
Ni 1.0096211400929618 7.426271379281621 7.83454743862632 -0.4962745893017195 0.9336071528515922 -1.4314488295301155
P 1.0079015029762406 5.083080900532313 11.538218652372576 0.6691969606274798 0.04977475743028202 -1.227126346626519
Ni 1.9030003583120847 2.164209538197678 3.663293949338427 0.629232247309084 0.5396768675467544 -1.467952323772788
P 0.6789931683208086 5.629158138699679 2.1167900824360526 0.8213684725591338 -0.3649243849907909 -0.45591701142027935
P 6.245185777002052 2.7116088629655333 10.792131900417118 -0.18516853568296496 -0.07913032777426372 -0.23514126805666602
P 4.338533501157146 7.64607058795327 4.042000571100282 -0.7080956945752063 0.5764847804037233 0.9353871275701503
Ni 1.1669124641078839 6.730974017114911 5.630885172105073 0.09377584560158043 -1.4198744944289547 -0.09661511482258844
Ni 7.662601293139814 4.952074137392864 1.8869032605490574 -0.037465858155941924 -0.07204591012365656 -0.4101989405578742
Ni 2.1746383052281155 7.203513655140344 3.3738947397077035 0.010767522929149198 0.056119468701387225 0.0906676389899019
Ni 5.368226319639363 0.4042950069658816 3.4013774993483756 -1.3344632187419858 -0.4504076515662759 0.6234590922707327
Ni 6.890234602989305 0.6841169472997698 8.257393262122852 -2.256874245767442 -0.12231689046406678 -2.2570688782767516
Ni 6.797854957450181 2.9274233211140275 0.9070068801010953 0.918664929719463 0.47248031509559923 -0.7151932248519359
Ni 3.380390530235705 7.301274100689852 8.416781433976873 0.11490722826355693 0.5006035556943765 -1.1096127910883664
Ni 6.826950108021801 8.89504487489995 11.421008741218518 0.8793897862689243 -0.7119286951680514 -0.25427464645200726
Ni 4.297151266025729 6.192459484116782 12.602432723704926 0.48296141713258117 -0.3040123799967667 0.5816670959356112
Ni 2.883665028246066 8.803811654105308 10.12502734160379 0.46219410267824274 -0.18011066154408337 1.3358331025063188
Ni 6.130173488120278 1.3162620231590245 12.714161984951499 0.09893604964628122 1.349869268884411 0.13078404739481345
Ni 2.1740466021341898 2.012465430688308 10.273170381064974 0.749797959409999 -0.2677814226891905 0.33786763798331493
Ni 4.474283134408842 8.444185608050383 11.922338432907765 0.14356602965083015 -0.42181441330961544 -0.2742235787701084
Ni 8.697314342559554 5.722369866714634 4.114542445879468 1.3809348799409638 0.32965193494174194 -0.699959438621317
Ni 9.074931860814155 1.7630348405161693 3.230961461081318 0.6843644123965376 1.8680997936319312 -1.6870612209569398
Ni 2.257042206418088 2.4520083758665496 8.015612283511869 0.18417197609765057 -0.3458624832633334 -0.8390291230636905
Ni 3.3138609136124533 7.930134299841737 5.962068790063865 -0.009608212513725387 -0.10418341408814961 0.24327392446612942
Ni 3.668050687491938 0.2344466338545585 0.16850132403655826 -1.804482473891602 0.19305385196831268 -0.5858122284522363
Ni 5.697703243986613 4.882336380557235 10.492056148085375 -0.41264585943647 0.21559934136899644 0.570851493377346
Ni 6.2337770017223 7.185836525209319 3.2213546066297867 1.1489604396480533 -0.49699141286308596 -0.4121372952311676
Ni 7.8286109924292955 0.7772306744897944 4.60131254331381 -0.9478258675541352 -1.7443937361298214 0.8603780210531118
Ni 4.439918128156948 2.969554430473693 9.23876705123346 -2.8794064553485312 -0.7479159118959376 0.8590631588964303
Ni 2.0883513524842567 4.589711464528532 3.7703413598543136 -0.9779782227677997 0.5398645580775283 0.3886232712696275
Ni 0.22243321197570173 3.5088548191434428 0.9541471259652748 -0.20531929959922707 -0.7550931463706673 0.7540644479958368
Ni 5.46051351157006 4.218648907111328 5.858999658318544 -0.6610959287869002 -2.091083857500773 2.296411898850748
P 5.45980161878518 2.0126041111009463 5.0338881845610794 0.6610100539413133 0.02197007651318797 -0.6282914806623696
Ni 8.771351192186987 0.43141165031718753 6.775232484004457 -0.03138545628981691 -2.0604599619673287 0.9341961925858426
P 1.5894254546140822 9.48638739975262 12.76104890792859 0.76529194128054 -1.534436680648267 0.22726417930143442
Ni 7.700719915893798 5.121726508854324 6.238964573691075 0.057817425229100425 -0.5131834492419162 0.7102268819855962
P 8.31330827996273 4.575482854191792 8.392736099497474 0.9067848904524254 -0.6913063909320094 -0.5848825175491152
P 3.1475276266934817 3.0086253253944633 1.4875471253452857 -0.6091737859963122 0.3826791378710506 -0.5332894759631718
P 1.9142704531791976 0.07534414365057353 7.140122838523151 -0.8333474992978809 0.4305929308331939 -0.5769411512148516
Ni 6.664684779873567 4.692492141015565 4.034192863868719 0.5804334806388263 -0.27286269386683976 -0.5085413224842145
Ni 0.7798323190308983 0.22809507095570164 9.443674757195954 1.0229756134140962 0.20343982318832707 -1.8828846652505895
Ni 7.527619024838052 2.4433916995612592 6.252022721345145 -0.7813883326217703 0.8313271264337424 0.269076230241214
Ni 9.103953048499033 2.193785447533112 8.187286615389603 -0.03530818838299081 1.294978530383802 -0.7155678345825355
Ni 0.9175854219771826 -0.2971921242849396 4.757560990625688 0.5036382287556423 -0.43292363584889954 0.34821015755990353
Ni 5.164985552236786 0.8548140445364425 10.134648064096586 0.7075105114956975 -0.2622442949210451 -0.7925620898504028
Ni 3.6210934997724418 5.950563863031351 10.239855647804797 -0.3812696591180337 2.3537757814821982 0.4044103589005551
Ni 5.802628844189127 8.658483827020692 0.5247343226622545 1.2440706877903414 -0.8637752196601188 0.05897930674768552
Ni 4.900642195025556 1.7013497929744328 1.445707244852161 0.17378523354668782 0.11369212490953323 -0.3437238396537758
Ni 5.235333502888026 4.557657798487286 2.0461416575574285 1.888507924974638 -0.719275879561742 -0.7576189981163146
Ni 8.16232229204245 3.549580633655036 11.650205859186656 -0.5023822448613542 -0.3591877396173298 -0.2209788605133549
Ni 8.157449986878408 8.122215916707312 8.969138121228521 -0.09659248911476913 -0.5087310698975174 0.24609185353089874
Ni 5.609308348970646 6.5836399467274545 5.935249847331691 0.14959063857835528 0.7493014793895547 0.5256784963851334
Ni 3.809717351682889 0.4513714598402473 8.125935325374284 -0.3938228131926959 -1.5695525505147936 0.895089199282052
Ni 2.174887929970865 7.27659823260099 12.000482996357556 0.15233631964429248 1.9864301886444242 -0.7812852313850028
Ni 6.637762289099956 4.996877156036038 12.63105173819315 -0.007131211728142557 1.1180130993369197 1.2311763483261764
Ni 6.315977504973736 3.6828710009226038 8.64656008514201 3.0354117392039788 -0.3566035238299214 -2.2725965415987055
Ni 3.425674307642693 0.9561829544228124 4.888464205723701 0.3085799447627911 -1.2743935071435988 0.43558832716525625
Ni 7.828398349129916 7.489454175279857 6.457349242153808 0.577769817763734 0.1279028691922765 0.0041847275053089215
Ni 8.928494590428429 5.291831902997071 13.158780633232318 -1.0406012969156595 0.8354164660117677 0.25368997759313083
Ni 2.696816285617395 0.47649018071347027 2.156585813646881 -0.9975916261233527 1.26011539995803 1.7976793349268394
Ni 1.793082263254575 7.801864163511692 0.883963742737033 -0.4079114300752782 0.0006432900109537308 -0.39851096269698466
Ni 0.8958597485331891 1.8246366798103226 5.731492264258014 0.30708022028881304 1.0759274830207792 0.19040870103598176
Ni 2.887603551965008 3.106995964759583 5.606852781130853 0.6946974188914294 1.5216058474321859 0.9556039688376574
Ni 5.483885783780118 7.615237309543245 10.09494663556635 0.050806026908273794 -0.9563593589464433 -1.8524286627535773
P 8.771711761259848 3.5389392233252193 4.709361226408949 -0.02491064719875065 -0.12877653004648146 0.03175389537282918
Ni 6.8616387019031855 2.455151798553029 3.2236548524074222 -1.3687252252486493 1.7427950241841341 0.9033804927565667
P 5.545543095239327 6.467610668152995 0.9335447638636554 0.48441846129408195 -0.3574273052827973 -0.47923331754871656
Ni 0.25901248214939476 1.4416198708236536 11.584524042152669 2.088484729315029 0.7864557198423487 0.5955898766642904
P 5.624424513948274 8.050065120691768 7.706742343946658 -0.1216779713284872 0.11932284083274931 0.31722425070135046
P 8.304173863450254 1.9490792367515353 13.16035049550339 -0.8643328919358018 0.6482964630293867 2.125607602309255
P 2.9331831809189586 5.182403812064218 6.457795793082505 -0.32514119155558197 0.27229705117135683 -0.17058163900772558
Ni 6.820922132752434 6.197341034641667 8.411355331698358 -0.300673802541837 -0.33721714888350957 -0.15582530663415745
