# total energy = -340891.4591999964 ev
CRYSTAL
PRIMVEC
9.08551610734384 0.00000000000000 0.00000000000000

0.00000000000000 9.08551610734384 0.00000000000000

0.00000000000000 0.00000000000000 13.29757120114358

PRIMCOORD
 96 1
Ni 6.562113862647373 2.000512508739551 11.301472428299022 0.1571039162362649 -0.47372884279071964 1.076236786731082
Ni 4.524005488751548 0.1887098012667595 6.063466220292648 0.12593597527389278 0.4105689223027833 -0.07236704090850117
Ni 2.6738219275411637 1.7378048139610034 4.780729462700729 0.37478328006274164 -0.16644679090374562 -0.34565653790011436
Ni 3.465542876207857 4.217133100757765 4.828521093898174 0.04997607480781071 1.4544074952088177 0.16492726893542564
Ni 5.207845020582673 4.965915900867537 2.6201138083326594 -1.3470693375417704 -0.5393644785126581 0.7664360821873122
Ni 7.335191332507717 6.049445452020739 2.4546120491043686 1.069756321213061 0.9904226191787395 0.9509078489135688
Ni 5.007118715870846 4.32154385048611 11.482505877107943 0.9368297735539478 1.6323098362476725 0.6561221297213927
Ni 5.5722196392613395 8.044770131131427 12.670005530464096 -0.10947294462186308 -1.478395630593299 -0.3501672812862744
Ni 2.090468202531784 6.534630176785186 0.5368313403953889 -2.4662602592368748 -0.06670675729893029 -1.8361610359418055
Ni 2.8766651574780773 1.6095718413134357 0.4385551310618043 -0.5199549636377948 -0.07664432812761639 -0.10966166359390145
Ni 0.6861481614435481 0.036690039212319205 4.921404140941579 0.8129406535067547 0.3756818806176111 -0.3885721063167179
Ni 8.487071220434878 2.3118095430192467 1.3416581458740504 0.8305892198264534 0.06521011814874576 0.12957871423280265
Ni 7.007077008135161 0.3259765024606981 4.711356096826578 -0.43638305515240977 1.8870025440737048 -0.31441994848333593
Ni 1.0615244314314785 7.37296890798374 2.495462346087364 -1.063158356280569 0.01276681274736511 1.118109258595152
Ni 7.446906837090011 3.6230039537872107 4.042594887328308 0.3370564549359292 0.9028169069436128 -0.3157450950526627
Ni 7.500602236576133 3.986170198839541 12.890984358863657 0.7665728648754927 -0.7250058400669837 -0.607657606462102
Ni 7.676924845345535 8.722758590666603 7.0956235383977315 0.17317228255303727 1.328281515411306 0.12512299245429417
Ni 6.794485019543659 0.7797716780399341 0.2897988863500739 0.6566702889153787 0.6217287398431872 0.602373218134711
Ni 1.7391494703271533 6.397856819109369 9.298938392252253 0.6015010999424028 0.7498216135590828 0.15296649702912365
Ni 0.1464576091668931 4.878258842620141 1.3736655101464124 0.38126554535297563 -0.5674923470971259 0.6861952949576892
Ni 6.419662057479369 1.8456771452805847 6.792585238150673 0.6952430069822543 -0.08172071420925926 2.0669206299910083
Ni 3.2604282672740688 4.460643100254727 0.5140775741562952 1.4192638574281493 -1.0006684652764637 0.03881851552909444
Ni 6.193732531418218 5.594152074855164 4.830023838242506 -0.8825548142604672 1.2968736905239857 -0.24872337761647487
Ni 5.363961441795876 2.979231547460959 9.4247864169531 -0.2042358367270612 -0.611479037090721 -0.8946068603289947
P 0.046019047028283695 5.703850594888233 12.70904690121398 1.1350893380929161 0.3877041018894678 -0.37461230170251614
P 4.00219704904149 6.15655459999737 12.827209487941005 0.5682526223019182 0.6566844299827658 -2.5163391781711373
P 2.4255874597307026 8.625807049563996 1.375021977683346 0.8813183707502048 0.15431221242374069 -0.5902620366934737
P 6.26051107392634 7.714947729753221 5.834282262404775 -0.8812119270793276 -0.5435204096625608 -0.49036927956087795
P 4.7733756460604475 1.0157970294663936 12.874402383634871 0.19327908060524132 0.6523053270784637 -1.9265792779250623
P 3.8890642039651464 6.103931291397773 8.243949172470582 0.8806948782335929 1.6755277663960435 1.6462027921796811
P 4.700964083640076 1.1152834295295129 4.0021170965007995 0.2065356885048314 -0.4793965825994582 -1.4160209250108193
P 0.19010987928043316 5.785374929844066 3.800937424541197 -0.2191387219808226 -0.31467680168914836 -2.4198546753891423
Ni 1.3382965049586755 1.085328483318727 2.4629761751224604 -0.07561717241468267 0.795317541108353 0.7166135022382304
Ni 2.021581820314563 6.4827427949805765 4.8307552222795 -0.4516250689131448 0.8680129118905502 0.4228456827876072
Ni 5.941236956609619 5.455616127077771 9.331942437628443 0.13917921343704417 0.9940563592765849 0.13514746656983176
Ni 8.88616159570178 2.132307003654219 10.052365708134833 -0.5412010175007648 0.8596843374201968 0.05822957306585456
Ni 2.349432664723482 5.227824070239184 7.127378325325641 -1.5946593728847505 0.0017244388902744497 -1.0180627494935113
Ni 0.5395188360244912 0.10691290083130156 8.958174303970301 -0.2266720542433903 0.10476165518912281 0.1794444887149942
Ni 1.5664610679527504 1.241590272787731 11.442227059080562 -0.3684892195239138 -0.7395305160457198 -0.1647570619061485
Ni 4.074308789434274 7.1516366530122655 1.4318427946691679 1.662912134514562 0.12508699701003617 1.6503929190016287
Ni 5.428105184667623 7.831996432220177 7.956122751641395 0.33271926101315596 -0.1943635719186717 0.8627367510932754
Ni 5.259041903172232 2.8004740204069067 5.1304028079600235 -0.47802104240817034 0.6827204490352113 -1.0531359390475603
Ni 0.5979232584469342 7.632124166011176 7.149492471239215 1.4922412782271395 -0.9721711291677194 -0.8982516561704336
Ni 5.05052931125912 4.58297048751042 7.219171110450546 -0.026009279579568112 -0.9774130942929489 -0.46674469816340264
Ni 7.973530600273444 7.223394058281536 9.048398929035763 0.4433692566622558 0.14901882523528528 0.7614242307950178
Ni 4.731373305650237 0.18729064366951206 10.63963892474122 -0.05480614920660238 0.6865346805749788 -1.1842917679594958
Ni 8.260233142774979 7.45929948089696 4.943372010047754 0.013940521340492118 -1.993754233109663 -0.6250009828365559
Ni 7.201779615747275 6.1982026052840675 7.046901550363167 0.02902029849175002 -1.514559996328998 0.13881026013339964
Ni 2.318914416521471 5.143828474934751 2.72255754384971 0.15858255766432042 0.282454708430649 0.16703608774831236
Ni 2.4953278804507484 5.1707579443217 11.407999194700857 -0.3737954622281756 0.5016448524746974 0.6654958576268087
Ni 0.772428764018837 3.3049018680328786 3.739755559881376 1.478901109474808 1.14242700940491 -1.2729349203202012
Ni 3.848043099281586 2.954600713618848 2.778075497842924 -0.24014566324979286 -0.8353868983254129 -0.3843670670964348
Ni 1.2053481495135956 3.227438758723458 8.05509672860282 -0.9275946281089251 0.6840358254125253 0.650392426326467
Ni 3.55517149142454 2.5685843958579575 7.195528780747875 1.0445908776910267 0.7219107460814277 -0.6653917279487765
Ni 4.089817765224935 6.620161224291507 6.087694565776513 1.0398155677895706 1.1825511311193053 -0.13480653829064526
Ni 0.952725377481172 7.483148960364146 11.550057597026601 0.08371151938704292 -0.8877096189885293 0.3103609479226139
P 0.10092827145033564 5.684480274802884 8.084962636756929 0.25722010223357633 -0.9698010862736459 0.03631657504284713
P 8.45603509782158 1.8260796872955485 7.729877958175479 0.5655874167649291 -1.7581157137016041 1.2583768200003682
P 1.9118015306376062 3.248998688161794 10.531197840120821 -1.2356696082108396 -0.28051429687482654 -0.5986312345937755
P 3.946793572549718 6.3380014397837225 3.900802690620995 0.139372817505089 -1.12561533716421 -1.1752466270380921
P 7.084131269225144 3.9426414917434305 10.535226357909679 -0.3056835970516026 0.3729642245761319 -0.00873840831426237
P 6.278872901737076 7.691607039181334 10.335031555883122 -0.3215948689652203 -0.3133462558031829 0.24036215013597315
P 2.5265911409637347 8.345073691066247 6.0690510869701635 -1.4217092336448485 0.17444934949324795 -1.3314696833313004
P 6.995556573863011 3.9294493225295812 1.7829916277248319 -0.2539491447917885 0.41317319269484976 -0.5141391282869662
Ni 5.216667056606535 2.949694534985598 0.5783030866719291 0.38295476012994045 0.045134173334477105 -0.19014670562384672
Ni 1.6736610710892568 1.1606383253391104 6.884817762249374 -0.9790285184091848 -0.8649707826301167 0.452891080109762
Ni 6.873565350698855 0.4979080813533423 9.212065414034578 -0.6579347574500991 1.085751925310369 -0.4569706494957743
Ni 2.733595537222923 1.5679601780906878 9.173355664618239 0.03007727900135465 -0.4152843255005816 1.1384415423946006
Ni 6.42339620455023 2.015185617059363 2.7303765389085517 -0.3324045579862146 -1.2055231665344464 -0.052354088121684024
Ni 4.209801089355853 6.774769449850785 10.588137677366081 -0.009532622080783582 0.1785605434481441 -0.3165045989265065
Ni 8.000623608948167 7.685310776601998 -0.07517355928057082 0.20729596370962364 -0.9712373044995403 0.7754516554223613
Ni 7.779382209136568 3.8503780768903733 8.384025115207857 -0.37753281778342074 0.5122627371998597 -0.7493850402422965
Ni 3.171253927856761 8.456916392872367 12.237049802905387 -0.7889365772826735 -0.1039692411948145 1.128384929489547
Ni 0.03110698963800077 4.8953486981926275 10.422583222145063 1.1833193767438974 -0.9864335526240043 -0.3945962010236107
Ni 8.869916693116132 2.5076932677097354 5.666082104928198 -0.349738678389288 -0.4111397072045887 1.7379631500131294
Ni 3.7776212648624776 2.4561057079327133 11.41498050518565 -0.043213045052364285 -0.736687647280286 0.40966286554874604
Ni 1.3903565115670478 3.3714623581573 12.7471179388564 -1.5548581817274125 0.25758699865469187 0.15145108882586172
Ni 3.0470730953396177 8.339486098733936 8.164296453808173 0.622102064022206 -0.140572494240145 0.010673163443130006
Ni 5.43781760125826 7.9223428031998715 3.5813686682228956 0.577535847376057 -0.32393611550388723 0.43499671632784437
Ni 3.1228462986753636 8.63763639137972 3.4378347781007803 -0.5613458678797558 -0.2437215535265093 1.349914006079417
Ni 3.289674543237829 4.303908863954373 9.19997804356481 0.4931596978218217 -0.9586126737569941 0.3701840907278334
Ni 7.443345314822912 6.092538054349449 11.443876080232293 -1.9133473526158207 0.3673844164955092 -0.08901184855403381
Ni 0.7832714187983189 0.13821704616623107 0.1651528754143708 -0.8467257203769998 -0.3317460984666093 -0.20046685660293218
Ni 4.662159844857466 0.4804629821057445 1.6955735185479082 0.2176963331073412 -0.19410466183033023 0.6705154223285872
Ni 5.900879094593146 5.5871562275447895 0.4759147728024023 -0.017479130621369895 0.7785580622618269 -0.9128123275934279
Ni 8.104888990420712 8.679902211753568 11.05411107857496 0.07272056759317798 1.3736560868913632 0.5238910654674075
Ni 0.09016193500514874 5.208953453533147 5.770972569900681 -0.39169599665768023 -1.5123097668422407 1.5709797698796235
Ni 8.198951337439293 8.738312994037202 2.096574577826982 -0.13942886755400502 0.818471353516997 1.0745596561389752
P 8.605137500692434 1.4914692189919296 3.6856213299730576 -0.7704017517032796 -0.4026861771205968 -0.8166291581019356
P 1.9384675200609172 3.212193262896434 1.6442975919692573 -1.2820870191331146 -0.514145041824237 1.0220520731585625
P 4.772485265493672 1.0670302541199033 8.40208348678461 0.4478843709237899 -0.3924637280616402 -0.764865909486715
P 8.496929005281315 1.6856812087407187 12.452816270782922 0.5219455117052624 -0.27044251446112133 -0.5032073118658108
P 6.277728126722651 7.852738665219638 1.5360027841562571 0.6074426622378183 -0.31667583439704816 -0.6872260502150487
P 1.8123878147023866 3.4673327228573947 5.930889462451456 -0.3398003362296535 -0.7237948504780181 -0.24815542092814685
P 6.8168717309368585 4.018105787535601 6.121497228008005 1.1341503712184144 -0.058210289792144904 0.5268136384308411
P 2.314644224007346 8.525003249682689 10.148945651633552 -0.25110344781287725 0.3518742366750521 1.312348132010501
