# total energy = -340859.89364627056 ev
CRYSTAL
PRIMVEC
9.37774606356088 0.00000000000000 0.00000000000000

0.00000000000000 9.37774606356088 0.00000000000000

0.00000000000000 0.00000000000000 13.72527928112139

PRIMCOORD
 96 1
Ni 8.239766044001962 4.303747802148872 9.67674715959525 -0.5737085032101668 0.5466697539248199 -0.6082312195773847
Ni 7.849239182783552 0.649263566732928 10.117562184613577 0.49880146948863124 1.7800665069410826 -1.8597951304209777
Ni 2.7564290629745245 6.251983945290406 4.322858711054765 1.812336422718382 1.0264460884612 1.7213399396341516
Ni 7.003901010398305 1.1884230157642577 12.10188108166708 -2.3720462976566115 0.5222918393010876 0.15055531648446974
Ni 0.13418523207396302 7.052956000577767 7.761961437017689 -2.952474378978799 1.0036231770294133 1.306665479803427
Ni 1.1489989708943555 0.9876079594264648 6.782264544254461 -0.9314278858120862 -1.4439886138683389 -1.4030661646223643
Ni 3.5994978207882875 4.841599055590442 2.324184360174704 -0.13022457534691764 -1.438703968430632 -1.2697986886840646
Ni 7.764933244776792 6.168418849230536 1.7337220752086044 0.3301440440868121 1.366193202855415 0.8080686701264341
Ni 2.9315678503176 6.910142304259086 1.8398322108193155 -1.9000863738408567 0.37448863164045826 -2.1550217938053144
Ni 7.002719414381748 7.3092404254706205 4.166514802571884 -2.629691917463381 -0.7740079809972993 -0.2897425003413139
Ni 1.8822355656452516 0.7679736420884532 3.5730741454243664 -1.3145153148651492 0.9408499504569345 0.03471709176621117
Ni 9.000451301772413 2.5500905141466337 7.929450796815479 -0.10319122537820936 0.20877640490989205 0.4204159903001921
Ni 5.487219367938984 9.295775283942477 3.892736192211667 1.5261626135649329 2.9208220421808404 0.9412991221792111
Ni 3.3247861246848363 3.06186225550847 10.433985157876123 -1.467816569525872 -0.7293060101042343 -1.0056319799293263
Ni 4.272332352502304 2.9200519780292464 8.084875686174371 0.16078136508785212 0.09508813665510076 -0.4676566684547107
Ni 8.848541191675471 4.83210877647333 -0.024806951925392895 0.006474809091066267 -0.04019456994101464 1.3807199357166802
Ni 7.710307873376417 1.2012986612462688 4.676724211422939 0.5764634402474846 0.2623615372251998 -0.0675415944953998
Ni 5.702766863499093 8.623756616144655 6.192475581462876 0.6924723862156527 -1.6088333503922874 -0.9382443945132874
Ni 6.500437952137025 2.7219564680787682 6.525258970681662 -0.13167879129494095 -0.1373005083570926 -1.9514775838286393
Ni 0.9546451816629763 8.11344780318427 11.307159294197461 -0.024274042056016257 0.302421381360563 0.0011215151989529073
Ni 4.38605628022288 7.618949870254965 3.215654479260357 1.0100712466476023 -1.1527391899641954 0.7959487469344486
Ni 5.362260900314949 5.892675601049137 1.443762163843864 0.15117958033202997 1.336687222976498 0.4094363513602368
Ni 2.9165071899795736 2.397167607464071 2.156900373017887 -1.1194706577190527 -0.6275312054575773 0.9683329863685516
Ni 0.9655233672122356 3.6233641847735156 5.944816807490893 -2.1021084907460508 -0.3820623302226582 -0.38942365568373577
P 2.436263431218263 9.361682083977128 1.6559552396014123 -0.754030766544424 -0.3682709328655206 -0.675197915405921
P 1.0194547853965379 6.387933131417658 3.3157122174973677 -1.372780112044313 0.4145016816982861 -2.5383352228262543
P 2.5403845468677684 0.8433332102555637 11.38841371360273 -1.6670420975225353 -0.6389289057715577 -1.9526770034533791
P 1.7133423572468371 4.710713852391293 0.6257076061457 -0.48863404203732613 -1.0587044342742733 0.37284801071324175
P 3.6081722359892052 2.8960637033438967 0.30132480193986766 1.1183419434312483 0.33400121304937314 -1.4406559499506801
P 1.8051880031687733 8.13969611469494 6.6797095122142025 0.8485861706245064 0.9176267182629357 1.2502516197900726
P 3.776165180755957 6.425903625632271 13.352954006223527 2.4411277258353055 -0.1459908370422389 0.21308968757326527
P 8.219378823843265 8.585626700245268 5.4012273111720885 0.1117565984497172 0.3957979346411957 0.5798642383989175
Ni 6.6016425887297885 2.4664222628789685 8.708895298010702 0.11878985114741475 -0.2707795860855659 2.0273392681539604
Ni 0.9217152260110589 8.275335835198808 4.7264093861445655 0.4918592338428432 0.06849701643013364 0.2461011095022794
Ni 7.210980401173086 1.073751935681203 2.1790393561598624 -1.0448577581991685 0.486038256285692 0.49761182005590426
Ni 4.577756167290087 4.435823979110742 4.536630061491572 0.5385427539423112 -0.16354684364813124 -0.06736110305347753
Ni 0.6286709739332568 2.848049642988545 1.352591715645675 -0.48453236116412685 2.217911491351 0.39805073523111445
Ni 5.936310253946295 9.161223381993535 8.869577351868658 0.32867697262298234 -1.507629844868068 -0.21480127094773327
Ni 3.4058754957576336 5.551606973095204 8.723581786276819 -0.7610473070715731 -0.6234061275456103 0.9076811770144497
Ni 1.6962748592298955 6.586309973753031 13.3264093579341 -1.221410270078348 -1.0137705498760605 -1.2248054118028262
Ni 6.96360483513523 6.884756745395427 9.474286308805823 -0.8707454803303648 -2.309295439681636 -1.965377224628867
Ni 7.592279560166953 8.048994553804908 11.18102391942995 3.304776961440522 0.48030135380191474 3.1217745801709396
Ni 0.650381394075576 4.045850404915957 11.866121729801526 0.2694870925263875 -2.3609332184625855 -1.0920781246387128
Ni 1.7125640043152952 6.019312685236377 6.927614920910275 3.279459822831971 -2.4138755749875713 -2.477437101789301
Ni 8.976350494133104 6.343857724450832 4.876358609518791 -0.5440302594194437 -1.0309779148932825 1.2841403021177173
Ni 5.518972416447426 7.971834458374472 11.270225040933877 -2.784140141244354 0.6958711274845564 0.0937179957804515
Ni 3.1617540076383928 8.974446811661984 5.1817730465604095 1.381893130089175 -0.2668982487532887 0.019652741233920995
Ni 7.886825189405475 8.658548054409959 0.6362847660431219 -0.5518055324894884 -2.600698101334192 -1.5743864815683273
Ni 0.8254404705762647 7.872149016660139 1.268933779898789 -0.850259187451555 0.27762206292869607 0.7701868074789961
Ni 2.8583370305295257 4.50136504704503 12.139090102893245 0.7227666663238198 0.8865019718336733 1.4212811449684941
Ni 3.337352304543463 0.26152470944882317 7.66672104698469 -0.0656628894154482 -0.04167603958254758 0.7214736585440091
Ni 2.631583128304447 8.8111708732153 13.130274734706337 0.29303094128459856 -0.6738498860184589 0.6278556786765316
Ni 9.064810773690143 4.550691991863222 2.9778507787312334 0.3228277129310569 -0.1641487388981883 0.5555631997597077
Ni 5.765569629553739 1.9689609621621056 0.2541453609930368 0.5821237238570555 2.3217781455296786 0.886685291489073
Ni 1.095648972972169 0.4349886313271593 9.416969524256622 -0.1659567386412045 1.433893434415866 0.28687494898553173
Ni 1.260434728551122 4.265055221479696 8.466466493073911 -0.42077028831581725 0.8205891711909481 1.1186507329209188
P 7.854668897812019 2.4533121737428782 0.0033403531833156724 1.4976310817841432 0.09583144257902851 1.4399041593863202
P 4.460656250950775 7.407387916814196 9.316706413378638 0.48063251188908834 0.9309483750725064 0.23872410031191793
P 8.962387030096167 7.237163068460614 12.792715259366657 -0.8711784541027255 3.1460211114231305 4.09366005977744
P 2.982376479029572 3.873937562253007 6.281085904958523 1.9172497729940208 1.2865617670750165 -0.5434041957996706
P 8.707940643451295 2.5106664692767318 10.677498968043993 0.3761433936350619 0.2001693799671714 0.266780749338818
P 5.343843006850514 0.9035017674129799 7.192746311533448 -0.042122125981030684 3.778285974910951 1.3134503639357444
P 8.586798918515663 8.312424821274085 9.24739361593753 1.0864918888001869 -0.2451724270404229 -0.7531267666729158
P 6.159294302213786 8.31791080277953 1.8407662343371656 -0.39595245794118905 -0.6838877298704351 1.17746163241154
Ni 8.905417222155004 5.877539918741806 11.443478901298159 -0.8251577643982371 -1.0910661384344307 -3.15453454821078
Ni 4.430000398743423 0.8038622766548459 10.168895029336069 -0.7752423676250325 0.49901307127880506 0.23324302259268861
Ni 3.278703880039094 6.884269102594942 11.222104074272265 0.7005963008743676 0.6840345398609445 0.23805664193124812
Ni 5.496859690994707 3.0590301761671976 11.061779312543125 -1.078882194773729 -0.7565671598130325 -0.7851272308389122
Ni 5.583716375957845 9.189637952867892 13.615326463925499 1.0156741946566767 -3.2732930318996276 -0.9757076815660681
Ni 6.87635428483324 3.837176797293441 1.7277381353818955 3.8185957302735916 1.3165997081980036 -1.9963255933812651
Ni 7.480993846448796 7.144539069607136 6.919792005060972 -0.8941147511839247 0.1322079243255336 -0.6598386593410314
Ni 7.7567089613917055 0.5606973186442469 7.269333426673316 0.08797903641414526 -0.6724756313787515 -0.23493069470775668
Ni 4.504187748640139 0.507655848570828 1.7578106917779 -0.5679975688683186 0.368957417409584 0.7057400498588362
Ni -0.06117385154610648 0.7658092582739972 1.2961770702773694 1.7776548121757967 0.6334100328358576 -0.1492844201918461
Ni 2.3328925352618097 4.054262243224307 3.869128654020541 -2.7692459977413404 -1.6450673930236572 1.1491658707906403
Ni 6.701084209043881 6.1885528702428285 13.303899953818679 1.0738083797952476 0.8301194792788865 -1.5490174066759193
Ni 5.0841638378465985 4.342721715202943 13.354367232570313 0.029550459963607174 0.25155699041052804 -0.380868309914557
Ni 6.303833503826488 5.17275540584992 5.913399482295093 2.2041159802288037 -0.1408018366421317 -1.5365948646418504
Ni 8.652527541373212 8.506778610505464 3.0686292371398025 -0.06201577958116416 0.6169642285750084 -0.4226777897511753
Ni 3.5975191163478617 2.196061840995221 4.792730682559627 0.26804187543942865 -0.7580128911206235 -0.1037938919592148
Ni 5.34353354122713 6.1302889333311485 7.604313084043512 -0.2763208276187693 0.869287921948232 1.3000096650498063
Ni 9.02360495704924 0.48756965406396724 12.503276750688588 1.831093391610911 -0.3073895239991158 0.4284319186261331
Ni 4.23337719494056 1.1924366911220878 12.54210530867713 0.16184940134105028 1.256281113813604 -0.8182751783457908
Ni 1.7228513918562758 7.63855873748212 9.129424382528894 2.6997912453836275 -0.8468751014706706 -0.3480918868144844
Ni 7.268775450776609 3.7575128436374423 12.045250748137022 1.9553092988699037 0.9333065908920378 0.904062606425256
Ni 5.577405152790042 5.546983744236768 11.092249485376447 -0.529750609571978 0.4936965441618981 1.6459788490943328
Ni 5.18975725964372 2.9328150905572996 2.395308000399918 -2.9107428035679677 -1.4171822923087722 1.5464169929385947
Ni 1.9127319961678304 1.7424602590834322 13.280305544472183 -0.669637390599008 0.42383889993881196 0.10709750241115104
P 8.756667412515045 5.16460614443414 6.840143993573451 -0.29281728261189566 -1.046238697707095 0.11848260431964111
P 4.746405554288259 6.85087494850795 5.490084269391828 -0.4638257247443947 -1.0045580301388572 -0.8136037410120505
P 6.500409818898534 5.17572815138364 3.388345674854849 0.1883441051974692 0.07005767604903418 0.4310739842346705
P 0.0723174273117831 2.5268055704235204 3.9629689465513804 0.9866577528196684 0.2822801305259977 -0.566936731703972
P 1.7767546768020885 5.731659699427772 10.329864980001235 -1.7197723380367156 -1.7689387724590373 0.0054710504169002555
P 5.789529771000599 2.170038595392467 4.28897128751959 -0.22903592648987653 -0.07581000515177912 0.49082899280611597
P 2.1581007245267707 2.4201524633099636 7.841992998323282 -0.33557061441902203 -0.559116721438921 1.4261361590679504
P 5.881628616068941 4.539607495898374 9.363495740085082 0.43365768580144665 -1.2566459533521908 -2.178608322876003
