# total energy = -340864.0607612685 ev
CRYSTAL
PRIMVEC
9.32540857467011 0.00000000000000 0.00000000000000
0.00000000000000 9.32540857467011 0.00000000000000
0.00000000000000 0.00000000000000 13.64867807577346
PRIMCOORD
 96 1
Ni 6.913568715327034 5.393368610835927 8.597260947706198 2.79940863736765 1.0890694197193762 -1.1384140315907747
Ni 7.320231125729926 3.3426366958919016 10.382576818348193 0.028511477176131544 1.1773613593882497 0.31705764321649915
Ni 8.426774763502735 1.8440528881196063 11.898398643585857 0.16223121016050127 -1.0079176906397092 2.156636446590602
Ni 3.9952008009360025 5.142599052999197 3.3332115056012626 -0.6739262477823489 0.009899261391582951 -0.8764839254760389
Ni 7.670465489780131 7.035582359101374 10.405738335242289 -0.9303346527479075 1.0076518385728321 -0.16623081823819758
Ni 4.983059965740605 8.363315359200964 2.3203024286974063 -0.2521331746289722 0.21101917819748175 -0.19280342652040347
Ni 4.860039177856846 6.883028002749767 6.830303076080878 0.94891472974294 1.0464014485372042 1.4330272297608289
Ni 1.8340000978422646 7.362055582496046 9.371250263253303 0.981390333773142 0.6283287616582083 -1.086256375750613
Ni 8.546195943736166 -0.03320498176301541 6.359724316363608 0.2849471358351996 -2.337947813311006 -0.38372789085053916
Ni 0.2960798522704487 8.663472280032872 10.453004167821794 -0.4407652433805054 0.3399967685111757 0.4807620954884172
Ni 1.1238515958013318 7.739678671077377 0.24426508546340442 -0.3135108064055052 -3.180791939245412 1.1904035372841886
Ni 5.614138329783782 2.0358485631048446 11.38438959177245 -0.5694764674066902 0.061213852505159094 -0.4292924668542155
Ni 3.9279086537733887 5.053513426357781 5.671285365125692 0.7919527384011781 -0.531674051846936 -0.51226736518555
Ni 2.4329431044682623 8.693276285344917 12.378968645884894 -0.6134312757210855 2.3723725706477787 -0.6222342187246961
Ni 2.5950746552677644 0.42512671907555993 10.164088094300004 0.25308782523275763 -0.4516011576537448 -0.30461967456346245
Ni 3.7159887474166258 2.698707919045221 4.506069987734214 -0.9932973696233732 1.387044335272811 2.389403043767504
Ni 8.002487331185025 6.1724318811046475 1.9850092340185888 -1.282875833582997 2.0392167363178366 -0.33828184270259803
Ni 1.8055576021596187 4.106294391449891 12.09069509300328 3.1490722395446284 2.4770203259668566 1.3421765282258435
Ni 9.369517602368767 5.412830738209594 0.09827954680322495 1.0092790897636101 -1.4054182097943084 -0.1564454567166596
Ni 7.400383011104464 5.440545852035437 12.347194181773588 1.4232830058898713 -1.193047916885571 0.8761481394031749
Ni 2.816226715960861 7.765388822092805 3.728900707915705 -1.768060997839774 -0.1776010077483522 -1.190960438228923
Ni 8.305833541696757 1.5292550760674504 2.290808026944924 0.44789799777054473 -0.1499217966655289 0.8402190296067336
Ni 8.224031059031784 4.617755741682807 4.265976157457317 1.1607440625465428 -0.7008194726287673 0.5684025176162211
Ni 5.567128945935842 1.0784461822017244 4.100581646251468 -1.5957873158416067 0.0024019245732732827 0.41208947271236773
P 2.8337957854251576 3.05210359654999 2.1558497837420325 0.547008111100845 -0.7934938576360528 0.8803776041034902
P 3.1060883858964936 0.8310132554978626 5.639346773826185 1.1983379616399168 0.5964496535614244 -0.5753136429137575
P 1.238936461119211 4.756704327148847 8.51341713313797 0.1270099250643619 -0.45581802394856985 -2.6304835601267404
P 8.003886142448106 0.7240620114043779 10.240780253150522 -1.62261909132247 -0.4925536888067066 -1.6559696417584577
P 6.635503687043384 7.058224450746445 0.19810804394510154 0.8064920696679336 1.2963525279131933 -0.6248860545252465
P 9.241890062725263 3.7713909988430516 11.829199450401243 -3.1148552273432872 0.8652440908961615 -0.4140581664029643
P 1.43938611511871 6.749702638561312 5.11491005031693 0.8794365803464597 -0.19444121923414256 0.5493724975679636
P 6.092224043279587 3.956052736386577 13.302465706852615 -1.0568812650226056 -1.183794002387471 0.7788611953245426
Ni 8.552900912390534 1.2172735373582977 8.255812050928983 1.2762994659170601 -0.03611911432006038 -0.06287092849260785
Ni 0.6372489867950484 6.145649308120858 3.227530382134655 -0.6486417621839474 1.327193938774082 1.3562911132503546
Ni 5.166742535399974 9.066777543404369 10.04145524340654 0.0071898328802198755 0.8744632955015843 0.14006958646179749
Ni 5.095720224869144 4.294574387460585 9.024083026032613 -2.3556220906623175 -2.3895979333871296 0.6417602045727657
Ni 1.4106358809581867 2.767277647161449 10.43472823239922 -0.003960527309644793 -1.2268409541756162 -1.5547417107542063
Ni 0.603369778003228 0.03384283969898032 4.038603116806878 0.6066137385786198 0.0581023034593709 0.9126696313679765
Ni 1.5210673674742166 2.7408401142892185 0.4137021612195569 -0.4222584428255695 0.3995440319471893 0.5035433550489908
Ni 7.453696371044688 9.144607402082194 3.8668747882017986 0.42016402219038607 0.10410268144888522 -0.2343750793146028
Ni 1.0036377558521554 1.451928789444336 5.904526885295176 0.9267572198092943 0.8489908622620926 1.4864907488966077
Ni 3.180383914782933 2.19113526412367 12.077250651683388 0.05380419030464927 -1.2449356068937978 -1.095705436978655
Ni 2.9643048762706097 5.918622240122822 13.00319096965729 -0.02311087498585052 -0.4032407640724862 0.5737612108249732
Ni 9.016121924863999 3.389189134727235 8.884865868804061 0.22766784249775632 0.6398367622978077 -0.12827927869508873
Ni 3.6066576590942194 7.273958449147208 10.990133704732244 -1.1342884394581754 0.26722580729603657 -0.8322221274441861
Ni 6.2427920876376195 1.7928843721161054 8.758902914563622 -0.07703513580813184 -0.37916932494557926 0.43617248180350043
Ni 2.856214067268135 5.1116013954093225 9.675738836296553 1.018706296614781 -0.23061715493406734 1.7161673942942766
Ni 4.1724768150104605 7.812724595235464 13.60606650101423 1.482244572025744 -0.07141444718724475 1.0627649774968921
Ni 6.965763026256794 1.630985956527117 6.003602821977514 -0.4051536648244829 -0.9819801448383411 1.1277100149097095
Ni 0.15667618687348608 5.639102448125567 6.323323517134874 -0.5838317076870977 0.09544731976673239 1.555081096371496
Ni 2.017402905249017 1.8414884008039578 8.208574194574739 -1.6960456838437372 -0.8083877440287498 0.10588522727060475
Ni 5.393946786158001 5.67716876529821 1.144749836071761 -1.2362280518174709 -0.506874733415069 0.19996574859679755
Ni 3.901648303661149 3.3795559878288177 0.2413928596698782 1.0725287417518754 1.3031906338809491 0.44392332939351287
Ni 4.2381929681500035 2.295150869646369 7.432455888285225 1.3299154514703029 1.1083128413300203 -1.9052964572868862
Ni 4.560544361022796 4.322075016892757 11.619596908036984 -0.6237300865439322 -0.762410763078003 0.049164634650108875
Ni 6.7942687654030705 4.169809748202186 2.5936441376160535 -0.41417360893490607 0.08002250057122993 -0.9722343783054869
P 8.92060176641241 4.22136993135935 1.9483491884357633 0.8189079268337832 -0.20868281675482125 0.5984517715931177
P 5.943726239590913 5.815063579612729 3.9029482655949725 1.025070548269912 -0.0644452149582632 0.8610969014970073
P 8.638620066592134 2.057129145120516 4.617566435891869 -0.825145937323695 -0.09071211907459216 0.009614897381944732
P 1.2108110293228638 9.149419312827192 8.147632650546514 -0.8522101405303387 0.21732275181800637 0.6692224145487765
P 6.263317311571227 5.3623616278376325 10.598197979307068 0.5754676519931186 -1.9498490470862804 -3.077716927730093
P 6.163582068513556 0.946790066120546 2.0431801992050724 -0.05977120652136158 -0.08090104652144132 -0.2299710367096362
P 6.433021094008207 8.536982440216672 6.0613914454187565 0.07067576924900733 0.721941342209047 -0.9566653202226364
P 3.1547110654011874 6.71908732271668 1.8125311425764983 0.9915683027474085 0.5681533777198925 -0.6732485049890341
Ni 1.687619161865054 9.23026127842485 1.4829973201382056 0.6471173551196211 2.776076647509929 3.2392804223996086
Ni 7.922960248174662 9.128530397965182 0.38008126624098537 0.9576719071102796 -0.5377493115067383 1.59250298866338
Ni 1.859393184971394 4.982864132163773 1.940828246544598 0.7561128458844334 -1.9068298632122775 -1.9161187447133705
Ni 8.512167528409616 3.4447312672799693 6.595245898891914 -0.2674111838339652 -0.3585999854346598 -0.7176977364413447
Ni 7.89095544647537 2.9130710824081647 0.5487629839150742 0.10898983433785746 0.6992999506604474 -1.632156341388944
Ni 3.566194711957498 0.7932882482734117 0.5740283129488422 1.2446090767923146 1.0930019220045628 -0.13581646761239838
Ni 4.973939716305318 2.925380621523277 2.5983805125528456 -0.27033838478308925 -1.3589812584880079 -1.1063312921236172
Ni 6.008230089635787 3.4560523131025045 5.070784082752621 -0.9602262981010173 0.9253138024945483 -0.8002818270921637
Ni 4.724298532887471 7.925907077235553 4.714744651960629 2.013185345251081 0.1220996322469381 0.6751351804887857
Ni 8.172340320156733 7.098286405321082 4.7312730058451935 0.19151838916039274 -0.24505929850132632 0.48459972406695245
Ni 6.884025821450765 8.60345395143828 8.29917426754365 0.5409305374481974 -0.23946123558825858 0.046100136792172224
Ni 4.740487441905529 0.08260633287082401 7.338853033804901 -0.4808135175516429 -1.075272880155916 -0.36074839923623037
Ni 1.2111374186175825 2.2929127716254394 3.5903661705835366 -0.005352779671481104 1.3560715410403805 -0.876875761597819
Ni 2.8200874350469642 6.120647888145391 7.394266475721431 -1.4768609391163274 -1.0967799009897563 0.7240995262026303
Ni 1.3697253142172794 4.340026428102296 4.839916811567006 0.9607788281703776 0.32653910034437306 -0.3402366524361237
Ni 6.249655588235136 1.11570118884178 13.479038585132166 -1.912558281055622 1.7214229862662611 1.1476514910286428
Ni 6.719684148855595 5.524483853228715 6.133797646559195 0.024998578926866626 -0.13777179156655625 -0.21686740944814262
Ni 0.28443521477572087 5.809915954164591 10.053820734972174 -0.5122863913489436 -0.9787642090042045 1.6656827552811635
Ni 2.43963874771421 3.5987776889788634 6.879944090185094 -1.2521107844859984 1.7555458960918995 -0.5792715991202411
Ni 2.464248500536014 8.235109644235385 6.495036925086479 -0.17041117486813231 0.8369393304141973 -0.7287869043759707
Ni 8.675157016783809 7.409512585948172 12.740645286067101 -2.4735855892536946 0.1120273356126006 -2.128312145724612
Ni 3.048158948788102 0.9738897029906342 3.1980900677510116 0.8748232499441644 -1.4818792182665252 -0.35312353570112087
Ni 6.827038250592847 9.041925329963632 11.762812800396263 0.3944573614529013 -1.016796481186578 -0.26247955086030283
Ni 5.354910626509621 6.502877728486469 11.871115296169885 0.5620002136343031 2.3521068784202073 3.2340633969750434
P 3.736989567179681 2.151614183237423 9.428629501264885 0.8879291911985031 0.7689400795560887 2.2785332187981147
P 4.449572000818375 0.29058905179243494 12.143037677926925 0.13609491808476562 -0.3787111543622381 0.3311172066333588
P 0.47081002984609943 0.9608248057934582 13.73862251900799 -1.153890272849503 -0.5775831556742247 -0.6685305306880744
P 0.02704368441956488 8.1469006059855 2.5422713951681426 -1.794939053177541 -1.231910912499356 -1.2100251681698582
P 6.28513876727529 3.514625203391914 7.330786555521134 0.6174573661613431 0.31302898167308024 -0.9923599454107683
P 1.280238695013781 6.880472840842539 11.95431752263878 0.34033743968004615 -0.9162270097019317 -2.2098845072814655
P 8.011961946140293 6.947653083104107 7.357156012911894 -0.2065158910104895 -0.2821592886774173 -0.01330468752870612
P 4.036969305251599 7.70015759019113 8.916954599179137 -0.635136528608661 -0.8657508553292509 -1.8122438630045756
