# total energy = -340887.3194127109 ev
CRYSTAL
PRIMVEC
9.11040420266807 0.00000000000000 0.00000000000000
0.00000000000000 9.11040420266807 0.00000000000000
0.00000000000000 0.00000000000000 13.33399744437543
PRIMCOORD
 96 1
Ni 6.545707018343008 2.0236940960442324 11.29753626513007 -0.1153707981635368 0.7914719421100176 0.01917400182528956
Ni 5.0637266694058125 0.6386420710436659 6.123571882218858 -1.068685456746385 -1.2547307386073487 -1.7801081588122956
Ni 2.9775352002068356 1.7949045141149171 5.029130820307004 -0.34451111144176155 -0.8576521374815165 -0.2924964089373672
Ni 3.3855719857541686 4.461565390100272 4.65669840560895 -0.3946468517558881 1.4815064083081388 0.945153977148927
Ni 3.406744565231082 2.9092709411618642 3.0120836752035443 1.189146782058952 0.4240898396073535 -2.1067891840511717
Ni 5.50013325378753 4.704303000936281 2.70956176959843 -0.8373877308055255 -2.3747734667797875 -0.9561634408855532
Ni 5.365754791100579 4.549990973750411 11.343084642218184 -0.14314154051890188 0.5059254821279222 -0.7505507784156236
Ni 5.773071854712165 7.772140528068748 12.36952291368704 0.8511495604763083 0.44892078260810425 0.9687003970102994
Ni 1.8628043569898898 6.6886401506206745 0.2399070082355449 0.3187185758586898 0.07265988955857162 -1.1132892114986892
Ni 2.8172649686414903 1.739413041828394 0.4170405980675712 0.29028166067423555 -0.3109661856067806 -1.5678623072965645
Ni 8.227861169460386 -0.15067242068800946 6.749336396855201 -0.4394177282136754 0.716680865141056 0.03962069971541563
Ni 8.850375091860343 2.433480079207558 1.1964247491667872 -0.4722293754270577 0.7499560822544181 -0.13675749136942897
Ni 7.056026312404674 1.1290797299106372 4.594775898962379 -1.0967698736874272 -0.6637678191921085 0.03624509837496338
Ni 1.0337211286262769 7.4925695528501395 2.3769454656344142 -0.3979455771118179 -0.38019750909977745 0.2835399710750278
Ni 7.786935824570687 4.110404858285457 3.6705299430057794 0.3841410671285577 -0.36036736174772777 -0.9399814318090521
Ni 7.647455535503758 3.873789439105424 12.64139013107188 0.2993882509611941 -0.26307090458739857 0.06829287083912755
Ni 8.320368214214508 7.588502109602248 8.951259153322306 -0.04026861771205968 -0.4877580671902762 -0.02684900187204408
Ni 6.885279115951871 0.8111603300826611 0.1547238174579679 -1.0767836603734877 0.5495295919711182 0.5678260762874608
Ni 2.111163087248125 6.526292746886337 9.026342549948374 0.01875208379652254 1.3370662035824712 0.19071209120901347
Ni 0.22429906367450864 5.048384748648876 1.2110123284518275 -0.013242209721886873 -0.7956304443630814 0.2172813570571097
Ni 6.533216654116309 2.1516588341392096 6.959773069422966 1.4016371454853216 -0.38343041421477836 0.4017155856772114
Ni 3.08411781952715 4.3259752436480765 0.009752687749585157 0.4828482885934846 0.6743887892410644 0.14191101054591043
Ni 6.2098884072851295 5.714564838618903 4.711287947874728 0.553890440042975 0.7054569714007786 1.3066387403305497
Ni 5.006513330716046 2.970811721870363 9.238606769608682 3.172903794746587 -0.17974710755707754 0.7747741697393624
P 0.3535829883048805 5.622968834289777 12.171179391720676 0.3816566101438072 -0.4243346086283079 -0.38552406351901347
P 4.155337372046273 6.276640339224608 12.463381031391432 -1.0543566988285389 -0.7485874840416655 0.8843296467727028
P 2.063242360893321 8.794309664106072 0.8944494678166708 0.5273731104787369 -0.22477200900719999 0.28407244653973013
P 6.4521158354831405 7.907612239265694 5.749193485173012 -0.15878387504184913 0.6423782977727388 -0.026646913163567012
P 4.730340536282675 1.008202886322131 12.740474887694473 0.9830204131773974 1.4366499141150806 -1.0979471818249802
P 4.2821724200142555 6.399512361343855 7.981304477162793 0.41804517607517033 -0.24730695688492246 0.4232094938849292
P 4.7563325196078186 1.3679636397489114 3.7220784323329186 0.8983012784614465 -0.6828343489052563 0.7552677242753186
P 0.37855825051572844 5.570119379235744 3.460158865348614 0.47022751450568046 1.324460599003319 -0.9251327968319937
Ni 0.6537562316943542 0.16380597945475578 4.744062627163969 -0.13297642706044194 0.10389056543807916 -0.6578303706617509
Ni 1.9198263771904067 6.762270437768873 4.708020956910691 0.5401841462004761 -0.7137078985556611 -1.2776276978101804
Ni 6.305602314335239 5.9113131288011 9.147629361728129 -0.29680609205631464 -0.15302306129867194 -0.6004086382091725
Ni 9.109092351750785 2.3567613650186217 10.19994846959028 -0.7782410452420403 0.9458561454222743 -0.05276597884812203
Ni 2.639612085767216 5.212290031509956 7.016255753691885 -0.11297221602437318 0.8913055638699037 -0.8760792338384525
Ni 0.8056184711774087 9.420704618716512 9.377600563088663 -0.7131124310635073 -0.6071868374732704 -1.4856826511730155
Ni 1.778533117677734 1.127166545018145 11.316243569216942 0.4344734968345227 0.9402858504233483 1.4392505849627213
Ni 4.224840646069239 7.336672315324776 1.243197564586096 0.2735306664681418 -0.5244551655009935 0.05057385629280967
Ni 6.015545263824924 8.11896450746058 7.937555404914046 -1.7454221773943357 -1.6057200015742863 -1.0187872863643617
Ni 5.347871067557901 3.210980198707882 5.05215827808921 -0.3466024467531515 -1.1016688536509414 -1.2081068681012226
Ni 1.131375551781628 7.615095379607889 6.70684091623125 -0.06854741005209485 0.2501475116575111 1.1244089755609346
Ni 5.640415258428456 4.464826914821759 7.079406342831353 -1.729684197833789 1.6710697306246898 0.5304142112979059
Ni 0.6025247844351134 7.542603892990935 10.968732665344662 0.8259409224211647 -0.9756079227634101 0.8073814142514224
Ni 4.860883518780391 0.5094811368706685 10.277578224204213 -1.116534457908864 -0.8325885096446694 0.791650890890043
Ni 8.301291027715086 7.28932554443772 4.767797052315972 1.0752885638851999 -0.2491110999731968 -1.2857912074575792
Ni 7.672199393446656 6.397234760281364 6.753283023976285 -0.3287448497464403 -1.5116577350805385 1.7531295733409227
Ni 2.7717129473916766 5.2279052643943915 2.244298890795381 -0.09138729076474583 0.7360669829771517 0.9905406328138424
Ni 2.4544886714079723 5.490995518324817 11.246800423862027 -0.9726961484332538 0.058131614035409555 0.6401877178793233
Ni 1.0709006883703749 3.369018381231986 3.718585503343483 0.31568133169426277 0.2903176561184936 -0.5390667447665813
Ni 1.7459360912713673 1.2869448147539924 2.462696234596764 -1.473041051149605 -0.9751183847215013 0.546694179404852
Ni 1.2096065930760582 3.701138168164379 8.238050245573545 -0.31440914985005847 -0.5427783892902136 0.17178568661815577
Ni 3.655731913382565 2.964844407086637 7.036190229231229 1.5097389207912708 0.5223085514716359 -0.540507848088482
Ni 4.292612943284713 6.989948550379693 5.8081696870851465 -0.2025895593728898 0.5418962437955764 -0.29882980735456277
Ni 9.084694689169385 -0.07426619336484659 0.05719329580041634 1.7099602370423002 -0.8867552254950598 1.2893051341481088
P 0.40643699856103954 5.798918071569309 7.837003873207207 -0.2920816899974518 0.09223498347702179 0.24720514119973555
P 8.73369814463107 1.770424857895267 7.904634048116381 -1.4373777934200407 -0.10670438073779043 0.8343754263417631
P 2.1581090003481833 3.42190427790302 10.375663569480587 -1.3327218105708467 -0.9987977306163122 0.4845873827717783
P 4.633123412531322 6.374176327124709 3.3841553178932995 -3.04375908272741 1.0980608245847088 0.2009409680258733
P 6.9585267661215715 3.884284624801381 10.05056699318449 0.34212512770808823 0.02396165302192002 0.5120727326762408
P 6.583506085576103 7.9767328763101615 10.370969889211004 -0.5604377542431896 -1.0002977122006063 -1.7334480357515953
P 2.6620965634561244 8.787905049918349 5.304971084985253 -0.1421364962931552 -0.7094948889155781 3.337424315161898
P 7.079449161731327 3.9881523436552064 1.4938739816855218 0.4402469089831902 0.7153981417738906 -1.6166281638463578
Ni 5.145201014613229 3.0753627210429357 0.429822495230269 0.34471217170897406 -0.8340229280983508 0.12415600055533454
Ni 1.506314238688846 1.1467812453683148 7.203945568928344 0.24459598571166263 0.17552021395992354 -1.9517102686647356
Ni 6.893697129478837 0.7185576260839144 8.990207953571746 1.948985927755037 1.7699489588911064 1.1446062764444158
Ni 2.963386742406643 1.9183687125104127 8.899030116797693 -1.8216343030805404 -1.2865941629748487 2.39311777361493
Ni 6.3170267612646915 2.2124343408907112 2.4351882800044264 1.2434554228038457 -0.18631087681752428 0.29017187456924864
Ni 4.421270072102687 6.9715910858160175 10.378476862312976 -0.35171868493379427 0.30948445885493153 -0.9471311554799561
Ni 8.135645657642263 6.819820861415888 -0.02535607710849641 -0.2181362488582372 0.999243302794163 1.1646336274089362
Ni 7.71030821442425 3.9657589700087983 7.973837589839523 1.9509757044915559 0.31661927012749985 0.2919389937720004
Ni 3.4180687977137856 8.414934210329122 12.2018614111537 -0.7887990232635447 0.3229228437480245 1.3410958935671549
Ni -0.13289346679420708 4.885235629340541 9.97817663205471 0.8000260023276158 0.5760736610082338 0.20978016358405807
Ni 8.865398148468532 2.336208293030706 5.478419516298168 0.6029663716340197 0.5725635909724461 1.009722605058932
Ni 3.912144240997767 2.892234485214434 11.623819016059512 -1.0721453902705278 -1.8443137469559268 -0.5249277342620379
Ni 0.9745399426185185 3.3993286961716125 12.46103419125664 1.2903996527638681 1.0774626887183831 -0.5189828295325127
Ni 3.3901636294961497 8.668777403945834 7.764893201487902 -0.33397061692175384 -0.8945826919592788 0.2597189573960301
Ni 5.88448298828496 8.100698146939406 3.5902189964210827 -0.8883619078605474 0.7862094081594976 -0.20982412944811607
Ni 3.113799516573529 8.53763313476762 3.329338926561698 1.2337430806120881 -0.4297951175222469 -1.4470052892074756
Ni 3.5840239215311076 4.587644274515508 9.329651594480683 0.13890384828847044 1.6560251775867414 -0.9812581790706519
Ni 7.317066725378856 5.976060771805585 11.36588616197499 -0.007600180944761103 0.5523554914556874 -0.980128693451899
Ni 8.103385716193143 8.680356727747537 2.9087316052302667 0.162734632159481 0.8479559932396752 -1.2407513936091215
Ni 4.650360297372251 0.6531103040330317 1.6139199564064315 0.27228419565555045 -0.574732573599307 -0.00010952899467077912
Ni 5.878297023799235 5.357992726679611 0.11001359756085055 0.21655759151720766 1.215713476803887 1.509987032246335
Ni 8.049279025352616 9.171170646310031 11.283628322002077 0.4205805409025144 0.3089746090980485 -0.500006802650642
Ni 0.387979319550615 5.030646791574197 5.521621964291916 -0.5051096710948462 -0.7854398769833247 1.4852640755783582
Ni 7.512867533519057 6.397353195536614 2.316075210678713 -0.10419087028731734 -1.1243804363158445 0.5661052369416122
P 8.588305203205913 1.6424874510130398 3.096381334688025 0.13723211701300236 -0.3946599643820106 2.5047013368218924
P 1.7544360984365823 3.319412230090939 1.481380884337548 1.040814184257414 0.8840691940224646 -0.01333914031106735
P 4.836895824390239 1.2014983332935913 8.173953996472932 0.7459330771379541 -0.9035435006969923 -0.699239529736157
P 8.759808563211463 1.7952871510934156 12.463461202948832 -1.5822543143521783 -0.500736481727815 -1.7062938439343067
P 6.582950350916856 8.00419163471955 1.2082418545194138 -0.33339211871046454 0.41483746777115005 0.37561631748699825
P 1.7840175810362116 3.2747074764363715 6.099237081426782 -0.3718185410074629 0.4255057461182737 -1.062974008183905
P 7.269537746406801 3.882243894249389 5.7307786250625625 -0.09220155913592508 0.8488581933389704 0.6665680076450649
P 2.5520975425420733 8.546206025166835 10.23853649783142 0.45360199013385755 -0.9087047331829575 -1.3162364113213139
