# total energy = -340871.9531311806 ev
CRYSTAL
PRIMVEC
9.21912660484902 0.00000000000000 0.00000000000000
0.00000000000000 9.21912660484902 0.00000000000000
0.00000000000000 0.00000000000000 13.49312366979282
PRIMCOORD
 96 1
Ni 1.1846300790206399 7.700607175146768 9.643602587990282 0.38691194500547554 1.8008425631461695 0.9211239327829168
Ni 3.6241676372531644 7.3600987432874465 12.148101798158736 -2.4941662416185237 0.38096986848942777 -0.6516797776793228
Ni 7.050077962278504 1.2201605919862777 0.33689914389200337 0.22387983621023377 -0.6636562333149088 -0.6483126609793028
Ni 2.4445619820950757 6.817949579828635 5.148126099959903 -0.370189232934156 -0.4750632453314271 0.2394393812113876
Ni 2.3524075950674384 5.2882107248983745 7.579964765774783 0.02715162071412743 1.4857988650359055 1.1112544404568476
Ni 6.884815903269157 0.020766082110819643 2.582111347286387 0.2254608075441085 2.143836980833089 -0.26584538200874214
Ni 6.795076927346086 7.528522962635976 0.14976839525998198 -0.061291499820629924 0.43543560363747585 0.6034307128649479
Ni 0.45563780367203116 5.7109906403345905 8.976232797012436 -2.0874758284345405 -0.3382751578343787 -1.0638253004406066
Ni 5.11110208852503 5.717822012962389 0.7053784051072531 0.8394273869433738 0.2251093377419607 -0.906200221593549
Ni 5.170187469323362 2.479253554562563 3.2661456310604686 1.1154700212000919 -2.3417430186873798 0.2690677456007818
Ni 7.918667170781493 5.024396205172196 7.034086465706061 -0.05322183543861801 0.2570930897374089 -1.3573930880652816
Ni 2.405712583642248 2.136237520335141 3.9016716377013645 0.5574809856077109 0.04911398391783155 -0.721057396942197
Ni 4.091097948795359 3.81913372137286 1.5330079571351436 -1.1236872669035614 -0.7460541760968505 -1.5658553041688645
Ni 3.6062825321277527 3.273269249993667 7.494445383983619 -0.8534170163542465 -3.7981109800566775 0.9614169759750087
Ni 9.172477573957334 6.9393101591435435 -0.195408602184654 1.1822194588114994 -0.46278262819186106 1.4787756396405372
Ni 4.793576938664497 5.065421317444404 7.361618977223105 1.1164490972839094 1.8044439073441827 1.3392961213542547
Ni 8.716647090544518 5.399015404538748 3.856091355097989 -1.4787388728653308 0.7190308534304714 0.3975213450902057
Ni 2.5260867164373524 0.5302011757049272 11.394470485718282 0.17248631222960617 -0.7878212327313078 0.5609473468897566
Ni 3.3838065749697948 5.965346336422277 2.964047767239556 1.466910512771835 1.5137105038445091 -1.174470668104016
Ni 6.958707200990897 8.190022935864674 4.870869172097971 1.2945522414796606 -1.1560263453558994 -0.6531895294556299
Ni 1.0901524721519698 2.524169138155865 11.604882294130306 -0.8896860259886097 -1.0505530088117327 -0.8717440967982083
Ni 2.194400988498143 9.164733507820557 7.3940970374531645 1.5210024095202321 -0.5875153271862721 -0.631313555318145
Ni 0.23038227991855206 7.669584814967897 4.289437311247728 0.1541414911738313 0.6680980711363461 0.36576050773884106
Ni 5.74616160737245 5.030886470124923 3.136557903387871 -0.4163454197752443 -1.707548028056382 0.36437031225953376
P 7.804626577791109 2.011244605237031 11.526703180741645 -0.24706141653301966 0.4644304482079292 0.4872412754548576
P 4.870077249144223 8.672155586763468 10.834020434535528 -0.39195284986349266 -0.47240755287613484 0.8446433839266744
P 5.184513991676399 1.2954900734191332 7.629214260666774 -1.4653897052519342 1.1038326940714795 -0.9556793021602832
P 8.602938386102855 0.26409754690522397 5.64963827636598 0.2663881418860896 -0.051250827755176254 0.05213734412518763
P 7.281892894432359 3.587982566316442 8.560995048845857 2.314342772297556 -0.8829029416285054 -0.9156264000034553
P 8.324769686644581 7.417469366584063 2.494918694062098 -0.9370552593011927 -0.517030076681516 -0.16897495664223802
P 7.04454648646652 5.583185891698722 12.669948601562297 0.25907772426760545 -1.4976809611854722 0.816666181987458
P 1.4078159089078022 0.7426402700020416 2.455181493741448 0.36891370865584205 0.1386984171458837 -0.07578275145826949
Ni 5.255224690806248 3.443924497919697 5.58008088994293 0.47185013771076806 -0.2875856018993112 0.0029840223289884092
Ni 2.40281777796731 5.158811067403384 10.376684467789216 0.16632157817979096 0.46088181162472236 0.6143779559050709
Ni 3.9532720098134484 1.0807489632715985 1.7356876842746491 -0.42885409376521627 0.16790666327872372 -0.619376694671243
Ni 8.068745328686946 2.3941794565742636 6.711156142064585 -1.591457321007685 -0.922040016839283 -0.596357093847618
Ni 0.5873450084932532 3.3432608572679596 4.958291381568458 -1.5083461542088024 -0.6690447513203316 0.7586911481345707
Ni 4.873838652696371 8.95073914690764 13.285977077878588 0.3259292346745161 0.07577915191384368 0.7195802981760382
Ni 1.4408019429999277 7.091167608435184 1.90147799922404 -2.4099803536982236 -1.2756104102698353 2.081086637078745
Ni 2.0172923521247994 9.121219231432958 5.020535235055433 -1.5109239422383074 1.3798874125130558 1.443476707228927
Ni 7.387239851271576 5.417702573656897 1.5057248746051726 1.7200903834977666 -0.2457007887400672 -0.9339694212870172
Ni 8.95874134858231 2.0516612551699205 9.38379285675198 1.2069688978420374 3.9761562744313004 0.38544641620354264
Ni 8.670966319463892 0.18431246170581603 10.365336645160934 0.7617543604409268 -2.6747970373321355 1.1791724444550598
Ni 4.595126024783253 5.632849325363977 5.100158063631022 -0.24016083275844446 2.342056950383373 -0.00018691919982548455
Ni 1.8147389270163339 4.034759867650312 13.217633850396268 -0.7120060853732061 -0.3314594204641259 0.8455296431863696
Ni 3.1877157574349964 2.821218608385707 10.417810990451311 -0.4680081382568585 0.7757213641439802 -0.2627837123642829
Ni 2.974007189439032 8.531665320265452 3.1846338034950867 1.1275938010468192 -0.808802205858349 -1.4108663773930734
Ni 1.6100005689621353 4.733772466010607 3.5527931610258765 0.721783476474944 0.7995583186625779 -1.4693787718066693
Ni 6.940656151591126 5.604085651141665 9.177549937276922 -0.8900207836202092 0.5682616211629826 0.9375321989376113
Ni 6.271236948824939 7.001179716100573 7.020255932350832 0.5266084643985705 -0.7923949681449193 -0.051134099671653874
Ni 6.4025080889696495 3.728159382518445 11.178849870916643 1.0269448824744893 0.8236022469856589 0.4889544014912225
Ni 4.111905516974768 0.9837176584030628 9.44681941406635 0.0861458398601484 -0.8881482491878446 -0.6803660898704218
Ni 8.215744298390396 6.755047480720035 11.252765138366902 -0.30509224332450685 0.4663603182407904 -1.7993564655189462
Ni 5.429088194703229 6.323942694186783 11.454581955279737 1.7813934532826223 -0.046085481504152884 -0.8004412354881634
Ni 7.309126193680022 3.4851063353399105 3.949855401586913 0.01840986996575539 0.2983065878612411 0.8392075576230837
Ni 5.835347435714322 8.391092081630257 8.88594989263452 -0.44371532714776485 -1.0281527867396616 1.7681715552757096
P 1.4568800993600917 6.656098597570011 11.70489322063623 0.051434147410575934 -0.10266697744362319 -0.32936088606388436
P 6.919415284473112 2.5235145801847803 2.0036747805883324 0.8647236996163172 0.30316211618132954 -0.41326935195308184
P 0.016885751828713543 -0.1100523989299438 12.600877063098066 0.046259288077855815 -0.09530050977622297 -0.9820025134358444
P 3.592241802691669 7.0666447323353925 7.060924264433166 0.7329240664727957 0.14237175223241286 -0.19058199338905243
P 3.812071870586228 3.9153076474905384 3.6066042796374833 -1.6054106978639837 1.82080615075229 1.335651582623132
P 4.9804394107196375 0.1753118286470843 3.8153022524604263 0.24093473480999153 0.6085302388750423 -1.4572809601018708
P 6.673209296081747 5.824450428364716 5.177149753545379 1.229635743311934 -0.15274872459136277 -0.3755381559508952
P 0.4167718107917677 4.958673053399485 1.2770057250807567 0.91637921900908 0.3392886867005576 0.6974035049686829
Ni 1.1790709458295972 1.5606137090874803 0.2630862087442664 0.4739103626739064 -0.6988883170443254 -0.5651459583521363
Ni -0.060278335748449784 0.4514265067538414 7.928384129957876 -0.3204949510328222 -1.8159588499623174 -1.4530399254373296
Ni 0.6243404406364311 3.5485247055242963 7.352024632427222 1.6965704459989555 0.4293541733300864 0.4548829137288102
Ni 6.817792854680629 0.1285293719672378 7.1167589812793235 1.7842985427445592 -0.794185998607071 -1.843430058799393
Ni 2.861441656665177 4.265754297558723 5.580513266968899 -0.844890466940474 -1.123948233874432 -1.0990015912314235
Ni 3.5069280074181837 7.009891790504447 9.25405577923246 0.9393455979972661 0.7054641704896302 -0.1742503461085644
Ni 8.686408356105678 1.7863440178481544 3.559486246758376 0.19742806977660837 -2.3282454984215772 -0.14723859340641093
Ni 2.410958266537279 8.57269043253766 0.5520670995896961 0.39069223798351427 1.091902775403113 -0.7970874885245821
Ni 6.347110358712639 1.3085720137144732 5.141595270851222 0.8954506963865289 0.503561609881436 -0.6522647036485153
Ni 0.2107492284365536 4.582311439152159 11.20903421251 -1.2966975699574377 1.186848987163711 0.8982933080416464
Ni 3.9448549474528805 4.296785876863948 12.269836674003587 0.7561650392786075 0.18748072875590938 0.07598201195326915
Ni 5.380632466590257 3.261791437683802 9.172126325243273 -2.229391209855825 0.11072944273678349 -0.4468623574171788
Ni 3.949187936838934 1.255589694562029 5.612154230526078 0.9414703576497528 0.6975521147314051 1.012923628494733
Ni 0.9146009462196995 2.9608607152592183 2.1065731374681116 0.010890678770574792 0.5318152054104905 -0.06535487125672616
Ni 6.870719859074954 1.3542343465423932 9.031945821390728 -0.8775365351102693 0.5557868857347397 1.1710320747361123
Ni 4.797384437848413 8.257866486698646 5.560623923774279 -1.6992816742825316 -1.0109132829329237 0.7826759410849424
Ni 0.3341472346755418 7.4410426726694645 6.780753170730955 -0.2808156301653293 -0.336182279861092 0.3821677454522709
Ni 6.902516625867502 9.090832990972464 11.77083394379088 -0.082212052023381 -0.633982617509876 0.15746798444390303
Ni 5.9471385618745 3.340430585477495 13.424119232894418 0.009317934966816212 0.5709983033678553 1.2443550517999795
Ni 5.176152244073951 1.4618215510854633 11.798805695059443 -0.6544946214202986 1.8853318412395015 -0.3169997933953702
Ni 2.7722927048287174 6.038656829183759 0.4528066099689312 -0.1364085926704425 -0.2770330231944455 -0.6224774450837538
Ni 9.090971277867764 9.009806089453265 1.2007921294306192 -0.7185112334815754 -0.14986986038167094 1.1753831526159564
Ni 8.500762808729174 3.3942518451280894 13.574082151720456 -0.10468323654270359 -0.12199807367206732 -0.5625609712337796
Ni 6.128580187633896 7.130560935342856 2.7283903032216434 -0.928428179753814 0.5579509832655939 -0.1748301298714344
P 3.2195678389856655 2.2152638714356723 12.96373450106307 0.44031555743759654 0.19842437225160664 -0.41700285085358507
P 4.517814431184437 5.130443815614265 9.934973076386488 0.06169876256137761 -1.2121378436374866 -0.1807146136766694
P 4.248606722541576 7.573447765355632 1.3868774291341757 -0.45743473361638637 0.25411163851158175 0.23307770065941794
P 2.078332187710032 2.1484713010059773 6.135525877428477 -0.9456008348783586 -0.641742978181585 0.712029996632606
P 1.8746171526810502 0.7694992727197606 9.259709869424942 -0.9463701089442151 -0.028817181342008436 1.6844993737670344
P 1.074083534918159 3.676043661243212 9.43911406826026 1.776351777093657 0.02356544602476587 0.812525163235891
P 8.091359845631603 7.49997132831979 9.025158700569426 0.36241190298158227 0.4768655886474884 -0.6253722501330455
P 0.8329821767886191 5.373570615803625 5.929687677600328 -0.7457623558880446 0.5240365899063362 -0.5648199424712854
