# total energy = -340889.9710541755 ev
CRYSTAL
PRIMVEC
9.08117162117204 0.00000000000000 0.00000000000000
0.00000000000000 9.08117162117204 0.00000000000000
0.00000000000000 0.00000000000000 13.29121260647949
PRIMCOORD
 96 1
Ni 6.227213531004182 1.9728118465374178 11.502135467380997 0.3321196797559442 -1.0585499109742802 -0.0043045409126248445
Ni 4.620100458461028 0.5759560445223636 5.895463808331005 0.10107572169710334 -1.6387944155307517 1.2429836253737496
Ni 2.838492676647951 1.55941876012652 4.665534467305595 -0.6466612414188088 0.9009803679555064 0.6730291898893763
Ni 3.2186395944074215 4.445106284761761 4.9916874640186855 0.9518964380790832 -0.09272863528398868 -0.04118547309937423
Ni 5.5378618067949805 4.625258563840435 2.7210831191834757 -0.5900350082843322 -0.8174621955261921 -0.12878938556228786
Ni 7.633106006721786 6.060474142146257 2.4706507461932294 -0.4632685666893441 0.6503872841201443 1.3938945254254251
Ni 5.329167405872155 4.510245527519667 11.62287236606205 -0.3616169178841127 -0.11671239979309578 -1.1033346713891385
Ni 5.523141227886495 7.966648352637737 12.664319269444471 0.4093998416953465 -0.17880299847625336 0.026814806199998983
Ni 1.7232975799800205 6.51591305233648 0.5243631852054128 0.5473480109387671 0.2757515853788606 -0.37409730973931055
Ni 2.414574512535058 1.4178796220218615 0.29834644975579194 0.9813036875966069 0.25948293012582413 -0.4380627568476778
Ni 0.7594574596290754 9.214392227682133 4.674107093147427 -0.006994429039962146 0.3663037818368207 0.16724666109722164
Ni 8.33421784794918 2.237991133833333 1.397211783935605 1.4887260659850297 1.2551706543582448 0.7075097401647492
Ni 6.941338690908848 0.9672537326962256 4.8732898751012526 -0.800826129631408 -0.8317642139711611 -1.4581353376823663
Ni 0.7545972166729857 7.424529661027716 2.7813457728766946 1.495526890956947 -0.3471837731779182 -0.8377636260877056
Ni 7.879423700931382 3.7239250546461804 3.7100690032590324 -1.1932530909178418 0.1640068140036853 -0.4503927391679404
Ni 7.868399158800043 3.611654532101083 12.514979405070603 -0.6443397923744838 0.6156030865614236 0.16838128892229712
Ni 8.193795693931964 9.104510053226443 6.664506444417765 -1.249644325223377 -0.3033053266274131 0.341634818335231
Ni 7.01215366581839 0.5939685480787982 0.5179927434384156 -1.6498882114510682 -1.1297422148483898 -0.11200856655952322
Ni 1.780699664668815 6.204147355539931 9.358435952870666 0.6885211148773884 -0.45619520478233044 -2.136074049058218
Ni 9.349247623605024 4.7710749336945675 1.3971854485384214 0.8107025082048553 -0.9605636268357781 -0.35742910505501024
Ni 6.285905142037828 2.1142601729276502 7.020232275933744 0.7286791751535128 -0.4462478637616315 0.22500675072582538
Ni 3.349517437238445 4.565404562862134 0.6148570586311102 0.344484114858568 -0.7449920533809234 -0.12704077830229735
Ni 6.410716762345182 5.695728891153468 4.667567741591597 -0.17230144991230972 0.725476351945499 0.6917105683489635
Ni 5.12484104841323 2.8444408439428663 9.047727304430037 1.296503708779077 -0.43269866432228704 0.6622567818642208
P 0.3827468571434921 5.433718932691027 12.320302700386604 -1.5573377536161566 0.18599206002552485 1.1834862413390652
P 4.0181005223583774 6.281909426603076 12.620564369199645 -0.13405269084375623 -0.39624582081189175 -0.05826274029663514
P 2.320675199818378 8.541359368555318 1.3302245227891265 0.014731135562587535 -1.0388390628089141 1.0917276832778295
P 6.520598936800871 7.78076585437877 5.810279695847807 -1.376314864670449 1.1763205768285612 -0.5215325925375598
P 4.727921206999242 1.028106662533215 12.758128678563867 -0.8132514998789542 -0.31295261990919004 0.11905004678733691
P 4.144801026325797 5.9982045495642184 8.223778089566915 0.09837606337775315 0.8857815487278811 -0.1826779080506273
P 4.835560332108605 1.0499287175098282 3.800795354673661 0.25171588458589556 -0.3727361677257258 -1.1859120771717384
P 0.26901063352755583 5.63307788937084 3.8593425750813695 0.2940272437595968 -0.646521630517151 0.15629916094678242
Ni 1.52679011113319 1.1253387651693358 2.5592893362932 -0.3760035256230879 -0.25589058478887544 0.47030593315209973
Ni 2.0297961973398517 6.576493547030191 4.990265352570771 -0.6692782074873763 -0.20864476442803423 -0.5337718149162292
Ni 5.991502645039566 5.641123807269 9.376019825135009 0.3876927890355581 -1.1841660410149089 0.14259415265586411
Ni 8.271258086337504 1.9965227851740959 10.260218071934185 1.9996952811844462 0.029807570279735764 -0.07337054247235106
Ni 2.4812757167810937 5.225978054769677 7.274120942775051 -1.0289806819575955 -0.7003163077401036 -1.2735152183037035
Ni 0.6820849708208181 9.143831525572983 9.188068636021413 -0.17274085144257348 -0.848423419794397 0.49064978691577443
Ni 1.6844301662056118 1.2668869844454367 11.216679740488004 -0.7123966359434054 -0.0342442658948507 0.4631883482707119
Ni 4.076310831305565 6.934909221527474 1.4871535221375913 0.2157158123422027 0.19685034289626743 0.6270930894788943
Ni 5.640933102668706 7.663836690883609 8.04002694224553 -1.0074299523700134 1.3683992093677981 0.08574911864236201
Ni 5.127365614074278 2.869395903067183 4.833973851457579 1.0099709736243123 1.0952349251001394 0.2747941065615977
Ni 0.8639009205077798 7.734088633163709 7.031436625259647 0.28337953423776363 -1.972045637787978 0.5952990848967489
Ni 5.115205925512611 4.793278397871771 6.673079070259597 0.4773476704902296 -0.303912878304425 0.30423606597179864
Ni 8.119457224502685 7.2397187409989785 9.205547166697022 -0.4190851873039105 0.976289522211467 0.5083052952140085
Ni 4.485808095167579 0.5816444903140201 10.449338915929589 -0.4459336749553223 -1.1077294580227246 1.0828296094572512
Ni 8.424230419288419 7.41608417158608 4.916645203802605 -0.15469402124319168 -1.439872020596804 -0.45046781538025005
Ni 7.257908327398543 6.311005499905227 7.144797796495004 0.2919937582693359 -0.16605958276765592 -1.0377327171186128
Ni 2.284868140820132 5.160257617039443 2.8072634361739293 0.10428548688365266 0.44225159811804476 -0.5952877720428393
Ni 2.354983865528592 5.309588400241869 11.580008328735744 0.78986525974453 -0.2746429256957141 -0.3805194112155705
Ni 1.070788168313524 3.5357541011836737 4.099169047943781 0.7692493832663913 -1.043771467113525 -0.019897767365191537
Ni 3.8381843537372116 2.951907426794819 2.753686340896766 -0.7970152405257499 -0.0018180270453452563 -0.2266010917961388
Ni 0.793860569522293 3.548594877603537 8.325548961690055 0.3031837134478843 -0.8184029621729066 -0.7991212311251592
Ni 3.8516063251294024 2.779065490727453 6.980571167775251 -0.32998077903607037 -0.7057978996799651 0.21057771978468898
Ni 4.30622792988979 7.0270286246414 5.899464064351479 0.21117215883557824 -0.03132837779963637 -0.18348034934726465
Ni 0.7470207953384088 7.179728522449038 10.993082229110698 -1.0384135452357213 1.4466944428352762 2.3037814518419424
P 0.05120146082777396 5.67590469389423 8.030218368970358 1.159154606572236 0.33335997992094846 0.04589753386306289
P 8.708126000927571 1.5023526787811026 8.055206120311867 -0.9575297251054606 1.4056640072565276 0.45338730301989016
P 1.8335430012934144 3.320621149708032 10.23508411373245 0.11947042215420715 -0.33619282138405326 0.815640311826105
P 4.147761488216091 5.910916329657765 3.6714585866364495 -0.029860277894542125 1.8656569885183933 0.4658988052233396
P 6.871168479171732 3.584601722373521 10.273788066420892 -0.568644458423698 1.9846113902681302 -0.6758178083781071
P 6.206490297772126 7.4607544539123225 10.4874307976628 0.8960003982424116 1.5804877093700587 -0.09508350866941044
P 2.5580025342997805 8.515287325343559 5.813934867353461 0.45831713622133974 0.05366226541014629 0.0009420521982951518
P 7.267879453642539 4.141477317577798 1.5517624244832477 -0.8778844053679913 -0.8229990661840213 -1.4374117319817696
Ni 5.3118496119310805 2.951716722194524 0.16037076332521724 -0.022277323340961632 0.36950094861787974 1.5103264178636246
Ni 1.6220697619091478 1.00766494561588 6.967053844082912 -0.06206231654838344 1.7026737306832163 0.08043979061430663
Ni 6.677376280586245 0.47941320279873767 9.389311027658424 0.20699283064690804 -0.4957799090534881 -0.665936287598337
Ni 2.8538852622431903 1.5522809593726214 9.056299930271868 -0.6401077565710072 0.8838838174845359 -0.20144413291453694
Ni 6.108876785935415 2.162481193287957 2.3484908279471197 0.8413721693745703 -0.25426281937746537 0.67957856097212
Ni 3.9797053294989846 6.968863721551426 10.201829772026723 0.9155104432508814 -0.025715145377917 1.2700342017336383
Ni 8.251007074020462 7.0420034763502795 0.4232107408575135 0.2363311745997091 -0.0011744799240753967 -0.3360514107101825
Ni 7.404796275482905 4.133776484194457 7.994146139765987 -0.06343502852619398 -1.3658651300920348 1.0418372262052895
Ni 3.0477773537145465 8.527610474991192 12.479956959285 1.15891857930203 -1.2800273083906084 -0.6990960621797574
Ni -0.3987460649910981 5.02209667471144 10.189694602627952 0.34259383981439057 -1.3576946784661004 -0.4914162327681537
Ni 8.557069795151047 2.366380735689079 5.90914005252359 1.4363827764966228 -0.4692870049692821 0.29457745983611205
Ni 3.5185906871571246 2.8708670528408877 11.701597041298113 0.4459359889481675 -0.2882116655190843 -0.11819412654494484
Ni 1.2230612510633578 3.3724655574739435 12.641750742175274 -0.0750085922964063 -0.2727981591774915 0.21313571031985232
Ni 3.0428008717639914 8.298447113636703 8.18807818839169 0.8624932676239019 -0.4285167650304556 -0.7008300141517285
Ni 5.587526733414664 7.88822335605928 3.584706155845111 0.10008610409032441 0.03690330078425257 0.3257212324287681
Ni 3.0684188564036194 8.472269816219873 3.5473580220530527 0.14999944398099976 -0.924289217884776 0.15486037161772684
Ni 3.6805897045220033 4.407092501102959 9.68510748447313 -0.821318850268121 0.5862153774279258 0.012106296345230763
Ni 7.2894835605045305 5.9983589294787425 11.810119764388842 -0.1187775098522406 0.8141794110098622 -0.6732968417284663
Ni 0.6944962078314454 -0.3674968459399022 -0.11411400034794927 -0.6949606998551451 0.9927504959809678 -0.24935586899415116
Ni 4.432483456456521 9.436608492883018 1.774097653030031 0.4458922801944256 0.16359980837325372 -1.4575704663178317
Ni 5.854177170484282 5.395904934803962 0.3903877547953117 0.5005238514963767 1.2125217093394667 0.909679438391401
Ni 7.898085508245964 8.738665980489099 11.527348431774286 -0.21542167814055158 0.12964093492930576 -0.36551239628377696
Ni -0.3048912500144874 4.722672289905409 5.998882004953837 3.0984122512959154 2.0174549191607127 -0.3880110916069253
Ni 8.030952127622921 8.75940737606404 2.8119284339440025 -1.137624445809944 1.0023959894905319 -0.384415403835867
P 8.696374965080823 1.6867186214091516 3.483600025471569 -0.4041684180930782 -0.38461569277213115 1.3558650814565292
P 1.9925089073964584 2.9664100575886807 1.6520176490926162 -0.7176344873035769 2.7918364814473464 -0.29181609504089095
P 4.765290227485619 0.8151159594008868 8.179412026484 0.4729374572376758 0.33038958443871486 -0.3182431788841681
P 8.578165356412251 1.5486121661098031 12.664664353959292 1.1396306776066956 -0.7578745657705463 -2.008181978499219
P 6.491012480240819 7.703793845231132 1.5193317450273671 -0.9575940026844928 0.3381211487550177 -0.2294215919640694
P 1.9514529313043782 3.17615787439885 6.172678372139823 -1.6700286909546853 -0.46015110410628496 0.2007306517872801
P 6.974657508931817 3.8748904487082774 5.755652817151877 -2.926476926473773 -0.9596804528998762 0.5002716262762545
P 2.4421903548920616 8.449012936155325 10.297726034343635 -0.8930911950154167 0.6929490687417549 0.13650963702468102
