# total energy = -340896.956563495 ev
CRYSTAL
PRIMVEC
9.00797335525619 0.00000000000000 0.00000000000000

0.00000000000000 9.00797335525619 0.00000000000000

0.00000000000000 0.00000000000000 13.18407954532378

PRIMCOORD
 96 1
Ni 6.25665916984983 1.882846628170868 11.306746225425027 0.21735489060752244 0.1858647904190412 0.6720853379188684
Ni 4.56240347559622 0.23014111264226503 5.887641228429587 -0.3878411416879643 -0.00888059031908148 -0.04272376412077158
Ni 2.716993985434529 1.5526413423185115 4.687823292711084 0.5008791779532665 0.12623088080649228 1.1492520027465434
Ni 3.404014110960009 4.047039293743232 4.951228149224015 -0.07545802112899908 0.9931991534826121 -0.06547982687036465
Ni 5.098855323493359 4.636530089811215 2.505001237072122 0.24851974624610104 0.6574655311231645 0.24727121855098064
Ni 7.396122782090162 6.357611529250418 2.846310651900396 -0.7097221744350357 0.5629358380746949 -2.131791105412148
Ni 4.967780300593567 4.510904890899766 11.343687924889808 0.8642596154957051 0.36702034828787117 0.43774471138662674
Ni 5.663547168420998 7.751748569256737 12.388697529837303 -0.30703214065969703 0.3588851207752464 -0.3798781780871458
Ni 1.8591286338546593 6.431819215227223 0.4218866388912878 0.018726115654593558 0.47885330850147856 -0.47653340211905026
Ni 2.657820607286723 1.6325510755426231 0.33313287725105273 0.5016628501968264 -0.611120882420354 -0.12974120795259592
Ni 0.6909908402594654 8.85980137778244 4.766269230235847 -1.1094610960018507 0.3901070549040056 -0.7927518372637056
Ni 8.675687406711802 2.3438927296111194 1.386727981774233 -0.4256440714683508 0.2714593857614099 0.4840006570303728
Ni 6.86504869439309 0.6531267243047557 4.822288016051888 -0.2630045701258374 -0.22250326757768132 -0.7357232264844878
Ni 0.5521212178603144 7.5797323066428675 2.2605293393338997 0.5775870123289666 -0.553758028230169 1.0135556056517772
Ni 7.71473480600368 4.1370559732729975 3.585831949576714 0.4985417880693414 -1.7358347908162168 0.8018484002483351
Ni 7.548582734160738 3.7556313499037546 12.346244752164145 0.28331808487220883 -0.1746835769912411 0.8918393248861867
Ni 8.089754760189928 8.722285653805516 6.859940272601704 -1.1208917064362955 -0.5800727548652979 -0.14516371315525323
Ni 6.736360784479929 0.6484732051768586 0.46060020675029617 -0.13311912328589331 0.8546616873946249 -1.304627880548108
Ni 1.640523132120612 6.600583599395155 9.23693730495193 0.9860784832774308 -0.11622286175118694 0.518551655532365
Ni 9.096882233235645 4.848658858573993 1.2948826836169745 -0.5718143715112475 -0.07247579857222357 0.477194689852133
Ni 6.1790915097446755 1.94462331067013 6.733610650159862 1.3613021933117004 0.585190021487205 1.146523805182103
Ni 3.430992991695689 4.2391703612595295 0.48173561505417767 -0.120113969275477 0.20533164089440117 -0.16244178350941055
Ni 6.073752267232811 5.57507986033916 4.6788981925331505 -1.2973565436976753 0.0671009074135554 0.9617409349733307
Ni 5.148444217800509 2.943598567667169 9.259812152945313 1.0854518775714468 -0.8105114752399718 -0.4656553217539658
P 0.31067419763496046 5.4489502149097815 12.321998890598818 -0.4257312318655184 1.0148483563212716 1.0249623048268217
P 4.0347884497363795 6.172515689064527 12.58195009005864 0.14195343374807165 -0.3596063152119871 -0.024008704209771553
P 2.3021047403848027 8.527190962996384 1.3537020484048767 0.5165006865406073 -0.49540298533004357 -0.05376408109533321
P 6.201359220321838 7.737786210278339 5.7902371098042185 0.6038071223677601 -0.4524449937112789 -0.2700542778837672
P 4.688848400099304 1.0579144278329493 12.680527046838193 0.023168467696663326 -0.009287853059829165 -0.8798042480985235
P 4.0012877961617574 6.198233453505384 8.234644411302153 -0.7226411964895489 -0.17931901888072344 -0.041915666397179425
P 4.673426749408325 1.0371690647831096 3.720639876709181 0.45324717789760005 -0.10262172602798456 0.1646210505489165
P 0.27120936478317886 5.712901855416254 3.5318967080391905 1.7561801872417884 -0.13206034300407576 0.5198060967647564
Ni 1.5409489926707947 1.12693352105391 2.6812728663836656 -0.5238944079015171 0.04344572988846066 -0.5745014314251073
Ni 1.9161941461954042 6.3646017167131514 5.011650933301048 0.33965892555578275 -0.09166496990616471 -1.9135615255091558
Ni 6.027874658021854 5.662042836840745 9.223463178139099 0.09949500747354477 0.5338623177475064 0.2923177172676579
Ni 8.481052122552928 2.2726306509800804 10.161853507535483 0.0740552272442015 0.10349692954408628 -0.2935130231273396
Ni 2.2315632996365204 5.176260840074892 7.163068490806855 0.4768216227834303 -0.1498626612928193 -0.16644704801406174
Ni 0.5204383733449447 0.14634173644597784 8.996156874768126 -0.0013315743272299648 -0.5197934983592661 0.9722189516865193
Ni 1.34287266262176 0.972527846699892 11.36380633298165 -0.025488116968775457 1.526387070870913 0.035826008559673786
Ni 4.016051864784722 6.7507285022673775 1.5185029242176509 0.6544537408800342 0.38623523065342513 0.46854112794219305
Ni 5.566531293454965 7.816966297646159 7.987192675918733 -0.41163593011471694 0.37122641594941874 -0.24093704880283665
Ni 5.502295434180797 2.980134908322901 4.723407490564223 -0.5586842618871927 -0.0516218379413498 -0.785116689315951
Ni 0.9055805873918549 7.312042357119599 6.8676006532954 -0.48815144597395294 -0.07669960684558404 1.175884517732407
Ni 5.198627638360933 4.650204193636511 7.279338909202776 -0.08417920305208083 -1.115258419409918 -1.322007509477136
Ni 8.1989133834804 7.123073088313895 9.219824857628534 0.2672268357373011 -0.003974411266715735 -0.5488770459887837
Ni 4.600669347170567 0.23696825578402517 10.371770818795552 -0.8151888261109832 0.2206955249449812 0.13834000536520047
Ni 8.151990849339446 6.976693518379072 5.0637548538190185 0.7453000715396454 0.8047995124568591 -0.9480207571737608
Ni 7.132450388763257 6.122566475815999 6.961312403568997 0.5632446275643653 -0.4909266947262449 0.8316192037528646
Ni 2.2637397811015783 5.223804924389722 2.4878491546651746 0.06956633823491246 0.12291724305222702 0.9265458751294364
Ni 2.478976300733741 5.102431488986535 11.538205204595382 -0.9471352692450141 0.08512459768448566 -1.055794202606014
Ni 1.231299902424055 3.4156163808723816 3.7837785648068527 -1.0116067094555221 -0.36124205104319723 0.5686611705942464
Ni 3.907163480700283 2.7056889786487943 2.4542692309234497 -1.1250563793369464 -1.01075413164724 0.5189972277102158
Ni 0.9100665582120113 3.2177742581352424 8.254987117935002 0.040407200172452994 0.2377663643843389 0.3720923634941398
Ni 3.752046176437043 2.714084409982902 7.10635068624454 -0.5360670387083091 0.2553671081852376 -0.72839378270261
Ni 4.117301487311947 6.6823759990879665 6.05466977609743 0.2961923697317157 0.49375593664492384 -0.21608116610142142
Ni 0.8507778780029642 7.381502841043748 11.456056089150605 0.2393766462942523 0.04998584499982359 -0.1596009716265058
P 0.20407203723356496 5.498503077322794 8.022288641606307 -0.3165436796945581 0.21336839515594866 0.006452697603879209
P 8.106671734487625 1.512447764407793 7.854283629607329 1.3821975487034712 1.6657138656294153 0.9971234282376829
P 1.6865178449875167 3.266111044121105 10.402133094390772 0.8062701834651147 -1.071761524568548 -0.19021638251951759
P 3.935196294339493 5.998796919452647 3.8183601752056084 -0.21471256788866896 0.2173248087005354 0.21573638116749297
P 6.870624630010916 3.9682285332903238 10.258914422369187 -0.2876856178122852 -0.5757710421661503 0.5137922864705087
P 6.380734997313353 7.761621308250495 10.142196307688605 -0.8548864018109212 -0.9666553415558126 1.1438416303642494
P 2.4354677885623444 8.519336010074344 5.852716414239168 0.8123055910259173 -0.35471247745479556 -0.07344690423624126
P 6.970117697698923 4.05379527389407 1.5914900297805368 0.45973689938700185 -0.6080229602213206 -0.8243956894212318
Ni 5.427313062480031 2.956110642906521 0.4118247324533064 0.005190028841371706 -0.15134850180972642 -0.4914437435719794
Ni 1.3527904414831904 1.0904242043187817 7.03634341832685 0.5097808513182704 0.12449487195199203 -0.8993268915124835
Ni 6.6353453692646 0.6622346863454388 9.209593601288104 0.5772337427546059 0.9340162153645526 -0.8712414461301768
Ni 2.6975818024677887 1.67015035707542 9.12318551595624 0.22935834282630177 -0.6914143772647835 0.31395637858335607
Ni 6.364574692792549 2.0707619640730424 2.593190198771747 0.3911064427027974 0.1763167417192899 0.10580963683766294
Ni 4.184347834328863 6.796083649013337 10.382910979665608 -0.4889631432419707 0.5211333002166122 -0.020411987997448717
Ni 8.156233604874172 7.152015707280085 0.2657379216583535 -0.26148170572340773 -0.3077991007327086 -0.03397789960734148
Ni 7.631825417592596 3.9586080175555303 8.16018089887697 -0.6898529463149345 -0.761458683577379 -0.41505832553270455
Ni 3.1136961319182004 8.310783406804742 12.367062179002259 0.34431905003561347 0.14527915568719496 0.34674617141986736
Ni 0.037230855415237844 4.759326785032846 10.298216210899996 0.5601683026318869 -0.3577882881666418 -1.1046999271677813
Ni 8.627801019402662 2.37372713795722 5.792162113748531 0.05312130530501174 -0.07989523096474628 0.18405267691096688
Ni 3.6963228521529317 2.609555885089137 11.196078766567533 -0.8780391857783008 -0.7796163283230122 1.1236512714593034
Ni 0.9903095864568975 3.3845929200197333 12.586788272643995 0.44167181435517483 -0.8579475572347481 -0.13942243979610183
Ni 2.9889356984660593 8.262815947733793 8.062394842173742 0.8687042815306201 0.43739735534953705 -0.2769553758789746
Ni 5.527481728183122 7.754694176602503 3.536550227167088 -0.45963662636371166 0.558199094720658 0.4388932231687731
Ni 3.0097351093571056 8.245664766124198 3.566780986348704 0.312218569956643 -0.22406752674100763 0.018291084999703982
Ni 3.383196684121894 4.3680654545639825 9.231387492457355 -0.929064527786232 0.28501244185549623 0.2845411586460325
Ni 7.321788984483875 5.994635235679731 11.361169699128117 -0.5348766179446337 0.9542703376278985 -0.06758247503566425
Ni 0.42781748866637004 0.15741523831187798 0.33069892280204416 0.4519323157409184 -0.5596463686901458 0.4337093649749885
Ni 4.519768736857666 0.17710937085024736 1.6212334575939393 -0.24291217025133646 0.4195395012325097 -0.3072745956878063
Ni 6.10540628623287 5.5536859231948394 0.2874489394710864 -0.4282984783720624 0.5047959965091693 0.4353440723649341
Ni 7.987307077182621 8.83592123994261 11.212558854148812 -0.21274027465364653 -0.004818247324249766 0.25867637506412866
Ni 9.12156408072004 4.799709530387788 5.6967091221907245 -0.15661772062846574 -0.11033966349753255 0.6388779979289643
Ni 7.704294564677252 9.064813847453001 2.4690224899781725 0.9957298903242658 -0.7712479017536589 0.8931369606516876
P 8.57373516224889 1.612400238746057 3.7112391555286286 0.09461402523215963 0.44633939503417325 -0.3005629879955856
P 1.8405001445854157 3.1103631817104533 1.685795405510054 -0.19066941089653613 1.1503966578739477 -0.5829958420493636
P 4.749129758991847 1.0552840995608899 8.035353806420673 -0.9622399860969365 -0.8471453244129217 1.3829279991115926
P 8.390062581881443 1.6445677122375804 12.414300893014273 -0.6600656877501728 0.5622514104131607 -0.5453044981461771
P 6.318688075608058 7.709050774703441 1.3863586548593205 -0.3886587524932532 -0.8729178053913353 0.186154296635002
P 1.7807682720784737 3.1931014186243822 6.262714329659688 0.21203553527713806 -0.39591312006282137 -1.9007954840927395
P 7.008194401829045 3.9430872791556717 5.941194531889249 -0.527597310674401 0.8764052497193034 -0.13488881359180643
P 2.42209995583722 8.586148149779364 10.216659820113787 -0.12823891237545657 -0.7075801883913686 -0.4988451782423732
