# total energy = -340866.28644076415 ev
CRYSTAL
PRIMVEC
9.26649199402641 0.00000000000000 0.00000000000000
0.00000000000000 9.26649199402641 0.00000000000000
0.00000000000000 0.00000000000000 13.56244770462436
PRIMCOORD
 96 1
Ni 3.411301479877228 2.5382774740867307 12.864998803655048 -0.5249004805685282 -0.3710855194961803 -1.2902351021615457
Ni 6.440350900454107 0.7881522060491121 0.8751914382568707 0.9850058190385421 2.79642538636961 1.1964816251574684
Ni 1.1492766637105971 5.514693220405386 3.066266432183094 0.16737830157907949 -0.9582128672154143 -0.9722269221063191
Ni 5.730287422041272 4.039097042785748 11.021875949087834 -1.8661886926521474 -1.0693891676816292 -1.1319927014454634
Ni 1.7763587067392086 2.61970213882388 10.164240806473503 1.8004450705974346 -0.3298995321761738 -0.4818229326527637
Ni 1.2837705278274736 3.765383403659092 12.891350853453558 0.09041104289440559 -1.0287284567374735 -0.1591551423383388
Ni 6.3180888057071 1.3324103440565962 4.160782761733661 1.0384500549006115 0.32211937401012264 -0.19489964692779982
Ni 2.180257291227447 5.382117520121511 8.826265007353616 -0.30484901696544914 -1.4106303501228674 0.9759941024582354
Ni 8.790805849269722 5.702571344628182 8.273201848698216 -0.3200774038794294 -1.2702177784993542 -0.2340274661671969
Ni 8.1292617226907 4.996872383922322 2.7700620904521887 -0.6513409062826653 2.671563360886186 -0.7812430652931577
Ni 6.999240829245699 7.70499538890324 7.525856493235537 0.41824057991542807 -0.5683469817879373 -0.18981169088193117
Ni 8.51560030493962 8.93885659110487 0.9729130823809816 1.5727078083143236 1.6562915438742505 0.6302100378413211
Ni 8.451503980143118 3.40969837677042 6.901862045323623 0.9369999805832249 0.3783835958194903 -0.4609751426694771
Ni 6.272052873715048 2.6962526287969766 6.778565810075345 -1.018310089617627 0.20233373460834184 0.04195140473112129
Ni 5.377345276768874 4.2689894414956555 8.391317188299 -0.3935343354179997 -0.3495075362150884 0.15387126823158015
Ni 7.953392972031047 9.02191215842467 9.65815783533954 -0.16522705956403158 -1.02329083066167 0.33153166846295806
Ni 4.29816962463635 1.8296873678934473 10.47600080823562 0.3192909034223921 -0.3130770613021963 -0.3742410344060264
Ni 1.8307715474512312 3.2670314667564035 4.556995717801166 -1.3363576075512211 -1.8221336113144617 0.23611545904447723
Ni 5.009539678413694 2.778696607648282 1.581110014821871 -0.7530300931940515 -0.8961058134720243 -0.013223440668809486
Ni 8.069557715077014 7.786698048398796 3.328320044493004 0.9655474532036146 -0.4913982350460247 0.6434399062680338
Ni 0.8645451656591114 7.4390748695039015 9.274475956331788 -0.40170195883045656 0.334250867166334 0.7362004232312224
Ni 7.118713709916699 5.390383230938119 9.756675471121888 0.39608127020956946 0.8315577543873098 0.22106139292483218
Ni 4.3931141011239845 7.177583733255166 0.6642490155783136 0.6929092166427551 0.6187809700687731 -0.6392245826351055
Ni 6.2770845788421985 5.680656091173834 3.92989514178866 -1.079205639551419 -1.6650302092988292 2.5267827421019646
P 5.22528214392073 3.5686928455948217 5.196505979828919 0.28305300413628026 1.0473514711552996 -1.1302857460566855
P 8.41383569037909 7.008470255224783 11.125356717956924 -1.224079332270079 0.7617695299495784 -1.1673476839059895
P 7.2176891104012215 3.516976554039338 12.36857244377892 0.5886334999511152 -0.23189756430838773 0.6535006329381455
P 4.53409450960367 6.7502501906332935 12.075094303978783 0.36013776223542493 -0.6831850473764556 -1.2860588592966689
P 1.8427531215385347 1.5922891107065755 2.8035882583159655 -0.022242099227652013 3.7047681082274586 -0.4918314659287013
P 0.3788327237719543 4.677335942118392 1.0346056791664657 0.39940313549395084 0.04503467164213534 1.0574924162440433
P 3.1562412890396216 6.450071450506374 4.891852450740856 -0.9428700662107568 2.1358963858297733 1.157099009594788
P 6.697403387060291 8.175946309119032 0.27420105660306227 -0.6201793930781964 -3.618101105756517 -0.8389694734703488
Ni 5.177745040233286 8.932990901702501 12.197102496846446 -0.16633006282022322 -0.9051023605436799 0.016500825868500615
Ni 8.821792998340056 0.773712231648304 3.1786439599703753 0.2445085682041789 0.017750639115201687 0.771558233905226
Ni 2.325648549873843 8.492749135798636 7.186211763906897 0.9180560924908705 1.843618006440483 0.754736534362197
Ni 2.6699543246517585 9.242306402889033 11.280728915079294 3.5663260300667545 0.11361756291785595 1.319024258479096
Ni 8.120041563203563 0.15347256627326167 12.289096522298195 0.2721805801981506 -1.260109486420759 0.039845671242028154
Ni 6.566699518149685 5.380393952619393 6.62517386228202 0.039379787349203145 -0.8411978485802352 0.1006715442801492
Ni 1.3554746425123563 0.6219623062279654 5.391697219496186 -0.40987549578018445 1.3028072823996015 -0.31043602413492344
Ni 0.6465398228186497 0.135457579279351 10.77833493438938 -1.7868087107609225 0.5795400222902793 -1.1581948137621279
Ni 9.012905128252312 2.9465035103141575 11.115239562049332 -1.6831253762376435 -0.029814512258271236 0.6699994019241171
Ni 6.654156669144246 5.655553164489762 12.542361793645695 -0.46113866483053484 1.6683425615015137 -0.5769110693078644
Ni 2.5863242348312534 -0.01700771931928587 0.6858649613427782 0.6809669566792143 0.8139816931767595 0.06228445986151854
Ni 1.3895845993687863 4.996242262469936 6.648637546540692 -1.292975383910844 -0.08730257917241094 -0.5599477019806486
Ni 9.12174934266025 1.6290863502275976 8.750450276841102 1.1612605971716452 0.6205056660693636 1.1602645518069632
Ni 6.078902115574481 7.559316869006491 10.070998584556508 0.33920152630339 0.30768237264918624 0.6989235411576351
Ni 1.0693346376849464 7.306795696962327 4.450313375964431 0.5358199556945095 0.26804521787353836 1.3486950460706513
Ni 5.253721007705676 0.3002241459374583 6.280213873172656 2.1966870347545844 3.0313411686790306 -1.6605978845590885
Ni 2.0041661447610695 8.936530701626205 3.2062571793228543 0.03875758038417196 -0.2603481063395968 -0.5296706482636621
Ni 4.545269898891595 4.668579107228599 13.010402108740974 2.1360514233503984 0.08239742856130972 2.9514209980136203
Ni 3.326503812071418 6.25581797982413 7.078092189169204 0.00825324114772772 1.5398876764605092 0.5862043216843323
Ni 8.961133237745146 5.547598533308722 12.678786794684298 -0.10594076309888853 -0.1443738702641062 0.9139734377810647
Ni 2.6127152038959403 5.653597934688972 0.49889032008480144 -1.2915299097135693 -0.27143444606074546 0.5784380474753522
Ni 0.7895949988452398 5.337601292808746 10.800278913968764 -0.4580659394424821 -0.7062463000712934 -1.9843730490050793
Ni 7.4491846122179375 3.471802405798345 4.311976697637188 -0.5410022712263973 0.016026714445559496 1.801549359405207
Ni 4.628297666735554 9.201978629936253 2.6019280806205884 -0.10116545319743223 0.08308956953232786 -0.2263444957006424
P 5.283438647379288 6.4236804814416875 8.242862427414968 1.456879353788078 -1.231693397171911 0.24257972661258223
P 8.435528548026712 1.7215288738895764 5.30775855549385 0.026270503660754757 -1.0031858323816787 0.6840638504369831
P 0.1794548830430915 9.083664060758613 7.847042370606011 0.07411693372007236 -1.3242016889149777 -0.8565457917912153
P 4.560967336249594 1.04477843402574 0.17067766187101588 -2.2380098047627714 -0.11331468696545645 0.4277873430635987
P 0.1282176691212612 4.607095933161115 5.030190055717296 -0.8807054197565541 -0.3262061424849866 -1.5128062468626848
P 2.7603118876256914 0.5557782407958333 9.107712460659132 -0.051802329383272075 -0.4680459334733294 0.6887034060915236
P 1.8349692683031635 7.215909943947422 11.16436308915808 1.2048878469432927 -0.44621418231021864 0.2359907605411549
P 3.2983151435690377 1.37293271334026 6.057124932850142 -0.4143785258568606 0.47819819141598285 -0.7594113141300469
Ni 6.498757599195231 1.5144320453689706 11.613808334863576 -0.23064183752441572 1.6231405110435788 -0.828660892455489
Ni 4.61569523768781 8.317538306067211 7.761435738053239 -1.4523871223446794 0.13771394174542734 3.651285562928286
Ni 3.6412402110468696 8.711392013285044 4.930709631421669 -0.9332924498246508 -0.42188331887433794 -0.8952668625104969
Ni 8.191449150146147 6.6552408487020305 1.0117517300778993 -0.24014951990453484 -0.7661200936087903 0.4032327936526862
Ni 2.6934541482290215 3.330303073769634 1.3568961223770062 -0.9402341712498065 -0.06097448280084338 1.7092652678578046
Ni 4.203438277463494 2.211059110458844 3.8333985278999254 -1.865339971498607 -0.321348300172053 0.5459886686973952
Ni 7.191928262788921 2.8440809748253995 9.299336100926853 -0.6373391926869346 -0.007883002292502553 -0.2643297166951641
Ni 1.6033162361233513 2.791697495849741 7.339861320176345 -0.6667731816773356 -0.7767361785617398 -0.010865996180226448
Ni 6.155220943248906 7.129555505494538 2.383871772074419 -1.105618839437625 1.7199307179914505 -2.2694978480687236
Ni 0.6468845363190733 7.121753119275273 7.009981620061317 -0.6370622848764642 0.13258690493150715 -1.7753331060211552
Ni 9.071469357356532 3.0385568413143678 2.678231155258703 3.6651553789318427 -0.7884182428853583 -0.7454563946118516
Ni 3.717633170656869 2.211346371709197 8.065817758927258 1.3128335562873519 -0.6591616878786648 -0.09651587024056281
Ni 5.068641364050833 7.029356928073028 5.793904669204121 1.703107475786525 0.16848053350432274 -1.0392391264608103
Ni 7.444977624874057 0.824423108827552 7.367609830311248 -0.2114251553866488 -0.21314908005629096 -0.051322047312743875
Ni 3.4581435966686582 4.119159533206708 6.452401973231011 1.5691761410119813 -1.6750770520118698 -0.5548078096509219
Ni 3.8172294261018314 6.909754316514772 9.835920656953133 -1.1905009820940013 0.15803671246317944 1.0744629826601109
Ni 6.514890561674732 4.301987419318461 0.9156943479074464 1.2412733275508623 0.9290771261917224 0.07761620512258245
Ni 8.588017939504411 8.686900675069465 5.733795715892358 -0.7494071517294836 0.9817420606856059 -0.32919145036555564
Ni 1.149638056896525 7.644939254595573 13.222939294683588 -0.47450531594542805 -0.1710053568087055 -0.8018108621421804
Ni 8.658378412856997 2.314862353247686 0.17753671921008932 -0.666484189682007 -0.10001822696686646 0.19848299340368397
Ni 3.3703806514398487 4.686129842975972 3.992337397772646 2.794740799578335 -0.7508958204598681 -2.0549786271377837
Ni 2.9617839555345467 4.860006297867048 11.67509783924937 -1.0425085412407014 0.68912403856871 -3.134706200630943
Ni 3.1442133824925835 6.966808107431653 2.715879985389643 0.4623162300784038 -0.5070757936822815 0.01453676016359432
Ni 8.317074981469869 6.419278897766924 5.384888201213625 -0.6927503224673877 -0.9920670967606978 -0.23362843095656538
P 4.7825198922073175 5.3011376469978115 2.161976355914661 -0.3566580312169406 -0.1778663455945969 -0.6399498908369043
P 3.6618303561528154 3.790894055988826 9.551855419672629 -0.5260808740298746 0.8548007840756504 1.5982051812544797
P 6.082052722836417 0.6941112125262981 9.16135154929359 -0.7756231480032191 0.2048508446032407 0.43985018776540374
P 7.121864317178636 2.5288534517767634 2.2118727084517795 -0.7418967022850513 -0.6748233056753217 0.051355471653840586
P 1.0203612277457366 1.4227030415869009 12.424436417129822 0.4096165856918429 0.6288884908164202 0.7949043648303342
P 0.8592892114268466 7.806000151124127 1.7909348985716356 0.4004439180536394 -1.2836831599756409 0.9931996677032444
P 6.138809986010998 8.502488218834799 4.4725557365845034 -0.037537849044457935 -1.3358205041008284 -0.9168052508029049
P 0.1260511633040829 3.7390480335460863 8.949371279516983 0.20820253468429306 0.701304896905618 0.44784297616289326
