# total energy = -381162.7918608323 ev
CRYSTAL
PRIMVEC
9.30583403965702 0.00000000000000 0.00000000000000

0.00000000000000 9.30583403965702 0.00000000000000

0.00000000000000 0.00000000000000 13.62002876516774

PRIMCOORD
 96 1
Ni 5.310411484231255 3.0045653679852613 3.145273302751635 -1.0323552548567831 0.4092242353494307 1.4951944473181928
Ni 8.308295263292793 6.143925743714426 10.504978361393077 0.09621890782543428 0.4330254515340865 0.9825072209864049
Ni 9.34668676754571 3.9719347459626198 5.718056341167675 -2.854313774045962 0.96356667532816 1.18905062280072
Ni 8.099677073192494 3.914601501729952 11.347826372534316 -1.185449792823339 -1.741995153990658 0.3671663869474322
Ni 7.219252103730931 1.254631172526656 11.814013301560216 2.5127715154245367 1.0811748474626475 -0.17102309742051836
Ni 5.4975890324370456 5.451739187552391 3.214762758141766 0.9610891603219447 -0.6781343723264256 -1.8277427299711233
Ni 3.589753443026176 4.741145691430576 11.910646944598826 0.6730279043377958 0.13762241047288556 0.19328447992188003
Ni 5.866211735008777 7.822353909521381 3.1147510973046737 2.9568298277340173 2.586920330823809 -1.660199106458773
Ni 8.156116957346224 8.180321431984947 2.5788569563694015 0.44555932233503914 -3.0510126789660297 1.9899495146515924
Ni 6.183159140514447 5.001057639396557 10.12729549868745 -0.6117145501402949 -0.6953437942261766 -0.3220694946087937
Ni 5.491298288547858 6.9987224459114605 5.1034525243609 -0.19713804934001533 -1.7320691531261978 -0.5102652471538568
Ni 7.652820222874612 5.764387297678174 7.173492525437586 -0.3859799201095095 0.3307084012307143 -0.7153505763654068
Ni 8.025565409977276 4.556164320085507 0.4657002338995618 -0.467715289606788 -0.5317671257813746 -0.5873397208403562
Ni 2.253510104954885 5.772557820066792 13.630107324948076 1.4987155730975736 -0.23921749500856865 -1.8680995365216149
Ni 4.151016218453036 4.633607471928433 4.855158910338188 0.20744097392792016 0.517752042449205 0.254472107174794
Ni 6.250570603137632 9.34743123427816 9.94761938339449 -0.5713284330137645 -0.3432610410847443 -0.4627795428680675
Ni 8.116557856350758 4.097479754555855 8.895200264735418 -0.7856275675140987 -0.08761316843429427 -0.985765322912386
Ni 2.82974596753811 8.883172474089301 6.7865745529159405 -0.32547646340781367 -0.8130504396117416 -0.4181855583077766
Ni 8.289683594981588 8.14522913138417 12.118624893309217 -0.039848499455505566 0.5523313230859713 -0.3450312456112896
Ni 8.557384526135808 1.0053557930005286 2.628556624844228 0.09956648414142853 1.0571355471252568 0.44511657837066565
Ni 8.716346785181813 5.730523367185935 2.4960341018011225 -1.8497868542553562 0.8038687731124736 1.3209644129246025
Ni 1.084027314951993 4.170242071818511 3.691381527256097 -1.2057972461314392 0.9792635172381263 0.6957400012233308
Ni 6.760083634825187 5.377804335186129 12.55374429500664 -1.814895698805126 1.8549303461295086 -1.409622220573327
Ni 6.989425917590013 0.6235346258459066 7.716563325673659 0.5864254365562029 -1.7533254914018126 1.4906348529719684
P 6.835572561495434 7.742844862495911 6.598304499780282 1.138206286455343 0.24587613797566688 1.3002374647898962
Ni 6.7329664340957605 6.559933753806485 1.2412186737581858 -0.23124219011257593 0.05700109997539215 -0.2508432521729551
P 0.47151451907998226 4.399212121217114 10.005886002792966 2.800228562165784 -0.2761866160337501 0.6778595213984842
Ni 2.639088037358124 2.7529914474227 12.26446871794607 -0.3443185358149812 -0.479442091125413 -1.1163110290441485
P 2.5354675740354886 6.146940833980842 5.1383735976132145 0.9180267819148318 0.3363666279577562 -0.5878323442060586
P 6.488995380038327 7.395327791789088 11.052286107920196 0.6755133897638108 -0.9606710989479197 0.09302071260311078
P 6.8454088281979075 2.7179363701585446 5.139000810835301 -0.2312933550654855 -0.3192219978576696 0.5989639353428459
Ni 8.436557575459464 0.29227856974258254 6.094227005823014 -0.016215947638230137 -1.0482757827417817 -0.6227774928226758
Ni 3.9880059215493455 3.8677280150881814 7.211900494748004 -0.03944766447266109 0.6185356868271864 0.5566865147308735
Ni 0.6827746354970573 4.660529250140591 1.1441820881006395 2.536173439288245 -0.5020361743758451 -0.17813194055115772
Ni 4.37560321996435 6.702145511372405 11.002028089396033 0.8944168558053757 -0.6565854425110562 0.8521726024241839
Ni 4.056524778437048 2.152095124327128 5.31539289725475 0.36053911143890166 -0.05866306105884736 0.5484597559457071
Ni 3.7141259165158047 7.663698743002511 13.43013890769541 0.8351632123503809 -1.3540475686318165 -0.7415647728669293
Ni 3.782821584252463 0.8592048758365428 13.077979156328356 -0.04047790550938835 0.8484900113662741 0.9993808568132917
Ni 5.587092545345632 9.165316059853016 5.688432148716729 -0.963546877833818 1.8339951386387383 0.19489193361831597
Ni 8.682538689694509 0.8096354890398944 9.631335483864117 -1.4623668592652104 0.5011252325258015 0.07862973398876136
Ni 0.8926128204551562 6.817612301575122 3.9565773278556287 0.8513475354197274 0.39383695426008297 0.13008959243095017
Ni 7.2899485258110435 4.701279497907975 4.557778882311505 0.035545501204777494 0.11074641201764797 -0.0784934655212132
Ni 3.0593302019909823 8.921642792488562 1.4470600029464535 -0.16237442060658488 1.649332081837282 2.484273150874528
Ni 7.532067718871513 9.197504940197247 0.7643774952075366 -1.3078687560829088 -0.5624373011717216 -2.2860853201137594
Ni 2.808416995653469 4.786586079612384 2.368495783531758 0.5660347887149929 -0.6739257335617167 1.3392192453697325
Ni 1.7336955148570785 1.4108295988284458 5.6512907034348885 0.12373074009245787 0.46494158351639286 0.7855738314580277
Ni 4.693574267227135 9.12816716990385 7.982153693641389 0.8476549170594886 0.02566243776311064 0.8222097375135066
Ni 7.9638118945206955 3.2725826975007717 2.4770474083734464 -0.24510969212328754 0.7238403590039727 1.0252577245800536
Ni 2.060106953698996 2.2787382213507237 9.699244808614626 -0.9741639912280319 -0.30223163394726016 0.4183189985618473
Ni 5.75529549770815 4.068827091190754 0.960495158286615 0.20492746347744709 0.6667623830440581 0.3611461488952813
Ni 5.697059587562389 3.1427197818593373 11.702628050218147 -1.5222259975146881 0.3155566331909404 0.003373801568239351
Ni 2.5619333663740225 8.631151873487271 4.381604552411298 0.803257879001352 -1.0062968672068349 0.47021260210734506
Ni 3.953304465983103 7.103785313528213 3.213550207951291 -4.161632571162671 -1.070370300647976 -0.23237707504796756
Ni 3.1354891487204344 1.7065597024593413 7.6857005266966025 -0.013714007151982835 0.6019060486903053 -0.08425633614691941
Ni 2.1152719385734082 4.0651419808651355 5.8371905606111145 2.2735761319031558 -0.3975131175600896 -1.0798944380883273
Ni 0.8700145327916908 4.488799386633101 12.109335809655095 0.5088519117460979 -0.4385111572390061 1.134065524814092
P 1.7080393300900822 1.72715351344569 0.2443898165944359 0.23322990996656606 -0.7823815497729751 -0.11453236142264146
Ni 5.56164108893006 6.959675165794551 9.022002491523073 -0.2105700064752051 1.6240092868017775 0.30940372621566714
P 4.201853990445094 5.489055582516359 1.0680966574610171 0.7660653291114549 1.638682572543236 -1.1329110994946747
Ni 8.152636575372028 6.934279544383911 4.786364600759481 -1.933487832119438 0.9661981994137362 0.702958630458957
P 4.406591647702506 1.2835630109164244 10.52205828940227 0.24381308479905103 0.07692972057851913 0.3119961695331917
P 9.489624380175767 9.182736581392305 4.348043992112533 -0.552372717846868 -2.2519402988009345 0.004240263333592698
P 6.909330603012742 2.7706911439866557 13.319666558684006 1.2114233340689653 -0.04925333770917324 0.24497753742079742
Ni 0.5759920497283484 8.940775587512482 1.2996174360016701 1.599805178751748 0.4061682221319263 -1.2406490637033023
Ni 1.1493728823926346 2.7311785721619675 2.0377878410601986 0.2943987681664027 -0.8622292153292376 -0.7895148183836468
Ni 2.8543971222163016 6.250887001498922 7.315671712583961 -1.3828197556685022 -0.30090828715014634 -0.9353968977621633
Ni 1.5233557454379927 1.0373306391591792 3.3605786652761505 1.6296173770171742 0.9530554913841908 -1.747284170303739
Ni 5.092524683311975 6.08083218813944 7.068822364022199 0.3079248276772955 -0.9548673477819489 -0.16899346858499928
Ni 4.1333072160549245 3.3691679502017715 9.897865741081562 0.3897288456289804 -2.9785271102017927 0.2503424012771366
Ni 6.5838590534205395 2.334312662927983 9.627930479146581 0.06253848485385359 0.45428461802317893 -0.26874121549929847
Ni 5.548864178634417 2.1833161979191744 7.426007265833278 -0.14165210045756896 1.2823353876984946 -1.155437305621649
Ni 0.5117026944643678 6.067143306096549 6.3637546722219795 1.244508289548392 1.0654162990768101 -0.9364132548418195
Ni 1.8137536060977277 6.874666370783121 1.8737753058179492 -0.2898733694922233 1.167330457514809 0.5220411567428622
Ni 6.165617643131135 1.744695010829001 1.5067429703034108 0.42219930745285994 -0.59546106439591 -0.7756388317325029
Ni 8.742626460837235 1.9320400640495927 0.5877695134356792 0.4283468151114946 0.6163569340083126 -2.189640155210132
Ni 1.8651497281391212 6.173294956309508 10.850028455465251 0.1598819932020343 0.869758176716431 -0.38163938375262657
Ni 0.376956077058073 6.2433306641645725 8.61108663388096 0.31385096335374335 -0.2551948442734315 1.072575535829411
Ni 5.6985392151931284 9.09733694134634 12.215177575590673 -0.36897747201424197 -1.754488144251346 1.996849327095219
Ni 1.3656218565005283 4.092640720794941 7.911343740384578 -0.3497643894209008 -0.764544264481238 1.8615103133398714
Ni 3.082873962404657 7.6247259095588475 9.166143348509449 -0.7142172340919118 0.8534805226023302 -0.21563353704104155
Ni 0.3081654898130273 1.9978695348663256 11.501202339336713 0.7023963301975839 -0.17820393143967375 0.6146232391466575
Ni 9.015157119918213 2.158758101582539 4.635413734338035 -1.1506506828662828 -0.6829135388826238 -1.091544620732746
Ni 8.55029348050924 2.435634585214184 7.235163218970181 -0.5653639879002134 -0.19338269606264116 0.014512077573245973
Ni 3.8929002964790866 5.273914002672982 9.212397066596457 -1.0254359020291306 2.282959630000584 -0.8308504439076401
Ni 1.2141973231205627 9.059099268800969 10.528936231426675 0.22841706195895498 -0.2500670361285629 -0.1371660396617573
Ni 7.69510593327767 7.738052357905777 8.865345287597414 1.2346013148473254 0.927208705524416 -0.7396937810964616
Ni 3.5920240665601426 8.721074148932859 11.335445890773704 -1.8134607661308122 1.2131135772871946 -1.4031011316253579
Ni 6.614847481158696 1.0365303374217973 3.86388005266484 -0.4825243295951625 -0.4058828296810236 -0.011852528463211845
P 6.197052750908761 4.324951564655405 7.8056657571301375 -1.2135856318276066 -0.8833356582905496 0.9286613788105426
Ni 0.12014390244932313 6.761172417421392 0.15873147435894497 -1.0259303251670462 0.6518260734492 -0.32929660848485226
P 1.4578333671483945 7.887075986073596 12.287976185606537 -0.09368585699093543 -0.9488280835664046 0.6460143518634294
Ni 3.632858066834927 2.9596181890137006 0.9233341707530472 -0.5884221552712576 -0.18461960515803044 0.4469096657153465
P 3.7827471375792188 1.0963389335398555 3.5079197986286377 0.10599835580970132 -0.29213465472257427 -0.3940714388683923
P 5.30538633378723 9.11462718120745 1.0339442461099555 -0.24349169690389033 -1.009294773492894 -0.7012048809926439
P 1.0954921026316957 7.8912077764386845 7.54278524806852 0.3623584240358276 0.9656153303270725 0.5402286262851663
Ni 0.8214436619999386 0.8086444177023228 7.825769150656487 0.8377679969630797 -0.76456406197558 0.46727974473126616
