# total energy = -340891.2156498113 ev
CRYSTAL
PRIMVEC
9.05219507218670 0.00000000000000 0.00000000000000
0.00000000000000 9.05219507218670 0.00000000000000
0.00000000000000 0.00000000000000 13.24880249804772
PRIMCOORD
 96 1
Ni 6.398806751728683 1.8341558088941188 11.373395410295057 -0.34055418367654255 0.15202727304430594 0.7678604733386647
Ni 4.643088214989671 0.23621613077441092 6.150465205368379 -0.45275609719379445 0.004464720639572956 -0.6985412181175518
Ni 2.7971645522234643 1.5343108922333313 4.836290124203016 -0.34069687990199393 -0.08964176882854884 0.32537773304642026
Ni 3.1920122584131425 4.528161543635807 4.8736648281007655 0.30752887779045746 0.34365519119936944 -0.405267821804844
Ni 5.049377896021133 4.372952603258261 2.844994541676799 0.6345035230103524 1.5832634723429828 -1.1245141336802311
Ni 7.362331470189344 6.130255274172362 2.4760424505424137 -0.4306484666614777 0.48287939894173604 -0.6536970652196678
Ni 4.902678019212633 4.625182972713525 11.43912249504878 0.26994372044783194 0.2643801103171253 0.3092702859615964
Ni 5.891023857148111 8.041789248373098 12.575287061130133 -1.105280996482232 0.6366059140653358 -0.39204078159160866
Ni 2.1086183699723424 6.57562328225444 0.22418847889760893 -1.7048964493661474 0.5321250233414254 2.434460341117459
Ni 2.3497416958114137 1.3079607491013727 0.31739621810124174 1.2774538912364775 0.8593796616955844 0.06483165176340448
Ni 0.44807914057030124 -0.011681858016868326 4.7284449852215635 -0.12891177007276508 -0.6693669105464407 0.8397156076077539
Ni 8.59295931496053 2.535909144067837 1.3796640931830586 0.12256937279450503 -0.15543501317427422 0.6808633412218145
Ni 6.9614640541343284 0.6547081710516984 4.967346902337397 -1.3227623853652897 1.4202480757182896 -1.1351387032736129
Ni 0.7585468083994693 7.283939459010669 2.4093476861125938 0.15674653289684617 0.6957302310313179 0.002624582107040641
Ni 7.812967855928002 4.039297737203436 3.476141658837521 0.6649754663469645 -0.09116463323097848 0.4310315610325092
Ni 7.712868680452969 3.752044424185783 12.620796067712082 -0.6911793784358419 0.12408529521839921 -0.6402234562132652
Ni 7.885131956749756 -0.06821281757931907 6.973030044051533 0.05801180062809364 0.19663899821640973 0.6233449352903717
Ni 6.87603848721826 0.9170416956659144 0.6005823797767967 -0.6917470780138538 -0.41989739879256077 0.0818353854102526
Ni 1.805053001048918 6.3110185618429115 9.185500629664576 -0.8652026961352647 1.4594890234967832 1.0992224489929778
Ni 0.2584591850317134 5.082011060027959 1.3378637710098753 -0.3118521877561597 -0.662965120785155 -0.632159448258208
Ni 6.188696246940206 2.0817152455816936 6.889761615272171 0.7353522162983142 -0.7741493916711699 1.139766174743295
Ni 3.4117633511814454 4.339495689480387 0.15139525050346198 -0.23742132234009433 -0.10425849030045917 0.24435173091134044
Ni 6.260362477021218 5.491686262096467 4.689758618226841 -0.4884988020110425 0.6822486516051154 0.9674017328035339
Ni 4.9568101470242345 3.084617013537415 9.051237563959814 1.6495267143465913 -1.1027867693054685 0.478692100333266
P 0.2519343626694052 5.612632643315667 12.33417188226682 -0.03033336087621873 0.24483406986439768 1.303836237884748
P 4.17405776842941 6.324832211849684 12.641769098970727 0.24442680712365003 0.10184910952801814 -0.14341227768178527
P 2.4143381613738875 8.539623780334114 1.4619793257987814 -0.41375760444341003 -0.9389815297896281 -0.44780672360831913
P 6.384712483668037 7.846687283369175 5.767760113935639 -0.009401238709241873 -2.100637305517163 1.0687181097565337
P 4.64802166142066 0.9680055551273393 12.71377659681403 0.5619516197845548 -0.11085414124010586 -0.0483033150910781
P 4.1111540633854595 6.015084193545771 8.265689867460607 0.1141865480474485 0.21780560499169585 -1.3644453669263727
P 4.716999389501666 1.279346759801628 3.8000482157886135 -0.442897973452792 -1.6813227758112657 0.8140755384421465
P 0.6849769016497647 5.4177207744127545 3.5160736079036283 -0.9971789640659665 -0.01656150390310696 0.5084181666427889
Ni 1.2684207600911588 0.9081886486759903 2.7663635525425683 0.3337096499508833 0.3529736403868179 -1.1646338845192523
Ni 1.8914652572511845 6.766778490113571 4.787057044480317 -0.5152357037852545 -0.8839228982525874 0.18486231729645583
Ni 6.046875503390979 5.6229883547231045 9.388061603584346 -0.7173506375145711 1.2034120337287144 -1.4836954455396576
Ni 8.430046956394408 2.543811710552708 10.311119388237483 1.1079068641408532 -0.8760483806005172 0.3032053107144391
Ni 2.2403368635821455 5.342343144264391 7.161057718439275 0.48641980799482676 -0.23254548230503178 -1.717999562407009
Ni 0.5800311808184889 9.114745955648885 9.184030553150093 -0.5857572068445847 0.2631580649845662 -0.8151816270221316
Ni 1.3707105668254573 1.057812384561939 11.245372022801089 -0.2891945982576439 0.2856493041085468 1.3083253840043534
Ni 4.043850991432406 6.684484982766535 1.6856581661017762 0.7291180624631443 0.8752233135960604 -0.3359408532742472
Ni 5.665081062804033 7.939961103598398 8.03835303504245 -0.04899597028272852 -0.47648146583519224 0.2556509579742436
Ni 5.080924796593613 3.116589367288348 4.90110293723283 0.22741278906415674 -0.474195498014493 0.5550993727494117
Ni 0.6431077827924061 7.5861741552270185 7.03673034228067 0.2560250534842107 -0.8356455513034383 -0.13262727125113932
Ni 5.134821567327773 4.510627441366397 7.007782326974864 -0.37255464784253906 0.4168290442798821 0.24974719089529893
Ni 8.096799439127464 7.351586514384599 9.131564934490685 -0.42820668998920447 -0.6179867563022519 0.14884733265442754
Ni 4.70390991511779 0.257336712816222 10.496456750186159 -0.6937029161886441 -0.1060988859433076 -0.2849327376574964
Ni 8.178920954764063 7.088547823757586 4.545783452199494 0.069937348421086 -0.5024789183402184 0.7656930333737006
Ni 7.2490432461822865 5.946966424016957 7.150484754344968 -0.1809871506117657 0.5885234567358123 -1.0960602492149123
Ni 2.597111036397978 4.828649166161917 2.325668287667238 -0.6713672288059213 2.3001456548615673 1.1781607153610936
Ni 2.4364707788486983 5.456165447793335 11.575439503863983 -0.4529607570054328 -1.7042127930355617 -1.9293568406702
Ni 1.098882194575524 3.1959409111673622 3.6471439643309385 0.1824861037547954 0.5970438355019976 0.047405485867157066
Ni 3.4666649155923768 2.764133091624043 2.7659525828765736 -0.2847923554248902 -1.8275910348846074 -0.18054749197118583
Ni 1.1868333239764481 3.3393729454775354 8.11995314423056 -0.9526811387639077 0.5978714736096156 0.8852801836114301
Ni 3.6889415708455355 2.5232994360341308 7.056087556680726 -0.3885808480674663 0.361987413849654 -0.11358388146644309
Ni 4.120106684523533 6.82944683808008 5.941001932542866 0.8474492288065857 -0.24448619960667575 -0.3209538929471118
Ni 1.087829464131048 7.4213879922366495 11.28260098635473 -1.2202640722890468 0.3795015114740174 0.04250933411712034
P 9.183090030059853 5.601697591409912 8.02709210410639 -0.09509276464079106 -0.4867267977122843 0.1888308150259006
P 8.602744738064933 1.7371524842069734 8.071885987260726 0.3369926915775293 0.4176633672557194 -0.2157780330387058
P 1.9154535747596706 3.1172682819348148 10.609562119848434 -1.0915001406480558 0.6338846584794309 0.21962157515451206
P 4.157030589096029 6.141489048522562 3.7958751537616653 -0.2424246890919567 0.27362065507878686 0.26858412109614394
P 6.614221842954887 3.875950873263577 10.395501237037049 1.0925524931719701 -1.1217900498808486 1.3484294511140906
P 6.165631253350914 7.76769782730161 10.421931836833759 2.0159091719401476 -1.2012433082121698 -1.3635213124502066
P 2.251498220370056 8.62843486828723 5.783871211106055 1.3526319192312122 0.08936280413554933 0.5745618523493976
P 6.6560972983489455 3.991538354873334 1.313534185739099 1.0965073640546599 -0.12683920381445252 0.9055805857316791
Ni 4.9237696342295285 2.7530532045937086 0.7062577075481418 0.71891206846442 -0.4229400422736264 -0.15327168697436827
Ni 1.6436523590955956 1.2211773528923708 7.193808560984823 -0.11258603632954803 -1.4296593417298604 -0.39218244937579555
Ni 7.0510083699056265 0.76733649002239 9.183447591773662 -1.482400637987634 -0.16000180660935026 -0.06975762831011212
Ni 2.822211976580438 1.5981017124153314 9.381516866392408 0.7168618708036105 -0.3836327600335716 -1.3581451357399579
Ni 6.28972779852972 2.3461841830639294 2.8744739208459067 1.0919567685695 -1.5071331077373078 -1.0480029886963693
Ni 4.0409180801596705 6.781805134288698 10.30809867067047 0.01308588664968069 1.249284885001429 0.15828842346266933
Ni 8.05862633160547 7.262196085933166 0.23666059356296437 0.4918952292871013 -0.3388770530844357 0.09245944078300206
Ni 7.5244472355702765 3.825484884542895 8.444574824609264 0.6141930935877745 -0.28913520577461815 -1.3132883844365835
Ni 3.0935153215037703 8.336130430299864 12.35729118902783 1.1798206195620198 0.5570729515360148 -0.5799429141556528
Ni 0.25079288084381274 4.778427586713962 10.33744498256887 0.34682201896312526 -0.12565341103646746 -0.6739560725790199
Ni 9.122802409453623 2.1305608913461422 5.639273254043016 -1.1869397471053043 1.008894709840998 1.4377981687869108
Ni 3.915137826657628 2.491689170094647 11.42791406684538 -0.8521661746662808 0.2682748173858412 0.20114717049940842
Ni 1.0468682804608975 3.360401195127427 12.700248996178301 0.03229845502238954 0.17838545132286052 -1.659537304505058
Ni 3.002558863267821 7.886245376769962 7.839740628706529 0.3493686966443789 1.2686517195638152 0.21865458325555243
Ni 5.702493785921984 7.759252129099567 3.607437414927458 -0.48930458574178953 0.2604758901667127 0.9274799569079316
Ni 3.2109947119283477 8.316206548474891 3.493073790120398 0.31341053338221503 0.5020593143042966 0.4705645861301251
Ni 3.1610628027295524 4.405277992625356 9.41781888514874 0.03271008863851141 -0.19029171584214327 0.11961646081376817
Ni 7.3366051311859035 5.9747385591550835 11.342909427010122 0.1844134026844953 0.604728605740765 0.20420189816533219
Ni 0.27380627691997267 9.101620272483865 0.5523821555362551 1.062256927512222 -0.34146769662974735 0.6423142773040228
Ni 4.63103974306371 0.470235293752856 1.6904675974573453 -0.5575087535218527 -0.5584402641971866 0.24884087703094565
Ni 6.22732196422651 5.797605201794309 0.22538879999256187 -1.6276188585299063 -0.5987677601716398 0.5763986484478202
Ni 8.15791986170003 8.857636452934347 11.17226468323051 -0.9259056704422765 -1.3139545572656728 -0.032866668821033715
Ni 9.182184810531233 4.81062624534705 5.717733156686338 -0.7249803861456869 0.005887054908396313 -0.06275137219560806
Ni 7.878677741510681 8.845669450765962 2.822259953215455 -0.13060329884257507 -0.010272585570601664 -1.2498165891351831
P 8.357104366778039 1.7613580544023288 3.712844797718331 0.14155954074376265 0.21197460013221558 -1.8997439028997734
P 1.768654123803023 3.1435287004601418 1.4071284536814535 -0.05590786691121339 -1.0049789197263594 0.579025544547706
P 4.737710812316539 0.9127509551002457 8.321665927452012 0.4041650756589685 0.8579244173062968 -0.569855962233296
P 8.497585385424903 1.3842526509736441 12.442400834328408 -0.30321533801676814 2.8430626266121743 0.11857773513660869
P 6.130173804414786 7.838277793948276 1.5346883687767667 1.9125037736686028 -0.1855940532561578 -0.7202382434750112
P 1.8649694816484155 3.3448133148445547 5.969977104434531 -0.16467195839150994 -0.7049388941137794 0.8181548507178426
P 6.944056682598926 3.787393246778476 5.948143209404166 1.1871402931518844 1.5780459326977856 -0.5372996255638295
P 2.444210405818417 8.55879632995033 9.974109778609584 1.1258256534028028 -0.8312273676310845 0.7314037731735274
