# total energy = -381164.9356683488 ev
CRYSTAL
PRIMVEC
9.28595266485179 0.00000000000000 0.00000000000000
0.00000000000000 9.28595266485179 0.00000000000000
0.00000000000000 0.00000000000000 13.59093036348797
PRIMCOORD
 96 1
Ni 4.922121235613771 3.7977688283826208 4.671026295885387 -0.43882508893499905 -0.7999889784420932 -0.8827548460864153
Ni 0.7262357683264413 7.928049041690481 9.375309301834761 0.8848065864091214 -0.3862000065401155 -0.4053259287362891
Ni 4.34820294513945 5.687924447281546 11.560445271687403 0.7395783385645198 -1.2370256080181017 -0.37427214475427795
Ni 5.5010075106428005 0.06982664795810542 2.067587883716774 -0.8428587812224257 -1.9447803743141214 -0.6100667301242267
Ni 6.8853387283004475 1.8513496236575662 0.9809568724821409 0.4428684057664373 0.2972457506968945 -0.2217702460663987
Ni 6.23638065616893 7.040144841406141 6.376823258042432 1.8991908586097808 1.6434797368215632 0.9005923884884683
Ni 5.842229118955549 5.07293438917082 2.145178516508883 -2.0335202001536916 -3.0650930683184954 -0.01729195431122828
Ni 2.747063309942859 3.2004685096676337 10.38669159748233 -1.0057013997146809 -0.14105329053130547 0.28293061962580307
Ni 1.9106404299787139 3.886078236074729 8.239596460390095 -1.3100413382541953 0.6595846343486963 0.09218510407569286
Ni 2.083043422955759 0.7651661953304789 0.7876911301610519 -2.088981466445789 -1.9732825955188724 -1.353726952067604
Ni 2.017521742548238 8.29829853732663 6.579314594111377 -1.185543638088726 0.9186991253915082 0.43377595654686585
Ni 3.140546258580654 0.41331402866589834 2.832621289927379 -0.3330861574342715 -0.09027117488243162 0.6250698884012783
Ni 7.5107011952852085 0.44531899234114775 2.9292936263857885 1.5754349774374998 1.3893058776134783 -0.03863236766021734
Ni 3.8834131677248203 7.243145047668728 7.267274595080709 2.2353037186855182 0.19886557355408332 0.6264677971900695
Ni 8.715794958970921 1.1312240120357944 13.049141308803682 -2.3202817634898105 1.2211197354211227 0.9470972169182271
Ni 7.325613591276889 6.552883059089839 10.967866859787499 -0.8385123313282721 -1.2870001401640156 0.5079880210839057
Ni 4.782089072838061 2.4923124907393563 11.25331703775337 2.1897581688452354 2.8258107815102624 -0.767693094522865
Ni 3.1606132018007007 8.531895956874756 11.58363136633161 -1.1176348900618944 -1.8802878510576908 -0.8068623085231588
Ni 0.7307088116161667 0.8786934640603861 7.62043422384866 -2.532904538728986 -1.5175201073985864 0.6754352282277076
Ni 6.659272216180113 3.9280785989550036 6.35028029159163 -0.2053990037972269 0.9411883076329597 0.04024830599708552
Ni 6.928555550950193 1.4325995984340485 11.280064295157823 2.0688656695325207 0.7896006932292337 -1.0035987515493812
Ni 0.9864374416114661 9.243989219637045 12.244830180967833 1.6028079701338138 -1.8754292374138088 -2.1096464509943087
Ni 1.313024388880811 2.3111064148504163 12.246678085503136 -1.7641279813339554 0.3695122614717894 -0.7122714232194508
Ni 4.062437044790664 6.068834216317329 0.1509422282959476 0.05580348012286518 0.27433645019888886 2.134698251756614
P 6.293628552953562 7.142002453706325 8.62279243091629 -1.447262142413288 1.5494136136730734 0.5662016533101604
Ni 6.432277108815906 8.530920931868692 10.213950595836515 1.0437251872566218 1.4540627102748893 -0.9283944983024012
P 0.23530046322538653 5.556361073129937 8.08445605299661 0.08893240146635005 -0.7800603578389662 2.204819691164048
Ni 7.226801771376603 0.010172760896604138 7.857338371060211 -0.4536158740909285 -0.17284446689997326 -0.18020682080231545
P 9.2793872703334 1.268349671698189 1.5244265249099398 -0.4222754121064341 0.23872564297381466 0.8382747613961692
P 8.17457250703329 1.6968685188872272 8.877473605476503 0.8068083153567718 1.2680793920001128 0.39751903109736053
P 3.020070311640862 8.978503839414397 8.80784660549583 -2.1541543035986965 -1.3065690634348788 0.25453664186414227
Ni 0.8983193245395944 0.9796215525214548 9.966201384771797 -0.17286040773957329 0.057066920216321065 0.8456165464732212
Ni 4.718480298632914 0.24939746762258846 7.700593351085316 0.035906741198938164 -1.2581508200324911 -0.17687132867117927
Ni 8.95750830095048 6.105030858923413 13.331519693702829 -0.804629305427582 -1.2776744918877156 -0.5320818288083159
Ni 1.843800144324897 6.731823362583734 4.586857494385698 0.6185819666840894 0.32969332970263865 0.2959455438282323
Ni 0.5251828262902523 8.987176918992152 3.1284550199102124 1.4261032489474859 0.8975978246365186 -0.7764672411710691
Ni 3.15501377248016 2.431443072503628 6.1040131185361295 -0.9320860882213754 -0.44763754502030656 0.3474025740569437
Ni 5.537232011106199 0.6074442931590309 12.698549245885037 0.11819335521399643 -0.2628940126899021 0.7365176973613251
Ni 3.64135624550503 8.577127831203702 0.2536866490540275 1.422514246044647 -0.8493770419569178 0.5182387522776364
Ni 4.516000105706896 0.5350918661375971 10.114369899074301 -1.367107230029252 -0.18928924271955788 0.9854573047536641
Ni 2.078233299592508 6.028765331544307 7.405453281749653 0.16696126864631894 0.2853217455657989 -1.0498510976487017
Ni 5.049515217120401 1.0460625422204073 4.195343167664909 0.3584722016075439 0.9727838230510535 -0.01777249349207262
Ni 4.208077922839353 3.080911872019274 8.522586789554953 1.1864705207783695 2.1593828989874875 -0.12398373664352841
Ni 8.753932365636693 3.375926580997013 7.285390559693384 0.30368559278496726 0.21183113257581584 0.9400462236087166
Ni 2.3353056069056883 7.373074094191124 1.9571073359820066 0.42876564781646803 0.09059333410854076 0.32203941270180664
Ni 4.19631262109951 7.412251527530031 9.909527359847875 0.9771513559911301 -0.020782226852673884 -1.853189452179002
Ni 0.33413456941152664 8.09683051321643 0.48926847663830686 0.7801927696517725 1.179097625353066 2.149183846967299
Ni 6.9774275186351105 3.1555059279594113 3.2309041473807416 -0.9636162976191727 0.6317187611763636 -1.4487078737208792
Ni 5.908502961510605 1.784602197528136 9.044329170466664 2.727994190180405 0.7308617846271284 -0.3665632061457945
Ni 7.456229798279749 5.666158174765215 7.910736311963755 1.1262948797297379 -0.8821161840611518 -0.5237203442174979
Ni 4.674204877405157 6.271323695195787 5.129665058404617 -1.7601201457261426 -0.322713813061012 -2.2017158554277434
Ni 8.7846410103515 7.323004238641612 4.2995176250985505 -0.27467480737491407 -1.26026349550012 -0.7763145176432888
Ni 6.790287719137837 5.5682935220136764 4.281061794626619 0.0969835539056007 0.05605467690172282 0.5184768364303716
Ni 3.7336307548884675 8.420668818563918 4.937462557637761 0.5607105482886021 -0.0371095032577877 -0.20531055784847868
Ni 0.1641561386162285 2.7478526159001495 3.3789630874444705 -0.8434416503090894 -1.5915725064293105 -0.8902655526411636
Ni 7.584700950269269 8.199895299333646 13.025669206824363 -0.6906828984153975 0.13037832731596255 -0.853926351890497
P 8.532703834736925 4.450701288157904 4.363952849070742 0.31075201271344544 -0.848929412896538 0.4424763125343412
Ni 0.12336016376725455 5.694322468511815 10.38079316049326 0.7285207951987775 0.05997663766394831 -0.779034230567297
P 6.153559246368098 0.17133696563708106 5.893366859035512 0.42076051812380444 -0.8298140322233256 -0.9387953819207508
Ni 2.484428717118893 2.9491163490566974 3.973362474617605 1.3939333490831607 -1.4306283905113488 -1.0267507641858122
P 8.550737154372895 8.337865980667962 10.95361013700835 0.8296427967527841 0.908541468132216 0.4728387268762825
P 0.8794846272081639 4.616084101091286 12.086509334864088 0.9749764598269982 -0.3377545094442183 0.8686430892753814
P 0.24836301252091642 6.715637947483066 2.209817102839482 0.42012622697391516 -0.5170498741758579 0.2532433769740155
Ni 7.251762411531849 1.9746206422814092 4.959112755748607 0.38463497604584085 -0.7488286535181942 2.251387511621258
Ni 9.070202619746635 5.823712929792766 6.023594913226434 -0.14289420039478615 -0.8225013006119963 -0.6705215929761743
Ni 4.4456590159836855 1.650828766696115 0.7624686261470344 -0.9800767571680412 1.703107475786525 1.1187900867122602
Ni 2.9976633084062607 5.530638984874717 9.722639209661692 -1.2842169209919239 -0.9057819031092077 -0.6253624799410327
Ni 5.3199128661831265 7.7904033686915195 12.02297206249272 -0.16189362431542442 -1.4922605615008493 1.5013090448563629
Ni 7.275590165489572 6.847489186160276 2.074764067761407 1.4152506225036983 2.160695447151324 -0.004720802514437032
Ni 1.2336666393396163 4.7626535743838465 3.450343275245572 -1.2512319814254709 1.8893849282629527 -1.5844245825306198
Ni 6.4609242720893185 6.012412769299742 0.07123346975256961 0.15606159101467962 0.029809370051948662 -1.9450601103380696
Ni 8.127557729836113 3.7628257893557637 12.393555852416661 -0.9184674689966763 -0.1150841201610534 0.4209618355013331
Ni 1.7557600292535105 4.252622636687834 5.716209458409849 -0.19046603663647843 0.9432536748024206 0.800066625757564
Ni 0.017086152487221923 3.1919997210435325 10.354045903088808 0.262048119749839 -0.013510632891925119 -0.7758236940497993
Ni 2.2733497322346317 2.6794894340463844 1.5455195658744643 1.5403592167802893 2.712835994382728 2.0637993107532067
Ni 6.542092782356061 7.942730132496078 4.010534142229751 -2.1940642524197567 0.7983694405607992 1.2577798098463178
Ni 2.524163307604123 1.7831628749001365 8.297941956752982 0.8481190011801006 -1.985436200162271 0.6634880831681605
Ni 0.429245008669745 1.867869333046027 5.740618512990236 1.3770378588794028 2.4249115210867593 -1.8467020446824456
Ni 5.217869534834168 3.885827515358884 13.264598620262795 2.0654368463566297 -0.002491398963286032 0.4335340157393889
Ni 0.43614354273646083 3.452907126713899 0.5980209086242305 -1.956087571796825 -1.2733077302785878 -0.05805936603657743
Ni 5.139793246729516 5.261290648437566 8.290345119062875 -0.647181375588337 0.07357520228398942 0.13052693707868487
Ni 3.45599006292355 5.209242885018609 2.890124550404076 0.6749135513962827 0.2598220586327977 -0.3084202792564753
Ni 8.616305264542609 0.09241101288428609 5.2777249270635895 -1.3638745820245672 -1.1121921217797683 -0.16297065942968708
Ni 3.2841163692355115 1.2714140360029627 12.1687884450425 -0.7245679811986167 -0.12459385942370156 1.157103123359846
Ni 8.94364437395949 8.018967802017867 7.126934138684034 0.4536644679406768 -1.7367691297050283 0.08032640496489392
Ni 3.1176285279619234 3.4675603596621793 12.825502144650825 -0.7391098835685335 1.9268579855077463 0.5912197726210529
Ni 2.0761532462462378 6.855252242399035 12.8184763930357 -0.5244623645898452 0.19612452047383644 -1.1905490617231174
Ni 5.251317535518393 2.058352075421235 6.588121391404247 1.8529151154716927 1.1272706133794457 -0.7845014243294555
P 6.373404170354499 4.608664625092759 11.387595624398058 -0.9710478141965535 -0.5909508352303823 0.48810182368294003
Ni 1.7199162528400993 5.2453745259576205 0.768642855923531 0.7772755960049775 0.015608910181850537 1.1801900870862965
P 2.155771002455716 0.6231709822092261 5.1196761593663 0.1837297463539094 0.6749657447904569 -1.1887366911047268
Ni 7.939377903665704 4.693807523003268 1.6797433653997624 2.3915985087569265 -0.5718902190545054 -0.6645316939413266
P 4.054998996887258 4.7798047285381395 6.4284011522679885 -1.0001635006155871 -0.8867865929536276 1.0814805516285246
P 5.012129972602163 6.9075878703435905 2.140693401480987 -1.5206733083155877 2.7402385547653973 -0.20122173249108571
P 4.4983753679782295 3.2460718220941263 2.46085539825799 -0.20882319898742746 -0.5622292989259736 -0.08859712961411839
Ni 7.122761960253323 3.9217827232015603 9.406554674600525 -0.3473758345840663 -0.6509832658329305 0.6100078518618334
