# total energy = -340867.58861432766 ev
CRYSTAL
PRIMVEC
9.32855509464667 0.00000000000000 0.00000000000000

0.00000000000000 9.32855509464667 0.00000000000000

0.00000000000000 0.00000000000000 13.65328332581427

PRIMCOORD
 96 1
Ni 4.816220956455337 5.996367109339402 8.075165606474526 0.5439302435064697 -0.3509735792376536 -0.4428082419524632
Ni 7.547463248148855 -0.014999383436927716 1.668745074745457 0.013183845680125681 -1.3659543473717315 -0.9990838943981631
Ni 7.869736834563148 6.393558320221614 13.035321500886251 1.2181873922656763 -0.3065297471019817 0.182941189014343
Ni 7.802617881998502 4.271563949583976 1.1464905924861875 0.3695271738701249 1.1045261205940784 -0.8045069209171049
Ni 3.984561629277665 6.749414704305501 3.786314911790126 1.1380643615608401 -0.9246067491251946 -0.5617888689544454
Ni 0.2336803004509231 2.7378655656783546 4.261148618028948 0.9686474322851769 1.3182611550608263 0.006686925101872355
Ni 0.07267410701249168 3.921379326884287 11.764310558918664 -1.0279183021313523 -0.8873573778554331 1.1856706505848937
Ni 7.656961825661548 1.6981048356080994 3.1930113567833773 -2.7469614753115272 -1.0482618987847108 4.451726541306133
Ni 2.7940980946651073 4.238186380122364 8.093803126325659 1.1698074583003917 0.0381068341740505 0.28427942034421366
Ni 8.06280060694368 2.990818660569661 9.674074320610572 0.7156837913351094 0.24111342647970088 1.2683969232405317
Ni 0.2775571584617382 0.5864759856694228 3.2479388209384696 0.9240753021017569 -0.941654962856733 -1.5393078926976393
Ni 5.0876445900649205 8.777974268982403 2.7232020102181225 -0.2662428745574769 -0.5527869225661511 0.20679331304159224
Ni 4.538677790825962 2.3955822289859285 3.7571379906036855 2.4186670828389447 -0.830048516831635 -1.2504164275027112
Ni 6.776234299666634 2.338734015375233 8.049347897910534 0.07079146889126518 -0.5244932178277806 -0.15111453142204945
Ni 2.1550920834520046 2.635148847583939 13.377582449046898 -1.376996721228822 0.9899305100336694 0.9175418718586134
Ni 7.219219386593301 6.623525855819065 2.0753945074491136 -0.44690092396459813 0.9256616727522703 -0.25139681068357994
Ni 5.735494071331017 5.568428981479696 0.011268894329130346 -0.49290978659454465 0.7491068468802453 1.0015004742594558
Ni 8.790707746432124 1.7202041821856737 6.342209289729315 -0.6575830305376352 0.20051879288679014 0.9326550733509681
Ni 0.586244637507699 6.588357203815074 7.021255324319482 -0.25650816376821634 0.21817867206039845 1.3551575138665435
Ni 7.336068865373671 0.5104240089246646 9.799685178160741 0.47936881468531634 0.459341463720796 -0.019991612630578474
Ni 8.52143900900634 9.21360845464139 12.716244810239006 -0.1978196487880722 0.34455559152645177 0.06681062986664622
Ni 8.216777734258768 5.292331741861094 9.828329438861925 -0.08074240945638998 1.1406892007781968 0.5300863956448418
Ni 8.921400800696293 2.1409686513209585 13.655877496201876 0.31751529957920804 0.05572994657245241 -1.4168776165841597
Ni 5.115994068431003 0.9237274998443546 9.166226858551557 -0.3309310587644817 0.14391210013633926 -0.8608372200777175
P 8.970179814311377 2.6104188485222464 2.0276490977178594 2.251913045107425 1.4612232325790706 -0.2473794619940707
P 9.04009733334849 1.71335702288304 11.077549809419398 0.4790811082415685 -0.7358916337415519 1.2292822166272572
P 6.163310927976916 5.839311558904602 9.81002028414356 -0.44307846489471436 1.670574793266142 0.6929421267632194
P 6.021880707013386 0.47592328145210183 4.328390707518383 -0.8897137939027515 0.25743273246501475 -0.015401165046418638
P 4.589387815307048 2.629822242731345 0.9177273733273873 -0.1969308184252157 -0.30058587081372107 1.2594016617204569
P 0.6568701938623455 6.64940326713447 9.513184734108492 -0.4954060706538371 0.21598860638761508 -0.1084884692214067
P 2.823287142972929 4.102185378115417 11.962828737354032 -0.3200601774882488 0.5615746960611103 -1.004098316893619
P 2.763854919652657 8.263383194580237 11.201699815270942 0.040570208112878516 0.13040815211263346 0.7211399293536741
Ni 1.2563044751547772 8.053397423596193 12.953580038502968 0.7536841818382827 1.6712851890696054 1.3019032825280932
Ni 8.72053835641249 5.18258129336588 5.306594169460273 -0.23065854969496408 0.10256593308938466 -0.47322850611553346
Ni 7.961585786189487 4.329662189552373 7.5368035084552325 0.09620219565488593 0.6001942082055212 -0.7003263350424326
Ni 4.595134205130512 0.30548871756793194 11.445082745681905 0.010004419510879546 0.6871424893623069 -0.355119225974911
Ni 4.427033645684379 7.606559643492432 12.56398320417154 0.35393754696198404 -0.4249020510960037 0.6055297614858216
Ni 3.8149591724913083 8.657831810319431 5.0693550253118635 1.4620984360951723 0.5005179379591057 1.6170397974624797
Ni 1.6147821831678741 6.781803446946843 4.84694268633458 -1.5204712196071104 1.1371889009344223 -1.6768917366231058
Ni 1.8422589946048304 1.8923440059070664 6.5743970213949225 0.7776715458918155 0.5766303048426521 0.5590532151908372
Ni 2.583076854086252 8.98935932320268 3.2631350368839613 -0.8698203974129343 -0.43987692723828115 -1.2193230485320163
Ni 5.4860485130852 4.074955326338321 6.720951417569538 0.2952714005793431 -0.21608605119742783 -0.42079805622995914
Ni 1.5263194969732192 3.820668248095139 1.7542832589763848 -1.4234156748129938 0.0776966806515307 0.05460894559413176
Ni 6.8107592813819595 2.2349351849114636 1.2566589602412896 -2.126055231369635 0.27222480317252473 -1.1145148563756742
Ni 1.9384550528184004 1.4310003229210224 11.424030062965032 -0.9177491027734129 -1.151830819217313 1.277839042490038
Ni 7.025138801727775 4.050673097912224 3.4242298515940206 -0.48935523647406687 -0.388064313442364 0.3537611692851198
Ni 3.0970615724193844 0.4173334266400414 13.503970375220923 -1.363581990484813 0.25474233011704517 -0.8517403999827718
Ni 3.432273864491379 2.5381412050933543 10.077733951466143 0.38939948731401974 1.841802293387983 0.3173486920943567
Ni 1.1393337251606006 0.029663871752650315 5.353930055631056 -0.18433395559681157 0.09469964296743046 -0.4614096591037344
Ni 2.393539275461028 5.944127201853368 2.2417189100407215 -1.3572768742023913 1.0089222206448236 -0.4695425726235139
Ni 8.89751037157634 5.238403365936671 2.7928471354519155 3.174657287102584 0.5084973566201565 1.273249880457459
Ni 5.639279356007631 8.170256230931471 7.5605194935984015 0.1410761733494409 0.983531805596177 -0.24062131733463074
Ni 1.5372992061001947 4.376575492185814 6.215097467694411 -2.8452403509897835 -0.4650886506172183 -0.7469869723237651
Ni 1.0830545533993063 6.188647283107644 11.894781593576017 0.12120360279522997 -1.9107214849571996 -1.3503156123932099
Ni 5.184185804810094 7.896351201716302 9.980809333114243 -0.29861923400565343 -1.228736371426116 -0.4384520218662965
Ni 3.810425494805913 5.569501765294141 10.426984785819519 -0.2950747111875047 0.03718612213199402 0.7371581591588015
P 0.4781313503988776 3.2363089115343913 7.768622762201965 -0.07789594114653035 0.9619432807921239 -0.0467043460350744
P 7.561026966985408 3.186653013757934 5.378588224819955 -0.3905672823698757 1.166000940070108 0.466413540076229
P 2.794107423220016 1.4938094831180708 4.483574016983103 -0.9729314043725115 -0.5842006609907422 0.17248142713359974
P 5.014490062474655 6.634253693963519 1.8005678170090114 -0.9925167827036069 0.27877237448305536 -0.15062807870393413
P 4.016232073191073 2.490780131824319 7.9257174925673795 0.6486777576282055 -0.6806818213386278 -1.2970531535246435
P 1.3132739599792798 -0.033747913091469246 1.358937236255019 1.1232221543416847 1.3135382956638604 -1.366830836439414
P 0.2867047394047392 5.85080433855153 0.6752213270777967 0.877855866122901 0.13041689386338184 0.263289705466424
P 5.4390419249026785 6.566407114116031 5.9634401090798566 0.08535085476267881 0.19066041203547163 0.4082017076221874
Ni 1.1395389533685816 1.9403114352451358 9.263260620995887 -0.8098167631657924 -0.48086571094581704 -0.20225325907939362
Ni 0.6308416599574286 7.530028179025391 2.1963625432214626 -0.9616200931247504 -0.6897223342743412 0.2622034143807807
Ni 4.2195572559706465 2.3163641407053204 12.512824476199368 0.39843408671246217 -0.17597735610200016 -0.195663778787334
Ni 3.5078165021381484 3.4297178404465267 5.491541166215161 0.31282920695744837 -0.6232680593058492 -0.08492019498316343
Ni 3.26813794088124 5.694551043838836 5.830333757660931 2.5186732256209527 1.237799767179965 1.5551425457370507
Ni 7.646103387748378 7.393803291700648 6.356913890831143 -0.19753965565380818 -1.4984754320623097 -0.6212011494744915
Ni 0.17598412119907025 8.936914187508664 10.44183957665537 1.368204576858489 -0.5787064706453905 0.051601269116059514
Ni 3.6596853760439783 0.25895228855278324 7.268052505826854 -0.1727490789726896 0.46131709938992815 0.6032080553311805
Ni 5.4010094065418635 4.104097731871602 11.774932984392656 -0.20052316376216434 0.875394549066602 -1.182548302905828
Ni 7.4115368745811745 7.790042989982221 11.104446831786271 -0.6754928209385205 -0.7468193363976493 0.4620904872208429
Ni 3.923730122721159 4.314969715571926 2.2787467430379214 1.4393002072537342 -0.7783032659385436 -0.07830886031423287
Ni 5.251911113443775 0.4106551141812464 0.6225009990139887 0.10715432379101546 0.0234425472936564 -0.541939438328686
Ni 5.730139480813698 1.4243397347165527 6.394828869400114 -0.9133417177343367 -0.9370133503196637 -1.9354084461809185
Ni 3.3535222039561816 5.589399572913376 13.539346121143875 -0.7268043267283031 -0.30806315302737264 -0.18792732937502474
Ni 5.3152333441607755 3.9275548302335292 9.319867225034459 0.6208339959430598 -1.044251234963421 -0.5252596636801599
Ni 1.0725599291275583 4.330511088049021 9.73476310027698 0.8938162461068992 0.7603415392538002 -0.019078099677373596
Ni 2.677705715075241 6.619477262988898 8.526557587084481 -1.433385641541512 1.4371438230323637 -0.3039586439406959
Ni 8.008349831944397 7.6398439274049625 8.752205068903935 0.15974726739638295 -0.5742198956289465 0.16955268352257896
Ni 0.39020039183399136 -0.03308371998200395 7.860755301897514 0.4960406189140425 -0.42232349173555006 -0.11990750969162575
Ni 6.638153029915156 1.5503871686364281 12.600054860290648 0.5353851821499359 0.1684234550141422 -0.16458119844991656
Ni 2.704851809858162 1.7840301548677182 2.000287513316558 0.5203354869056651 -0.22061659207792975 0.43804398779460035
Ni 2.7769148965241657 0.35269773539196336 9.523601931374504 0.13640884978075862 -2.2336672115233593 -0.36156703848278376
Ni 7.989897950335936 9.26294718155097 5.040805915870746 0.013586480435183053 -0.38684406788201764 -0.9165178014694731
Ni 3.1567363381672706 7.853822319889725 1.1016127805337201 0.857427165954904 -0.803895512585351 0.4663945139128355
P 2.1698032145422683 8.121691774079276 6.6597980758687 0.4480080409858478 -1.3363228976585435 1.2096125061124716
P 5.322108489128134 4.854150860712162 4.371453182685711 -1.332446188311957 -0.5321725887499092 0.3475007901977048
P 2.0350429103381154 4.73584612736611 3.965745934027784 -0.13838062879514876 -0.8165592240959485 0.5760762321113949
P 8.78653788238815 7.094282050707505 4.0685829904805155 -0.9515493391523097 0.6570713810085393 0.8408440647852421
P 6.677090418102067 8.25544459435334 13.475626493987784 0.1289217973750941 -0.1511942356200493 -0.5973641949558938
P 7.153546360039429 4.137559258327389 12.882910637940254 1.4110311851057118 -0.861846120958206 -1.4712505349080855
P 6.043784153937888 2.222136407577385 10.674300634979788 -0.5057154229996452 -0.009956339881763499 -0.828552649012399
P 7.523768718681976 0.08456428309850951 7.350285583053799 -0.19383186778491776 0.22648796325704218 0.7090315761259144
