# total energy = -340896.8015179278 ev
CRYSTAL
PRIMVEC
9.01481659357330 0.00000000000000 0.00000000000000
0.00000000000000 9.01481659357330 0.00000000000000
0.00000000000000 0.00000000000000 13.19409531632829
PRIMCOORD
 96 1
Ni 6.3625221398920155 1.9944019044626196 11.444188525962211 0.010357946195556354 0.2324657781070319 0.03737818353814208
Ni 4.5668789057614925 0.16642072121130164 5.908526974952124 0.3395861633363184 -0.27117733574461683 0.2973912751358233
Ni 2.8454636692504596 1.5039418074883781 4.670564618685962 -0.3981219547886821 0.10220006510953367 0.7543665526172879
Ni 3.5303102506392063 4.083540513683948 4.6246755976655285 -1.1103926066771845 0.6972494958893217 1.0065588626189699
Ni 5.051371194328629 4.674687094191353 2.7059765147731567 0.3094032119950349 -0.6313433801148159 -0.7040552059572456
Ni 7.161694621913548 6.0370602261130015 2.455829785462418 0.970383184029361 -0.4828459746006394 0.45208889592344076
Ni 5.180905090101576 4.477433898185519 11.367887120587989 -0.102402668038643 -0.4192505092371812 0.09202595279000925
Ni 5.543814550894357 7.897096293252512 12.238723786466197 -0.24902368246571305 -0.014661458666916684 0.8976726437385121
Ni 1.897952384602174 6.354525997811802 0.37003387013437455 -0.8562488293760866 0.5509151594647351 -0.42075177637305605
Ni 2.7846136590571695 1.6754036139885815 0.509567901656567 0.5681590341468472 -0.8596336866879196 -0.21169126456384188
Ni 0.6848546947234392 8.992477610078655 4.52106200327166 0.30029096528112154 0.33040398261641807 0.7789673818851035
Ni 8.553347877258576 2.189554648264744 1.35755381111434 0.06098836675791432 1.132779716123133 0.16213170846815947
Ni 6.906539260652678 0.642336313526898 4.83778675706855 -0.36630943826377554 -0.1288657473261781 -0.6551353403280911
Ni 0.7581352351471775 7.329505427802154 2.46319218595499 0.25888360597892834 -0.33782418633988914 0.1662166771708105
Ni 7.450195788760341 3.7714746169637827 3.8990793420431924 1.3249930744680212 0.5119197520381441 -0.5607578565867697
Ni 7.714383995978793 3.9306041547314794 12.532859213516074 0.0039299311820254895 -0.4071948636242278 -0.6586248415385882
Ni 7.58262344057359 8.896839423687453 7.077985741965128 0.7099708001107322 -0.06890299361930069 -0.18231358273267312
Ni 6.76590812598374 0.7805000929677008 0.33130351475756986 0.2575530600929629 -0.685069408883362 0.38989725288604465
Ni 1.8332350182054884 6.467797164934569 9.135247960661498 0.46765872533723973 0.4042193259356716 -0.3783547994640839
Ni 0.0509427270521898 4.829985335020954 1.2413122620125066 -0.08779545964842944 -0.275306527421642 0.4341629075726393
Ni 6.266261931174394 1.843448805101636 6.990363530250056 0.20201697469887145 1.2279976934878787 -0.11251661654419333
Ni 3.3744621060137843 4.37883885203974 0.42319514348413007 0.3743287090238263 -0.5973143155545648 0.1599979499546083
Ni 6.0107009031789005 5.570182888644782 4.813206057395359 -0.5177888092244115 0.008022870304476506 0.32761613545863577
Ni 5.119928872479736 2.8258203844784333 9.360379476152183 1.3072480917797744 -0.7698978154836676 -0.33436759524985643
P 0.1848767546733346 5.661935689199939 12.323640651802158 0.4876372253416957 -1.0362679596476283 0.379556790191985
P 4.138936560000654 6.017101422769602 12.398424863588897 -0.8892548519884621 1.4401527850620164 0.6287979879851429
P 2.4092817813686325 8.441401888135571 1.5416643064000555 0.16387903017656938 -0.18308131413663306 -0.03343462550936177
P 6.324695970592602 7.605232599916519 5.869036670559128 0.001760434334532452 -0.3742268933386394 -1.1929813253136936
P 4.73653774899671 0.9354584752218517 12.675514174449958 -0.4802512172902697 0.8959466621863409 -0.6612201130695903
P 4.046832181608825 6.164178151110866 8.125648931538509 -0.46391751312725266 -0.16807789874926538 1.704671220729219
P 4.827244830858175 1.0072705020662587 3.6973286541728507 -0.5098924371954703 -1.4116454216509429 0.9395440871613173
P 0.21236833853784673 5.438746866627276 3.691654728777938 -1.1034984506605126 0.3195994358017463 -0.6467226907843636
Ni 1.4039224203632596 1.1650748618341904 2.5736002474129602 0.5009313713474406 0.06377312859190307 -0.19312481441556417
Ni 1.6729966580298248 6.623753487355891 4.8226788263895966 1.0190976185159288 -0.41751192927951963 -0.2747210872318172
Ni 6.0387820560310645 5.627805594593746 9.225073393486383 0.3564880812979796 -0.4431134318977078 0.28740125380264697
Ni 8.646227529854349 2.4275818585082445 10.164387505650408 0.7195569011372704 0.06202092178748673 0.5614631101839104
Ni 2.5665272225244182 4.969074936098328 7.064923273110303 -1.3954862953925775 0.18709094951665842 -0.727965694026256
Ni 0.5649973027936753 0.10042415237810816 9.159855704783665 0.9039623334019659 0.2563158452517521 0.4378637534629943
Ni 1.6410211045252916 1.1273298258817008 11.543923044891462 -0.6618276647466022 -0.03382311919703208 -1.2990861247942724
Ni 3.9556473144821402 6.627242221273639 1.5185746573470076 0.8735412979079472 1.0653761898674943 0.5526853639912804
Ni 5.6089195543930135 7.710426491612149 7.990515031864517 -0.549781302970608 0.7439741536393704 0.19503591539534798
Ni 5.3832336276983455 2.7650515076320676 4.723881848358139 -0.12190140019320296 0.1885809037986236 0.842143500322956
Ni 0.4556836400375519 7.57075994228998 6.709685421010038 0.5751876588588546 -0.7200112150658697 0.36800533790895973
Ni 4.972590714465051 4.390089342813255 7.2321715544602325 0.507422635498739 -0.35065810487976384 -0.45741622167362517
Ni 8.150340513452498 7.393366386647971 8.845888583300571 -0.5888890676053471 -1.3855950044207943 0.715009133865588
Ni 4.428249060316691 0.3942656964157913 10.430156010170622 0.5529476165137316 -0.6837398914386612 0.42547257888749307
Ni 8.093691407666626 7.341468089065339 4.441712688497977 -0.35075426413799593 -1.0978543650008576 0.5493542427355184
Ni 7.111716480208126 5.844386556800234 7.018519506077715 0.6080867235797205 0.6689020550948802 -0.14694317365317922
Ni 2.0921225134248806 5.23642734384683 2.556606417158831 1.2048310255634282 -0.09170482200516464 0.4624419570229907
Ni 2.3325476648108125 5.364987639456684 11.266873399222229 -0.29895733407136255 -0.8475482162782952 0.3695287165320217
Ni 1.242773563738778 3.3364105663062475 3.8486648832276438 -1.006009674983719 -0.23816051449896405 0.32856435830451797
Ni 3.6967598192627475 2.611835689373526 2.624186889220315 -0.20374732712641683 0.32943519094524554 -0.2505820280917685
Ni 1.1267528776369053 3.365041622954231 8.187925085674404 -0.20074119331024137 -0.16702168957060914 0.40450240439372914
Ni 3.632565312212908 2.413221256102628 6.9454246708702705 0.7043087167289483 -0.14285306274420556 0.21935469464637064
Ni 3.928656954405294 6.636725808047467 6.042658427050784 0.8330765050246814 1.2458282939113963 -0.8085404675565301
Ni 0.7312819002784705 7.51524670336105 11.403959908112203 -0.17940283684378136 -0.2210737342200064 0.24938106580513184
P 0.22984716591025706 5.606891220719904 7.919333140681221 -0.19053108554645895 0.32673090464020504 0.06895467279284254
P 8.539086437832532 1.5961994377577307 8.037816674603066 -0.33870067540757154 1.1937621693437763 -0.606506266466478
P 1.8214616680851274 3.245820677057007 10.356164200738846 0.10560009193001814 0.37976453532741694 0.5836211343381885
P 3.855041964295901 6.079781440676854 3.8990531990758504 0.15045478635086348 0.04946288261681804 -1.0076850058036129
P 6.919682862854428 3.8067586080595657 10.30580202785798 0.22475195440254195 1.0000406018844779 -0.5106090036465206
P 6.398842834865166 7.802684121881501 10.143422648805146 -0.6366647923277293 0.09778933763634771 -0.1589617953806101
P 2.451146588381616 8.37095109855623 5.963309112277101 -0.8765170927068194 0.855101860255837 -0.5302236925536546
P 6.99477628284111 3.9512841433808727 1.505301241790178 -0.5774761977827152 0.12141777568856507 0.425908380873331
Ni 5.2654550524131105 2.8394778312107047 0.616290706200905 -0.19770600602834337 0.4508090007697526 -0.875240539987241
Ni 1.3011805587080112 1.1515796817957675 6.843275984129203 0.6855021255454066 -0.8474582276676501 0.10902145890674128
Ni 6.848060147152845 0.8602145078025432 9.267176191650345 -0.7239077219067984 -0.5258638729230621 -0.19032668284513674
Ni 2.8646562132062394 1.6575993517468415 9.250037222853384 -1.0368518571755563 0.33014944340345076 -0.37227671159080405
Ni 6.353678605077257 2.019048412294983 2.59209865051172 0.9923077520165942 -0.38283854626705033 -0.2466670093080784
Ni 4.163826467873791 6.911010609549844 10.313415040244386 -0.143633649663972 0.0970545163528522 -0.35113093075112434
Ni 8.273113296981744 7.172674668197315 0.3756491992231746 -0.6378639548421531 0.09143511328354575 -0.0213380993561439
Ni 7.746404623564952 3.788070893817982 8.150599238681023 -0.5116197042992221 -0.2710714062943719 0.24940009196852528
Ni 2.973924801880738 8.340472004561635 12.566082417599977 0.9727938503533826 -0.1833744198970197 -0.24550769889265459
Ni -0.04738728349363669 5.189351972998037 10.203164738072102 -0.3300645969991283 -1.3484387070854713 -0.7171619185425326
Ni 8.57271170272453 2.547542019344112 5.809293679810539 -0.29905760709465273 -1.0227424143573676 0.3121041558659657
Ni 3.6992929826500536 2.60670625888464 11.507862878110103 -0.2358588629489809 0.20024702728264224 0.2726387507814918
Ni 1.2488765943907567 3.2589913237077326 12.622407891479785 -0.7692110738292882 0.9159159062194162 -0.7289792228924349
Ni 3.0474135845615824 8.516900974856876 8.143738061976117 0.4020845389808559 -0.6319257349808471 -0.38619075056873486
Ni 5.733179782615874 7.642553939501737 3.598702957651567 -0.6439831803660135 0.9752585098437915 -0.31919088750941804
Ni 3.324357756879813 8.256237560821472 3.7427822595647893 -0.5405356160026239 -0.05514682037547277 -0.3760791160560297
Ni 3.451006911428781 4.281983665444673 9.228556718514337 -0.7490063167466392 0.821250973144663 0.4717328954066134
Ni 7.168158245218524 6.286500193823866 11.429543055360728 0.5357695620725483 -0.7211944367406934 0.0419478051866955
Ni 0.5754508838040663 0.11834200130554268 0.38218944846691266 0.6038456889151794 -0.2864273199251519 -0.12115603738674617
Ni 4.577777818698336 0.2814750190031417 1.657877909571282 -0.1980749593319879 -0.8482879226577972 -0.3994877247879572
Ni 5.997845775099549 5.590808788396226 0.3160143862704855 -0.08870897260163431 0.4160602844346576 0.2852641528549862
Ni 7.932749891817617 8.985698468202306 11.261318469402807 -0.0534393507660628 -0.30201437573013146 0.24864804429384918
Ni 0.18909839315830015 4.838143743795017 5.828754865292802 0.13673435144097743 0.24309728967894909 0.3046685255235269
Ni 8.024412544209525 8.805753719540341 2.320946497682258 -0.570595668612798 0.8837249233091684 0.7904404155217097
P 8.451453408337871 1.6427158899943788 3.644829068341345 0.2938894326301519 0.22447941746744565 0.02104036561006699
P 1.7512182192812584 3.267411162155219 1.5639489323552869 0.030940141222282197 -0.11557880040928481 0.7682057724932254
P 4.8063755310659575 0.8862375780877237 8.219498578370844 -0.48175274153646064 0.5186501287834423 0.014361410927994622
P 8.569132820643532 1.6728073468870013 12.391221123863643 -0.24915558005788704 0.45873005538904227 -0.05352548272196588
P 6.34088658071218 7.79951992135145 1.344478721516659 -0.4175109008382552 -0.7139817210423381 -0.1337493006707245
P 1.8493625246107912 3.1778399471506966 6.0659986879976655 -0.32741867473584907 -0.4117385171308522 -1.5648356046550986
P 6.738728454764071 3.832513938299896 6.08198916919483 0.5168089618096455 0.6521508037784705 -0.3088717649715971
P 2.2929185322464125 8.364857082720576 10.301183737454718 1.3882931200782478 0.6630864768543677 -0.40819965073965825
