# total energy = -340874.3131207607 ev
CRYSTAL
PRIMVEC
9.18362682286672 0.00000000000000 0.00000000000000

0.00000000000000 9.18362682286672 0.00000000000000

0.00000000000000 0.00000000000000 13.44116615049033

PRIMCOORD
 96 1
Ni 6.432037882520131 5.205288983924882 12.092788848971075 -0.6643332047772752 -0.9028282197975226 0.02378964622043
Ni 8.074208149792996 4.845575496807968 4.338795406441284 1.566614550932392 -2.30438463264358 -0.4849329390366552
Ni 5.23526434254904 0.45806003061269635 7.57881483858014 -1.3263627011220385 -1.2502176812283436 0.023717141111281734
Ni 0.891596103605923 2.9560534191236303 0.42313561538236333 0.7939535708812907 0.32880269956756925 0.04079595097043942
Ni 8.546439435274854 4.032521445008799 1.9790367270658893 -0.043094517196629004 0.4909557481919674 -0.10143361925715433
Ni 2.3566931846729613 1.7778216221250178 11.399386437013332 0.26801462174591906 -0.9637877902000304 1.4399013311728426
Ni 8.187662678114943 6.745888336251922 11.74128919786931 0.5224638461025776 1.6852593918615109 -0.07066265662288476
Ni 4.5955328836768645 1.925347406726261 2.032788496069318 -0.6554387305011228 1.5446375324406687 0.3364473605970206
Ni 4.356437153964877 8.23773181267956 4.6099970962482635 0.4656663774975593 1.0441728163170019 -0.028147666078809586
Ni 8.064482688768798 3.3334729391533426 8.424802295269657 -1.1135254958792113 -0.19694675926481567 -0.4197642156488061
Ni 0.6022668524054928 8.179048435961311 13.215691129842597 -0.616049687180539 -0.64859111145167 -0.18340038803894865
Ni 1.4334447921473024 1.2929628494776546 5.470501112183247 -0.7614370863108241 -1.2317823573412916 0.7730340471198042
Ni 8.843676707710351 4.324285275734738 10.843056087009197 1.037389474846581 -1.4048312269425869 1.388947722943111
Ni 4.340898457031031 8.929460967792535 9.96623552093097 -1.1306958370109108 0.9957314329861625 -2.0933397434144854
Ni 7.509075293281126 2.1609625417940834 10.473276426305294 1.3895241642718712 -0.5393554796515937 2.230432763746462
Ni 4.2768059239924305 8.481593844819837 12.16029034436301 0.46007911321776895 -0.6996179961214983 2.0229876760534835
Ni 5.818792004000919 0.5895952838302441 0.37565534527735295 -1.0131629981990486 -0.7404460858814539 -0.6917591621987119
Ni 8.50280802325789 8.861768452958387 7.014837282348575 1.6505191601668479 -0.3791924648740308 -1.918880109508592
Ni 1.1632716685676225 8.233883872954216 3.0470447957315185 0.3313810018177067 -0.0991327390381196 0.43553150578539185
Ni 7.782086157612908 3.3366596577325653 12.859446298654712 -0.18241205598375038 -0.3783468290442839 0.5078409539830803
Ni 2.858165138616618 7.210249253369531 0.31006220758213876 -0.6639994755869403 -0.34021916893462695 -0.8770889060498894
Ni 6.56246375359252 4.153451445732726 5.797443744608236 -0.22720221571524746 -1.1062382181891786 1.2544705429674265
Ni 5.769016745501246 9.001350400179147 2.624065302008656 -1.3096052791580415 -0.19701797882238328 -0.09696787017631688
Ni 0.4704009886148845 7.069280578467321 8.595773879677111 -0.0487835971616063 -1.641951730212811 -1.765754718304101
P 6.1960003006089535 7.292295777250725 12.678205582502915 -0.3939439121515925 0.502955600866321 1.0761910210948111
P 3.8333653092479314 8.912599828566448 1.143676563574864 0.16106392932527744 1.3162204704817138 0.2028772658166377
P 4.153405527597578 5.352373954428711 0.5369877947546862 0.3056689417635833 0.5070439120030816 -0.48865383953166813
P 8.819147239914665 5.261575433988442 13.070875433577749 0.9353675871861246 -1.2222209389051015 0.5448481273350487
P 1.2561273214624913 4.089009934867006 4.620225820033677 -0.554002025920175 -2.450207062428754 0.7425088819477534
P 6.465870364496662 7.652293956805552 4.121102119521453 -0.3409928138758579 -0.3415234895683473 -0.3990560365671772
P 4.673465142648861 7.313115059726511 8.668315349582814 -0.3038763686395347 -0.347615204288382 -2.395858055364229
P 8.156594467874282 7.886026448332336 9.860399729592665 -0.4042427229744393 1.6732168588746796 0.272977107957517
Ni 2.021242840167881 5.105545610757918 1.0696207135720026 -2.3871109052992177 0.0280983008981129 0.20781301255535822
Ni 2.775677800638009 8.371454605855526 6.720341322581371 -0.0644794106303083 1.1758598351420586 -0.7190329103130003
Ni 1.4822098516737343 8.856699090838125 9.125852831817534 1.2710384746284367 2.676951621781293 -0.4420641646975871
Ni 0.8839672646325506 5.7273414460415575 6.030674810099211 -2.2135192758205746 1.0249473924284864 1.199100036616922
Ni 2.668238548020358 1.4701701166381123 7.5063266337112085 1.6188843068703864 1.1756515757859947 2.01578678742967
Ni 3.9506126755330455 5.886172275516066 11.755805757114777 0.5607496290566536 0.637123734242019 0.7242345091185979
Ni 0.2982199205276503 0.29525820081064946 11.039686725336962 -0.6271401406667457 -0.8997601223951601 0.2871449148174668
Ni 1.5681134989073016 6.071020320365035 11.879921558055225 -1.0285291962424739 -0.7213319907598222 0.12633835291863404
Ni 2.592951173632846 4.253791754656604 6.377201527164524 0.6260808461642959 0.04604537229483682 0.35861361228141464
Ni 5.803418612353603 5.372164670677198 7.977479761379805 -0.7065504615752735 -1.6903758871524694 0.6373294224949217
Ni 4.47167330593054 2.799500129152428 6.434340217816416 1.9756788636651907 -0.3806618503307057 0.45876810771582927
Ni 7.033354229528075 7.292635571450815 7.936699865555489 0.1515685882403325 1.5702943137768246 0.16351367641735065
Ni 2.835086683891585 3.9500892087923662 12.620045672525347 0.1301160747935114 -0.47470149111663407 -0.5939520839505512
Ni 0.9468962321265185 2.3220800943989275 9.551144762826414 -0.17935450010434917 -0.33778330579962473 -0.46513055959874733
Ni 8.490841757238503 1.08442104689268 0.22349733920245005 -0.5315766070371232 -0.49560173160441096 -1.1032495678745
Ni 7.945995532834708 5.781350356601811 9.472796485549983 -1.3988778375726296 -0.8694144202237671 -0.5048618167500983
Ni 5.692645703124258 6.914215036074892 10.466649521040834 1.4617258832471018 -0.14382493973917163 -0.14065322687940937
Ni 6.516536434818192 0.0591535784221569 5.642386467480133 0.45280906191891696 -0.9092030129756147 0.02408789418713916
Ni 0.7416807392516143 2.2050715024165792 3.4221610621022425 0.6200500665891837 0.9633735854807473 -0.5253861619556951
Ni 2.7674400871925835 6.995710542334319 9.83222711695439 0.12693279196952334 -0.5359811638627221 1.2663099588045161
Ni 5.249324475531142 1.2144061038676548 11.362678561413878 0.11610690499861295 3.058212024927946 0.3406045772985037
Ni 1.1906756116235306 5.7635708546727775 3.559785060040322 -0.9973198605192051 1.6281330791621638 -2.7750469206938337
Ni 5.418633823446264 1.5310208293353134 4.1184673369267015 -0.3543656356383381 0.8993384614767093 1.64269426480579
Ni 3.6338050938977684 4.806287940375939 2.6453024395142823 0.5356857441094903 -1.0836690746394113 0.2889434014787863
P 2.398414402267798 2.853160061885562 2.0559073587532803 0.9000447435151145 -0.17316122680944374 -0.4873266360798123
P 8.148788384899241 5.283432466318556 7.27472198856715 0.2044430676418608 0.13069534433574911 -0.5775368758173215
P 0.8798282039303731 7.924864007039921 5.622547078008391 0.23390276766387458 -0.2672700302704107 -0.8628719911195591
P 4.592401266859818 4.99364311540395 5.881841277008973 -1.0760025592330889 0.1077042827572145 1.3608445369489919
P 0.27851920382405293 2.237783581895515 11.914115874936716 -0.7630273136160793 0.4560319397315888 -0.6590372464856585
P 2.240694791663854 8.247392988314552 11.640547564444246 -1.1235047185791103 -0.12696647342093617 -0.47059286826489927
P 0.5133133226354416 6.804562529343141 1.5266338107033404 -0.1259179775517638 0.1089137296842834 0.2190525900249195
P 6.580867742159557 4.116367959787767 10.151414176353 0.3885070574067374 0.18886681047015857 -0.5462789462443044
Ni 0.32320397786129584 3.353842223904685 6.5064923019360705 -0.5519541422522107 -0.6161692434775389 -0.13441238817602014
Ni 4.553233097579173 3.763643212840272 10.854118684128885 0.24863338900582985 -0.9411993633765533 0.2704887943180245
Ni 7.439830745478998 0.4879242673497968 8.761691714130254 -0.41324904023810766 0.3784879826078385 1.4250982047217393
Ni 7.056239828085489 9.16589344566598 12.004520417777421 1.4893313036691962 -1.24021351882778 -1.3892991927452591
Ni 5.818828738509037 2.2454610940921436 8.996118487860464 -2.044584428387653 1.1656021619697925 -0.29169910984705244
Ni 5.928692468662465 6.535684297174615 1.738951002360126 -2.646350351955668 1.9251196626604006 -0.8405951819992298
Ni 7.735662922978989 2.0205173336325535 4.870984756073078 -0.6553600547443875 2.6762707936641847 0.2427216515070852
Ni 8.76004141635306 9.397054521624513 4.398608369284156 0.03982561663737012 -2.928432764648563 0.13120930785769017
Ni 3.448653989356828 1.7276973857982258 13.534448395496229 -0.2080053310718224 0.038523352886178815 -0.5901779616200997
Ni 7.903016158336835 6.8521061664746545 5.5042252273608305 0.24352332147277414 0.709830674988442 0.863679831732835
Ni 3.459628423657033 7.352531186936953 2.5805293997127987 0.1264514814577306 -0.6094470942623569 1.0533817365097795
Ni 3.0368785206099065 2.6802874666830094 4.476997054519517 0.057808683478352045 2.161555224048458 -0.9484406183199989
Ni 5.247552035514456 5.709525209604406 4.015199287705831 1.2798522162653247 0.3470223078993894 -0.11502575611929222
Ni 6.173601434284101 4.496863994872348 1.0544016068587816 -0.3783835958194903 -1.6378107114612437 0.16011416381749843
Ni 2.80660825647323 6.52591291801527 5.003971940723983 1.2484220227805014 0.009671461651493022 0.14409619112268732
Ni 5.217227699063179 7.0988885920103 6.438439788922368 -0.7306013318768901 -0.12562795711517072 0.03889050641761044
Ni 7.557509742234497 8.307077380379011 1.510827870222937 1.8216083349386112 0.3707602749462776 -1.4167508611983084
Ni 7.802363606093955 6.404431899669574 2.826811317575339 2.007354597501917 0.5532029270576473 0.3231475581643209
Ni 3.074173229976543 0.6873393813928942 3.3403312718189433 -0.47539903140429096 -1.116630102946464 -0.8522888162870741
Ni 2.6284091575935906 6.4398439654951725 7.666088682966504 0.8428058164973034 -2.2196894091870285 -0.16542040652176027
Ni 6.87887643926553 2.2504294363150814 1.5738798983190996 1.0898939725032004 0.31466883126934836 0.7213715857485061
Ni 3.7089547138798387 3.9588779398595597 8.5318337948472 -0.3599161331429221 -0.3434777850812407 -0.11982934815552265
Ni 1.4243989195232842 0.682312263956968 1.2034160574015003 1.019530078067657 0.310509043464704 1.2699745521402965
Ni 0.9060483774621839 4.568771794513019 8.689929015796649 1.1417063291888017 0.9989921060153052 -0.35805928243984136
P 3.6368356908174904 0.9144330289400808 5.618528322820299 0.8340568666600797 -0.47084792169849876 -0.45748949811372175
P 6.685753946463019 2.029774429678249 6.83214463476342 0.029365597646310717 0.4746996913444212 0.2819554001967273
P 5.537488324461534 2.710281192561226 13.115621737916088 -0.22657563787484203 0.023417864703308054 -0.3600611433612186
P 2.5541962675685257 4.649394856204647 10.271900607891405 -0.7342528125865483 1.3379612045929152 0.5965298719800565
P 3.5351729396013694 1.968859431591842 9.707990092137155 1.2093767359525818 -0.38297430051396625 -1.7979009640193422
P 6.137509780058323 3.460372297446419 3.241229834181339 0.32370677310190055 1.23918147801884 0.7862523455822911
P 8.5204865052896 0.9920245753492843 2.396116658785027 -0.31300404197241577 -0.6411148576792829 -0.7003800710985034
P 0.6187110549644437 1.27229968866137 7.595119450008244 -1.2472128329637489 0.7690817473402755 0.4791618408808328
