# total energy = -340888.91009225074 ev
CRYSTAL
PRIMVEC
9.09880920223348 0.00000000000000 0.00000000000000

0.00000000000000 9.09880920223348 0.00000000000000

0.00000000000000 0.00000000000000 13.31702698919897

PRIMCOORD
 96 1
Ni 6.828228449670298 1.978181145882912 11.135817504040979 -1.743780528025855 -0.7651605579089984 0.7447673389646271
Ni 4.938906271690079 0.33867495570113365 5.622328728164869 -1.1425769047192127 -0.49302728600901535 2.1971572895227838
Ni 2.764782275737076 1.4815954515121044 4.644699014937752 0.8382091982655564 1.522633517365752 0.20379412120395227
Ni 3.614911289463512 4.24736039861243 4.874524009660316 -0.4067930002001187 0.7896117489728272 -0.35277437989181826
Ni 3.8061227588957367 3.0166464054231765 2.4734511524840364 -0.5448363002605069 -1.018820453595142 0.48921613979304124
Ni 4.941690507219285 5.094332125643981 2.226526766160046 1.259192373923128 -0.9002506888783335 0.651164271495485
Ni 5.170580144384979 4.7558382362403355 11.533170678460571 -0.20652694675408306 -0.7172362234238938 0.34946485590261106
Ni 5.517454036802998 8.169156315295075 12.45175276132712 0.33866596551489414 -0.6216744895664842 -0.06977331203939596
Ni 1.810972334378939 6.731453518008096 0.15766325106707807 0.9936488394255208 -0.6232505758043524 -0.40075347887425816
Ni 3.11570513812404 1.9852509204129543 13.097575299825143 -0.1251610447810812 -0.6726563799309899 0.19020609810687245
Ni 7.963295763503303 8.793971523760973 6.994821271810456 -0.5453929440949253 0.5503022084710846 -0.36123999416066815
Ni 8.582897354458629 2.489725282116512 1.4923993772224933 0.4858258831645697 0.19215345164123035 -0.8319688737827995
Ni 7.159070240773087 0.49809063736600595 4.766416511489534 0.199452813516121 0.06503631157504283 -0.12853304657710768
Ni 1.1903061827800918 7.705444617548517 2.351440674285063 0.11163010017418194 -0.8224244246274739 0.04551983880866999
Ni 7.9751788079514805 3.904517278545514 3.66459260592289 -0.46161226203284367 -0.04056866545098175 -0.060535852601527995
Ni 7.493942804226982 3.734888183869094 12.730904218961221 0.5353653846555941 0.2241785983975752 0.11431613164677731
Ni 8.201256913161211 7.353639170696413 9.003282343894819 0.1673477054514602 -0.2674816320605845 1.173209284893089
Ni 7.054424839395975 0.7881479273703894 0.3223771691654686 0.41301327007821775 0.3449191455134576 -1.2882270705925813
Ni 1.899067002332439 6.716349495202601 9.378542700378254 -0.6276600177259578 -0.5558300802678493 0.3731377740395187
Ni 0.2480489991063754 4.853923396386868 1.3115541807916549 -0.2117920518077643 0.13259667512352002 -0.44792627990531886
Ni 6.524291836540913 2.1215874732548508 6.7616406363585755 0.8827731009188604 -0.5687516734255237 0.3794495751901594
Ni 3.206374769001609 4.461146012972627 13.198025240409718 0.9469084979461887 0.113405704017366 2.527163522480151
Ni 6.096374853081596 5.67349860976339 4.62412478821017 0.6361066058314142 -0.3459918097523461 0.45415837685795984
Ni 5.4884834292049876 3.480321707934058 8.850695318323636 0.4201241700913862 -2.703328312002609 0.3351787782972421
P 0.1908620751697361 5.736025624654576 12.129307351094758 0.5872592453114079 -0.2972974298704364 0.8754927652073632
P 4.061471732397804 6.439008700543375 12.51723233971251 -0.40035187256046534 0.07503790287244497 1.0985814729748693
P 2.8110315214722177 8.957850171200603 1.293526710680493 -0.7794888016062124 -0.02669859233710886 0.3064613557578916
P 6.344362890168214 7.711859277836393 5.748095194685594 0.8468229080764965 -0.17570276228437484 -0.6711052333937862
P 5.09992789312915 1.27930163281657 12.172987093191182 -1.1323428856960305 0.11426239559070644 1.4119925205777164
P 4.314118359650936 6.269397803484792 8.160740826925915 -1.3321949915330993 -0.3690499771233902 -0.03727559652200677
P 4.7915055672027105 1.2592387591502339 3.8028763038734468 0.11238934693770967 0.6841893202712539 -2.445259745725808
P 0.4009535731088304 5.502704867545343 3.552330591599705 1.0125639311624692 0.7566579197546258 -0.2489149248019907
Ni 1.0507941456254737 8.957231452194112 4.478808620846138 -2.503331710167876 0.771484186134181 -0.2624456122985738
Ni 1.9215319615533841 6.7269951016378 4.675208231123961 0.4069189842550218 -1.2708276441692112 0.1780406663889321
Ni 6.31126142332099 5.558389578129459 9.117462387138124 0.1989797305344444 1.7137451580060294 0.13306770122266762
Ni 8.78177002100063 2.2881957633701715 9.999129692339505 0.3697410896531439 1.4226029491037113 -1.0903320884818835
Ni 2.3888922816764495 5.723032525518282 7.054042689421378 0.22241250763608794 -1.1509054791895663 -0.18228607192884735
Ni 0.5674517676362316 0.1748581801621539 9.12160416495804 -0.2853104327118893 -0.6193116457612624 -0.13548813773870214
Ni 1.3856758078882874 1.3657312187378978 11.322841701608692 2.869286079085078 -1.6537680061214488 -0.4946164848730063
Ni 3.9416313201260063 7.1336026746088805 1.6367155854863293 0.7728846660261334 0.6194581986414558 -1.324746248564538
Ni 5.66606488287659 8.114008434437176 7.868764598120521 -0.6703367306588778 -0.008617309355365803 -0.17729453225152692
Ni 5.678011618987202 3.1371783271728164 4.643487053589745 0.23671555452232132 -0.3973709355552705 -0.25051312252704594
Ni 0.8738305010794694 7.681451058429184 7.015209882836092 -0.06802907565477961 -0.10664807357855827 -0.6241093242602219
Ni 5.230086354715064 4.845643480270602 6.822538964453263 -0.5980915600402217 -0.2555599409223341 -0.06258116516633093
Ni 0.8485785766866427 7.850616113850736 11.55497051474954 0.49584624351504925 0.2000793913565264 -1.0239847714049009
Ni 4.707541758498424 0.3525033254961893 10.072133075819997 -0.4718228840172584 -0.348526917469374 0.2935747296032105
Ni 8.428108417129055 7.337452389629559 4.855547533778905 -0.4114649517544914 -0.177218684708269 0.1659865634378754
Ni 7.431515876233905 6.28528432385732 7.035251829241914 -0.399959265107737 -0.6125427024685451 -0.6027280303709684
Ni 2.501999575348207 5.358588833077724 2.1942996948499345 -0.6326682695738266 -0.6012812706221129 1.2150079660964301
Ni 2.7417895855988306 5.086425260693393 11.166553280569271 -1.3917689944419902 1.1641628584201047 -1.2130289879931884
Ni 1.466673404884988 3.4021356428933203 3.5747955508206504 -0.5177756965982889 0.6194875092174944 0.12869836851037836
Ni 1.2897925595001463 1.2155462787213238 2.4731845573827105 1.5090452371583558 0.69543455416777 1.381541660287027
Ni 1.2993645064829062 3.4659546886509993 8.059424679732254 -0.7989242846230048 0.140124608069449 -0.0596436798045618
Ni 3.792247075294302 2.9013371999930277 6.9493035703124 0.17750613404170074 -0.8715191252715958 -0.4994609574495011
Ni 4.1353631596287865 6.936222212729592 6.022039403975368 0.44711792507141057 1.3905029832453728 -0.494250102672523
Ni 0.8906523790088673 0.38434824683170404 0.49869206863555016 -0.9923146939951298 -0.8357674215932833 -2.9016349277294284
P 0.41589745687735225 5.764668675131504 7.943832501344726 -0.5311024956141821 -0.2681028105843512 1.4275181270171413
P 8.588784283829204 1.562875111585293 7.866753761349427 0.5530121512030799 1.6946547170334814 -0.9743251993962447
P 1.9317408251604722 3.264052118738981 10.369688694254505 -1.2186337357744752 -0.2273667663175697 -1.238055849054829
P 4.018889306657009 6.192139816953791 3.9169235045065345 -0.5506361947717355 -0.1854349019704742 -1.42789145119616
P 6.99234366614182 3.966098017309126 10.478209278350208 0.6429832783465894 0.806229045814534 -0.9192251730983072
P 6.186343875672405 7.647457908307899 9.981111321037263 1.8253657450985143 0.7738022927443964 1.06330439494013
P 2.552880114823106 8.679353827808665 5.869945533847593 1.293716890062559 -0.5941253763036219 0.19389357426078865
P 7.014235400400869 4.169711163297911 1.5864837910873533 -0.41593095794564494 -0.388320395317228 0.15424047864554083
Ni 5.152364328929194 3.1294898336362844 0.4609392906689459 1.594847063415524 0.0727683901119779 -0.20707844838217884
Ni 1.6265121811645926 1.2705303810186799 6.827999159685539 -0.7777358234708476 -0.0030678402920463295 0.7154223101436066
Ni 6.962071928868395 0.7546206362657565 9.079708699290627 -0.15027763734305088 -0.20647861001465084 -0.22538496000085056
Ni 2.814052326033317 1.7393556093776998 8.917627066612496 0.4065641720187643 -1.0326367906529441 0.4690306659841019
Ni 6.617509133915794 1.7319582777265745 2.631471076860738 -1.0986796891156303 0.779804018853786 0.20812720136166737
Ni 4.266431502106597 6.7213083460634415 10.283328259280962 -0.28822426392457456 0.8794872310787369 0.16340620430520889
Ni 8.543208349954067 7.269720856036722 0.10157273360517505 -1.0923385773889511 0.6515589358307424 1.0157718965768054
Ni 8.050216685106253 3.9299302518562067 8.10644732422551 -0.6287419379362269 -0.2428589484158979 0.0709102538573166
Ni 3.1426649089509575 8.70192797273664 12.405236010609759 -0.008176622273521403 -0.38290668050082444 -0.5867825627853056
Ni 0.27831163757088073 4.814853110888797 10.144671510164727 -0.3884011279564924 0.18513665400376503 -0.08434066833060959
Ni 9.046963905753026 2.60274158769908 5.620117717597559 -1.1753330161043112 -0.2980990998361253 0.4913810086548441
Ni 3.9028158012776664 2.792015010831563 10.838168167874604 1.6346706231703654 -0.6340695207967273 0.6975487722972954
Ni 1.079737456796728 3.461969410344489 12.433868142515985 -1.1641320051821695 1.0362946991205055 0.2574841545282404
Ni 2.923729368742621 8.36398911067705 8.078374769067802 1.9411813441089536 0.3149547379408834 -1.0356084716867582
Ni 5.552475352332126 7.766524921821585 3.58560948522085 1.1474573727399657 0.8551450547889466 -0.6601564476917663
Ni 3.2602488166108503 8.455659610535706 3.539958941112577 0.33175432599672544 0.6436368527701882 0.05885203714120187
Ni 3.3519011188516687 4.264029416551988 8.912246940898708 0.02784479012641011 1.467770289668969 0.15306342761830416
Ni 7.15496667795063 6.035130770247986 11.498453263149337 1.1006049311628012 0.6138117989889558 -0.6065736293693037
Ni 8.213194550462905 8.926896023258255 2.351693621173011 0.10398621047567898 0.7893464111265824 0.08535265453489173
Ni 4.814398170442848 0.6565846096873864 1.2112270741274873 -0.23961138801287768 -0.5205977394281164 0.5212618553746765
Ni 6.324918735508368 5.946590260657457 0.4462974873565341 -0.340025307756266 0.33622881682831124 -0.3147367083928063
Ni 7.677156420619428 8.621330723332372 11.356893084107059 0.1709765604532991 0.3137496618891887 -0.37737186672552425
Ni 0.14548358544814038 5.19431893685458 5.825173934680893 0.10016580828832426 -1.2961028737962321 -0.5473122726048251
Ni 7.948746768041864 6.639846709811874 2.605302902409771 -1.186133449153925 -1.26572657549722 -0.6342075890364884
P 8.609902619330143 1.605230067103114 3.654231792206855 0.5169514009247806 0.7892589936190987 -0.06850858639435942
P 1.898357295236759 3.1206821866027177 1.1838824236832968 -0.5795796172789631 0.6080512423560948 1.5388569212031498
P 4.991315411063365 1.2638882505078293 7.977018587114897 -1.1225667801458732 -0.30431474172853396 0.6928822200595616
P 8.672384140176732 1.4986193229995033 12.164264974961455 -1.592181086547587 0.014955592868567793 2.041754415138026
P 6.517167469157355 7.960930073184369 1.307265002267251 -0.5284298338780254 0.14555194973260738 0.22197130633361126
P 1.9037801853524672 3.464735448255857 5.934093956488138 0.39346594407390945 -0.09310093102174288 -0.5795382225180664
P 7.077399331916382 4.091261232798523 6.159084754032052 1.1972082189108477 0.9703168495677998 -2.0693531506919007
P 2.3775642645723276 8.79842084132235 10.09836767157607 1.0026716117494214 -0.2062032448660771 1.6414999873873728
