# total energy = -340866.9203377066 ev
CRYSTAL
PRIMVEC
9.28004830927745 0.00000000000000 0.00000000000000

0.00000000000000 9.28004830927745 0.00000000000000

0.00000000000000 0.00000000000000 13.58228874228591

PRIMCOORD
 96 1
Ni 6.753722270225613 6.411854566901421 4.469292657690194 -0.26368668379452653 0.37361137124182753 0.8747039507574806
Ni 2.6294089160910143 7.1827481882033215 5.505037932568525 0.6681718617970751 -0.13737352768687308 -0.7506361390405782
Ni 5.901526144816021 3.654984185918368 8.9194619196248 -0.3083791416058947 2.015309847793252 -0.7955273431263138
Ni 4.254178351564463 7.821790881715919 8.453480992874388 1.0824704263456195 2.5197790570906218 0.5084323077101759
Ni 2.6987308777032117 4.149870607451867 3.4612019270694723 -0.7471895752528745 -0.8737089338340629 1.7840262629197792
Ni 0.27623084893504884 1.5174178354828338 7.858589985675358 1.9438882015171555 0.3929452956837491 0.2552136133265088
Ni 6.327322605947538 6.962755360629193 0.4617854168648852 0.7918498942747265 0.20361003021760415 0.6597427571931154
Ni 6.1684110569987745 8.55149964818048 7.453715393681016 0.4198446911777544 2.867704850640887 -0.7302863717396326
Ni 4.3942978024858235 5.514492445887201 0.006338273063069679 -2.326212270041632 -0.21070627494275324 -0.9804583088771761
Ni 7.9693343713641545 0.06878928683354364 5.753213339154713 0.7365860887054153 1.587322987124337 -0.9084671632508546
Ni 2.1754103878457802 1.872908649870843 2.7322132923614184 0.7095373121177393 0.32354350805115895 0.4266714842916006
Ni 8.20624472718715 3.6113679583979765 2.3613760619201174 -1.1231427072540012 -1.242752226089234 -1.8749070463617517
Ni 1.9140935047081828 3.75225765333725 11.156777654394627 -1.5754743153158675 2.5219686085427724 1.0513464512473056
Ni 5.044365193507831 1.6582332900348389 8.298764953811151 0.4316416838126824 -1.2168643025788786 0.19784793092284636
Ni 2.263719328501961 2.4261758559428066 6.486181258620372 0.6274692418713903 -0.10505887471456746 1.1259752916067898
Ni 6.306655938141599 2.256694331856655 2.7549364188947014 -0.6078540387436242 -0.852234566010371 -0.40900774846325044
Ni 3.766994370210097 4.8617431208751105 10.360516092762994 -0.11814707535709329 0.37625935038763586 0.21714354592766472
Ni 0.7494140212553693 6.806952627897309 7.031225413797481 -0.5473896628099798 -0.30781812689610216 0.4702030890256483
Ni 1.446880187529111 9.073140449275956 6.774465034428503 -0.26669410316228265 1.243292671973736 -2.130613540164279
Ni 7.537524438863868 3.019402950462176 12.545810660168767 -0.3882646023786281 0.6020590293284017 -0.47286700901105666
Ni 7.122919716113116 0.6440919678517136 12.593579709352005 -0.39103599447617815 -0.705669601632217 -0.9611066438234416
Ni 2.4309365207764153 0.23703192445714796 0.8746297144325276 -1.306893022433201 1.5850871558152833 1.3826019832307417
Ni 3.065478390810845 2.419382860507716 10.069719279845817 3.136320596305915 -1.079323910296838 0.7515547942001056
Ni 4.824112524578262 8.551351167405942 5.057867663942336 0.38472342199458903 0.032156787238202686 -0.15604385040286672
P 4.288152608788326 7.5861982927669445 0.36441822095707643 -0.5116626417220156 2.2471534189352522 0.9092228104699568
P 6.7137531017298 5.69098968657025 2.266883825009291 1.5086641996698533 -0.7403841222952668 0.14034160917626154
P 7.5871448577046205 0.9878240329011934 7.737422249614028 -2.288016989918834 -0.6425721589510998 0.7462678347695535
P 8.259382284374759 4.877259361814279 -0.16534355050075955 0.7673092288208849 0.9903385441053654 0.24316670946430377
P 4.023058745948431 3.484964419024518 12.2824503103716 0.6430311008653893 0.5428161845066845 -0.12755139939012872
P 7.563619934988835 1.9773277545643424 0.8012597957045019 -0.613480383791466 0.7011508878262569 1.9073255719017732
P 2.9506377917544944 5.563750942840018 2.0182871042253536 0.7600119238285233 0.8473381571500181 -1.680609808904641
P 2.7138759167060367 6.85677720780305 11.344226280204659 0.8578627108304258 -0.3185666236618578 0.04810225482386554
Ni 9.070068753252711 1.2673947712584952 3.063689197477668 -0.12136738206660387 -0.4747228312728727 0.7670526327253886
Ni 5.4257102227621825 1.968808670125253 -0.16714944792107192 -1.9378052285478693 0.2564883662738744 1.104377510831356
Ni 9.084629149205794 6.825373523988367 0.7097640864248107 -1.4766146274334762 -0.5459156493676147 1.086016234715349
Ni 5.464120343125353 2.0294537864754143 11.02371196826864 0.0759267332353015 0.4622447534105201 -0.5529391318732992
Ni 5.888719678012162 0.15383350645958047 1.5750840562938366 -0.29321503227094664 -0.7630771930174084 0.04571524264892772
Ni 7.123652839937395 7.13425065522001 9.067155746057253 -0.41905202007312986 0.06763389709888998 0.34541485420295354
Ni 3.615878061924553 9.267269781935333 12.658584592444525 1.8318102151722775 -0.8634571741990678 -1.2959609489017294
Ni 2.0622680376482028 7.279808214508805 0.6659622579362471 1.5058796949461808 -1.316784313404984 0.17375952251507493
Ni 1.3879518801345394 5.048411294613978 13.193917176962039 0.18793632823608922 -0.04252656050830095 -0.2554342139777472
Ni 1.3655776834214195 4.649294972657168 7.723649729770834 -0.8403686678107205 -1.190264183492847 -1.4999350473269717
Ni 6.927092134594965 3.874355250249121 4.394943693855062 0.35604867976771587 0.4517037446698801 1.639220704434893
Ni 0.6921886027437745 2.2639234895669498 0.8566199244859694 -0.9606531012257907 -0.501981924099142 -0.8193465570330987
Ni 3.0543794529141666 8.213548125284714 2.9630851206849416 -0.15648299482281436 0.9133404321827561 -0.06886031330682335
Ni 3.035652315225624 3.3872455092820237 0.889524192128321 0.9575652063290864 0.24974821933656344 -0.058698799392789235
Ni 0.9451079700764353 4.422722590761347 1.8058333879783666 0.5674794915813195 0.6245047599264276 0.35904067251650423
Ni 2.3447619912542117 2.051818703140126 12.531454425280673 -0.04588724945041774 -0.9297289008431083 0.5244351108963355
Ni 7.655705855347313 6.708843956121654 12.16428466997045 -0.9015519241882601 -0.5001168458659451 -0.35633715754241213
Ni 2.77457671334665 0.8648336953324158 8.688780332293652 -0.9485066956712438 -1.4231871037419555 -3.719989810273219
Ni 8.644587813767087 5.53925161504133 3.3664108725998894 -0.45305665915334875 0.6170339054706793 0.6559092423796381
Ni 5.121788637380731 6.816000675095688 10.875922557337576 -1.188940579585417 1.061444716023572 -0.7107920104604468
Ni 8.273868439940575 5.00978773313741 8.5087603852347 -0.03634254318477612 -0.49182735216364326 0.8115409449457508
Ni 4.040273235746373 2.631654687805894 4.919138364272582 0.4492336858628328 -0.8332243434564554 -1.2673612828871657
Ni 8.450161519558634 0.10002221775750748 0.833568284239022 1.1459039122099168 -1.3498150186077076 0.37250759665468747
Ni 9.070514195576322 4.406454665901082 11.36594437749529 -1.4508493455439144 1.0397294358336675 -0.5918972583040516
P 1.117651910137423 5.278287373743259 5.179782443900557 0.8963629237881531 0.7754740240198645 -0.1167000584979216
P 8.693103906847215 6.382399693252544 10.291246099421885 0.5046980374787242 0.3744114985456197 -0.2818001055657856
P 5.8181170697195785 8.655853792535119 11.487777493027515 0.7323054590521905 1.1237772555142067 0.38909995379572987
P 0.6261981785102627 0.702131246608742 12.712832043421802 0.630875696449778 -0.08391000855109419 -0.1368284538166805
P 2.0355971785219036 8.0048027163818 8.395660723259802 0.689038163723123 -0.8253721944018881 1.8190680850152607
P 0.6773219651932069 8.555926231271378 2.2527855754669552 0.7909052709732702 0.34699171177177013 0.03952531178813193
P 4.2800418464792145 1.8106209649523604 1.9717680775627535 -0.459789349891492 -0.132970513523171 -0.18145432005617135
P 8.014166285226072 7.506102194952369 6.715382678230348 -0.4011286028254898 -2.0031261612428666 0.3815990174329944
Ni 2.750244426419316 0.5689941041100078 4.734459832912517 -0.6715202094440177 -0.3886469254187113 0.7921530273374422
Ni -0.011016345465841897 8.704388445712066 9.04543764876662 0.12881972457959104 -0.8846554055432377 -0.20004853811859094
Ni 1.2811014027579886 6.664476044680166 3.044769034782227 0.9214409498027033 -0.9783572033737731 -0.1437470353133847
Ni 0.722822970545384 7.137405871678932 12.106777137987233 1.9321814546031886 -1.3488971347791285 -0.3131580510517768
Ni 0.39252841559154844 7.7911388818223335 4.86665597850262 -1.0519781712940333 0.30299525158616203 -0.3618786561859316
Ni 5.084176601180699 6.928270700742858 2.7101147130860332 -1.3035449318965744 0.8432105081348897 0.1471905137772949
Ni 1.516109348657222 5.9764625357154175 9.721020532888057 -0.49312935880451847 0.4605650517152519 0.050144996285507185
Ni 8.430970379449661 5.080074819784101 6.134657664927037 -0.3210734492441116 1.2444596956986438 -0.8719443857344724
Ni 5.843794963666158 4.88827477927528 11.502243232486833 1.4058596682071014 -2.9305894059802498 1.0659274343852738
Ni 3.5082202203364545 3.7414556769896463 8.15130220058407 0.8736677961834824 -0.42609118630809845 0.2669892658051983
Ni 7.066561982127725 0.37365465313815005 9.80516273180878 -0.4194986206922453 0.44342993469686215 0.15206892491551877
Ni 6.187490836526845 1.772433565750996 5.152128827647788 0.16032653693862067 -1.0414811284174514 0.9462685503693445
Ni 8.031946857976939 2.8410775402426345 6.719619948333713 -0.9785842317829145 0.5962943589304828 -0.8237968794949684
Ni 6.04442961025996 6.401191791279945 6.857847197384561 -0.4866956873640328 -1.944239414208987 -0.36567257601072506
Ni 4.105289254896982 -0.1235128042941814 10.300998502294478 1.1672492106549122 0.4419116982801228 0.5019323018081291
Ni 3.4342675145683694 4.522381030621237 5.901735873910055 -0.3652673701525064 1.8800510524565364 -0.5450715561997644
Ni 8.772309120014565 8.766583330146462 11.38607373049837 -0.8445695932659455 1.3509208500773766 -0.8585427676165859
Ni 7.837938165946873 8.163769945621016 3.0574409408841614 2.308913630862185 -2.531201954215583 -1.8771382496851154
Ni 0.07906694044606144 2.0648386110573833 10.404291009111173 -1.4060959525876235 -1.1703458473023651 1.5491097092794095
Ni 5.918406552871254 4.13447500714201 0.7172178213065933 2.1143831943483455 -0.2785695144436299 0.8774234065711727
Ni 5.121148314040537 4.419001291349501 3.1242248092566083 -1.3985996442105784 0.3007321665835982 -0.2479330205046956
Ni 3.172505189107159 6.150305682553609 7.662380066162774 -1.7267999343074585 -1.546127486722634 -0.8208491097205541
Ni 9.307981354303834 3.358922801538995 4.502963457331096 0.20565739966493612 1.9838624279172477 -1.1865270850479177
Ni 1.8610301879078426 0.21737121389870076 10.702545268929496 -1.188043264582128 -0.5159317014110146 1.2558684517562178
P 0.6525748601020095 1.7346637687280186 5.437004041675442 -0.48727495690627054 -3.3877863125542174 0.010657222603530032
P 6.583980904784021 0.10538144571347051 3.8315092667466426 -2.4846045660720177 2.02018928737274 0.9171317809043882
P 5.717103742792033 3.4681118511145117 6.574561655649299 -0.22468484861003238 0.23383849008484245 -0.03451911682279216
P 7.345687278161414 3.2424117937690973 10.330308607188181 0.9017861516862533 -0.35861335517109855 0.6540403074916995
P 4.935185423980723 5.7973947216231885 8.738260622403432 1.4833473181716195 -0.4586760622226552 1.1436703948937077
P 1.2453917764817188 3.0357358356613013 9.036147392304777 1.4782089685037896 0.9809015670621815 -0.8132059913529994
P 4.610114608276085 6.303565682021538 5.029222938519529 0.0438535068498406 -0.2346944103272345 -0.2783445429170174
P 4.108527991791581 0.90044031307135 6.540238468605273 -0.589946562335584 -0.29139083457801424 -0.9099542893193425
