# total energy = -381162.4673928353 ev
CRYSTAL
PRIMVEC
9.35392795236390 0.00000000000000 0.00000000000000
0.00000000000000 9.35392795236390 0.00000000000000
0.00000000000000 0.00000000000000 13.69041906781290
PRIMCOORD
 96 1
Ni 5.487640817553183 0.034786322456177916 5.5693034142724205 -0.7645833452492897 0.04032081110623379 0.8410602945611063
Ni 3.6711267278102917 3.064028745510871 8.951863337245637 -0.10208822212201774 0.7228103750775616 0.8471347828899605
Ni 2.559721076871656 0.5940754438812081 3.502816826195503 -0.012358264455036782 1.0899801044591033 1.6911521031968617
Ni 6.410200018179152 2.7609334198641653 5.272112287914305 0.6155550069323076 -0.5681117258486796 1.3720257503767919
Ni 0.27475947186830335 5.467838552195221 0.8536329121312963 0.7885421700577323 0.7799449153070245 -1.8305244064813184
Ni 0.3973660817783176 6.545326860579309 2.860448923367629 1.0752286571815417 1.5393544296648587 1.1032189717468806
Ni 0.5767613233438489 6.572630976110672 7.747969788832558 0.7886005340994934 0.8647218998441044 0.11878265205856316
Ni 5.017830434998128 1.8379252306991398 7.210428549768069 0.5761595358538207 -0.44994845254167026 -0.5405227604868175
Ni 3.5892517969277926 3.393240237846019 11.841897799158707 0.7430783812979783 0.6331189839579999 -0.7459122512023476
Ni 2.6785627308031246 5.055395809432507 10.398858923952389 -1.1151249791558473 -2.0399988658994994 1.1068941066056228
Ni 0.3059043101941766 1.6437938111246644 7.725749533113219 -1.4090882024467282 -2.0215879674924797 1.068934596642714
Ni 3.8040553971546522 7.983352965825623 7.915348039228805 -0.1885618776352301 0.9983323609441195 1.9300181284032825
Ni 2.569711071865659 1.4796417304600953 6.918343732648929 0.12814352444817284 -1.394600036132882 0.7164170699567081
Ni 6.041664612964989 3.637022306697805 8.436638699357825 0.27460384492766254 1.8198458437215494 1.1388521475694582
Ni 1.1892303310417307 8.0934206353897 4.419445636534769 -0.2600493441522554 0.011661495498328303 -1.7654664976397207
Ni 3.233119700105059 6.607942053921873 0.6723201153468787 -0.7832379842359994 -1.5549366003738319 0.5184539536122361
Ni 3.8647623892062253 2.1002654924985875 5.186327415170857 0.010319379648137068 0.00912124557497784 -1.0541055020496815
Ni 1.543014591962315 3.3726428886168103 7.754322041267415 0.4006524345200197 2.251685245367335 0.015111144609825588
Ni 0.8265280352641402 4.079088939110338 2.7929135639512412 0.5929508963795465 -1.0107330486013173 -0.3150655524871348
Ni 8.112811327920195 3.508405798113964 1.0560968106764252 0.80071840040895 1.4399031309450556 -1.0446602974763814
Ni 4.165444401455503 4.678292206264685 4.562811418626611 1.0577991488511846 -0.2889446870303669 0.9402100028800904
Ni 9.054967007490392 5.453732828926533 12.104890029732577 -1.2551138329783802 -0.22039573431637524 -0.4920808629353461
Ni 2.7487733135980563 6.4478215161809125 4.14670474230664 -0.4676983203259235 -0.5466103614417941 -1.6788154360083798
Ni -0.03104007433342677 4.741646359911111 9.061852433815378 0.44201274263436136 -1.2264079804032557 0.911766659937733
P 0.740554213177173 5.8537629093699195 5.810556181020856 1.2754548585285777 0.5357705905138128 -0.6538958114940351
Ni 4.935712301990307 2.107748634816193 13.47235758606619 -0.3167046307524546 -0.8858761653242163 -1.5800375092065173
P 3.3219165376313433 6.890917080662116 9.906893763173276 0.758305739770694 2.2329866405165673 -0.8600808015276671
Ni 5.070895267957847 5.270339718577823 10.54025383343633 0.28529372054134094 0.3186797522009544 -0.09495572484229452
P 8.250173759087737 5.188184169858412 2.4623728784619283 -0.0947099273800756 0.9537502034583702 -1.0276005137806172
P 2.357694942152107 4.59046817723969 1.1270529015247484 0.228407034656626 -1.008514957904076 1.8474252960017152
P 2.112116919144095 1.6738666893135408 9.29239963008569 -1.2278786514115112 -0.8331988895351586 -0.04037557560356917
Ni 5.545560339091448 2.8345207706299163 10.573151597850103 -0.22712456839977657 0.03700768757260078 0.47617190501457346
Ni 7.168887755977462 3.315986147344641 12.36521358467743 0.8197561337666913 -0.7796271269562896 0.5047821125520984
Ni 1.0417469498896272 3.2170870676895897 10.888168504601543 0.4921932201434943 0.026179486608845236 0.04163593037323152
Ni 2.7175124865662603 5.339091088620821 8.119376849911104 0.1537293433370772 1.4301753621343307 -0.2596981314604237
Ni 5.752226022047912 6.656339276860985 5.209382041258609 0.21480178516836554 0.04710698079013177 -0.2708441207749142
Ni 6.864585773632043 6.911336705261282 11.656584327412741 0.3039884687373668 -0.28955326714864327 -0.15253917968371794
Ni 1.6088381825735507 3.54772971099298 5.0971480019935855 0.42131176264158404 -0.3182586055031358 0.5904718387114346
Ni 3.6538313151287265 6.741151341103143 6.137524601446302 0.3609080647425462 -2.0107065446932855 0.33687982014874884
Ni 6.924862485000353 4.18882922119802 3.5304034303493546 -2.929275315154517 -0.8013156676733167 0.3728521244782998
Ni 9.267731451435704 1.0499316367995082 5.515034730792356 1.6524626570464638 1.2403621285905024 -2.1540789702760708
Ni 7.025127238128367 9.016597195256871 2.0037161195312647 -0.4157445529664517 -0.10688564351066109 -1.052600892479697
Ni 0.2863424407831667 9.059185628971942 2.38099651193634 -0.9093163986250274 0.386450946208657 0.006241610034337638
Ni -0.04186069812468403 1.0774883083840896 10.248318679163544 1.736814638230983 -0.5749215496816615 -0.7740288069329057
Ni 8.08358030324205 2.7573321576238174 10.021673941611862 -1.5894505749903012 1.5429678580477297 -0.8635523050160354
Ni 8.834186247337346 4.692949811279294 4.703055794979221 -0.46946852485246887 -0.6880500887782408 -0.11430790411666121
Ni 4.843594820060586 6.151638743250095 12.882149991370392 1.89410238834328 -0.9904753267935459 -0.21942539998330596
Ni 7.252792489213611 6.052936096080882 0.31498510339659064 -0.6019469292305698 -1.029971328005639 0.264929297952376
Ni 6.459916144951742 7.802092551037428 7.198997114485136 -0.2958308726272389 0.582064588484346 -0.13465741430729067
Ni 7.8725837516692705 6.459710358538008 8.887902113678695 -1.1701728120596107 0.03390539449819322 0.4873749728192445
Ni 7.995784336000745 1.8959944150837569 2.7442722034940172 0.4861092187329435 1.193487318415835 -0.5085192109970275
Ni 5.833876458660883 2.942652177119313 1.6574439981047662 0.3801987946513581 -0.919258597439404 1.6316009831061062
Ni 0.7149235153465852 7.8577858377362055 12.359628354330129 0.6994989540451307 -0.2539499161227368 -0.17916809512515594
Ni 4.1560437039190115 0.9612002767685034 1.83692529580695 0.07725445090778953 0.7759617622895604 -0.06051811198971513
Ni 1.3147226277079715 8.788679388118409 8.96341824437681 1.088475237778803 -0.12470801640406262 -1.0407979863074976
Ni 3.864818512773607 3.850207677398483 6.744297067054907 -0.1946898449098389 0.4563836666440527 -0.3704879951214974
P 9.320814992251217 2.6058546492596926 12.75812906756235 0.22889297315410906 -0.30051053749109535 0.577775988411321
Ni 3.1501316518028166 3.161543443837165 3.1556822726169003 -0.8066831026328171 -1.1879951849530122 -0.995736060971853
P 6.5975498400282975 1.7060161394955524 8.716402522651027 0.7550918608190866 -2.4742692455842805 0.5905733972863055
Ni 1.1412353270021898 1.9903661936366568 1.288160278658842 -1.512384071723602 -0.16479768533609682 1.9703214560080196
P 4.7485963283385875 6.93771478193084 2.257399321062033 0.21055355141497287 -1.113544779152921 0.03187370878014511
P 5.862115966981945 9.318298785646922 13.180943445577265 1.205774363313304 -0.20683470780248897 0.41654339471866325
P 5.717139438506241 4.228162488004933 13.696990293727223 -0.32354247960989435 1.4770020926798821 -0.3117344312313728
Ni 4.566961756434512 4.722798195198643 2.2913793349334886 -0.4092350339827081 1.836507877758263 -1.1510564029451336
Ni 5.2341587254722 5.980574109869638 8.23534871876377 -0.34094627690863866 0.47981001598779305 -0.0704417988613303
Ni 4.763216517641609 8.436307570310271 11.247897186700676 -1.2011124390612604 -0.9160447184877967 0.6975202330522051
Ni 4.520790768334888 0.6252838889167809 9.17656432858032 -0.02202946899621367 0.26955754075300675 1.1337086556953055
Ni 3.7338541682876176 9.015418600341848 13.658643866313444 -0.577899915583695 -0.16701320493017688 -0.8154359091247828
Ni 7.175875140116526 6.911607969170294 3.316545512232882 -0.15457523627714026 0.2656214389233941 -0.3434785564121891
Ni 1.8898582383833207 4.856727734827984 12.829154377477112 0.402404641324436 -0.26882734745520154 -1.2467178956052012
Ni 8.521157050264017 8.431658668145458 10.626776731090853 -0.5841515529203617 -2.0533251506947607 -0.7502296476307789
Ni 0.8536403952736139 6.710760429365769 10.26073601844682 0.6056500891137698 0.2323806745923933 -0.2668694523978823
Ni 6.122707044264654 4.620971336111829 6.529714219526416 -0.013187959445183738 1.083284951827115 -2.008147268606541
Ni 1.1523758551275247 8.68520623772172 6.444477486957732 0.2126621131175434 0.4983235014109483 3.9709721591271996
Ni 7.466136876688538 1.059566182533425 6.745447600186239 -1.6285866217598146 -0.12433417800441168 1.134625253972304
Ni 2.1773886280094072 2.182944861180229 13.126975958575485 0.45812944569056585 -0.5976968957049642 -1.6256172547188457
Ni 2.876931479714944 7.0422542801077865 12.165785035734878 -0.6312451639740548 0.283046576378377 -2.095964582631842
Ni 5.490418934138594 1.6607524824019375 3.630261287613849 -0.2720240000156283 -0.46662822719019637 -1.4916429825215085
Ni 7.41307204372882 0.39865598843531486 4.1260044998705645 -0.57109960483241 -1.7224516846410916 2.0588329678868673
Ni 6.4848163010135735 0.6819948829707527 11.02989173695467 -0.8413485152254866 0.023323762327604993 -1.2603519414488682
Ni 8.243869211685153 0.6341663788477785 12.281072197065486 2.32460455923488 0.9702248040746259 0.18269256333864664
Ni 1.9367775407147056 0.09115028578517072 10.991653815104497 1.9864343024094822 0.39262930710522703 1.609848421920363
Ni 7.870563303243517 6.136588273263811 6.3542981388882716 0.4580795662892369 -0.8776496636493659 0.6137979150318849
Ni 5.0244810777329 8.568197953658064 3.4435924317156057 0.06999057025652464 0.5188511890506549 0.5174571369166056
Ni 8.379753722244969 8.19126272119239 5.604296458535122 -0.7028419023754348 0.053833500880687925 -0.29585658365885176
Ni 7.386422703150249 1.4822888920549482 0.44145582092085833 -0.9797116605191387 -1.334527753431334 0.5116153334238479
Ni 8.310085667268064 8.141340808006063 -0.10124410937883056 -1.3715889199496896 -0.1677454551105111 1.5501782597532399
Ni 6.248423835200423 8.008168936536382 9.533364295854899 -0.05526072024551773 0.28188263797726293 -0.460361163234562
P 0.7004352164269115 1.800247609129997 3.4899757539784924 0.3851150010060529 0.5666659945410886 0.4860768228331112
Ni 8.581246683074388 8.71186493222819 8.15260387258685 -1.2089201080311374 -0.08971864481307129 -0.3304584900034373
P 1.3250025944667818 8.350401096504163 0.6752497655642212 0.2044024442119125 -0.28909818188909564 -0.6357973021211115
Ni 8.40831126411453 3.6216818649467144 7.045528154871739 -0.4151719682924334 -0.06801776280086996 -0.31222936858992034
P 7.180692412983484 4.624132963741017 10.677924008831683 0.21952618722722836 2.0888174300640996 -0.8595971770230293
P 4.160589712876957 1.217928181829747 11.504756982145269 -0.7241432349563722 0.24952684735437672 0.06132415283077826
P 3.0665917217546506 8.682624553622146 5.578366435011829 1.1983189354765234 1.2865874781066293 -0.6487381785524957
Ni 2.813278000375814 8.122941631832653 2.2119336191258423 -0.4011543138571027 0.6766593304427959 0.8596514272997324
