# total energy = -340894.29406251136 ev
CRYSTAL
PRIMVEC
9.06083095072774 0.00000000000000 0.00000000000000
0.00000000000000 9.06083095072774 0.00000000000000
0.00000000000000 0.00000000000000 13.26144197922190
PRIMCOORD
 96 1
Ni 6.473845908028597 1.7023942191109886 11.442250160602432 0.09011742291338673 0.717406430453171 0.3029129762850009
Ni 4.426768619544316 0.5665619789154286 6.0629725626352515 0.6486535892584893 -0.24146078251679062 -0.03863339610148185
Ni 2.798981282303407 1.7359645977032458 4.780922069404688 -0.047693192310904964 -1.118871333572157 -1.4733398133369466
Ni 3.3294295073847837 4.3934700658799315 4.807444933700303 0.05937679929642032 -0.011030289672232617 -0.20170458566477517
Ni 4.840196213176571 4.479402986411366 2.8071160963115385 0.5780271851901787 0.2622291254123935 -0.18805768430530193
Ni 7.171511767906224 5.9719755436975515 2.6750182421964195 0.28563053505546937 -0.22749377881373722 0.33616248236675006
Ni 5.150520611666776 4.374025522706116 11.775603566981998 0.07753804358647937 0.15495730220690732 -0.538352492308376
Ni 5.622145922356538 7.922699956081951 12.482425396513463 -0.08437666377486759 -0.6954733778255056 -0.024328549443035523
Ni 1.9816671500072227 6.424237858691861 0.26680522753781394 -0.740508563688273 0.1331980561529448 0.8411525971645966
Ni 2.8106335108782092 1.3331925412435939 0.2575668043225197 -0.22211605944159166 1.5600063015872552 -0.1090001187505026
Ni 0.38080860228755165 9.076053125045082 4.6798041023192 0.048275032956303955 0.30078847374283035 0.06664145127863362
Ni 8.815418323369974 2.4284748447822238 1.5474775683840643 -0.7069795786928922 0.4126371176857216 -0.5252789469538696
Ni 6.74581580919599 0.7887707027033828 5.046959844562808 -0.14273684888131546 -0.15877281929825557 -1.207600103668133
Ni 1.0485827809301296 7.338557246914821 2.4278650508606963 0.04066148227510417 0.43247035036156484 -0.08439440438668046
Ni 7.396718720648612 3.6090920540109686 4.053080924283932 0.36789015248733414 0.7423235054098247 -0.46674726926656385
Ni 7.660488569825183 3.5765183668209106 12.827142897044286 -0.09058639213000527 0.8839938606998388 -0.11426625224544838
Ni 7.720806521320097 8.764451149393876 6.9833427737526526 0.7251739902137317 0.05432509580512579 0.32620794225719946
Ni 7.142834238015673 0.5073884103668581 0.2910048947832121 0.0378594940499348 0.09402267150506388 0.7627750883959573
Ni 1.881318447467615 6.55989661936211 8.965729353735645 -1.4339065470419887 0.4590182760534223 1.7381377279177808
Ni 0.26473029725505365 4.883579471665026 1.4708129718099898 -0.7541878609475785 -0.26619710892120607 -0.7679856860626193
Ni 6.44621943452582 2.0373459560664453 7.171880543725038 -0.11429324882864188 -0.4509002749319783 0.37770276770238176
Ni 3.566451783658698 4.3725939114193215 0.6025642845290516 1.0637049728126584 0.1905987055596008 -0.51824183760143
Ni 5.890772376911099 5.659014443406982 4.947738309390778 0.005558210814067847 -0.29265787421589595 -0.580273300911878
Ni 5.395579844974788 2.8892180975261565 9.572255033546893 -1.5293687792070565 -0.8301963552634088 -1.2403523583984897
P 0.12911412249017143 5.558937565795247 12.564314468201246 0.6919777059674211 -0.7005358799500774 -0.7032288534012082
P 4.004470472432487 6.14999368896127 12.644546313912103 0.9678179944053462 -0.15572349094897053 0.31916466225717294
P 2.540385167587343 8.55791856919633 1.3308784050243059 -0.30950297079769273 -0.1239297434771414 0.6220850947413415
P 6.150301757212858 7.690416494383949 5.81040824306868 -0.2223456589538945 1.5301935891011968 0.15108136419126883
P 4.736540307347847 0.8564850104857079 12.379264212053467 -0.7001643555432716 0.861733763750058 0.10121841792255472
P 3.714922559262672 6.312490630843466 8.148957059129021 2.660940333954701 0.6325780238528654 -0.37604826281809434
P 4.719152572794934 1.0818179087780104 3.824679122555948 0.9607016950755389 -0.01721096456164778 0.20229928182598064
P 0.17769376751645646 5.636652312674003 3.492573392595317 -0.049954477541255905 -0.06674095297097539 1.5084063180227762
Ni 1.3902123502803212 1.0529954055925936 2.5218485196726226 0.4266051498300395 -0.5314537083060137 0.3114881195485216
Ni 1.9838236277683445 6.485280676661102 4.676926382416123 -1.3060085629457185 0.8743676504639845 0.2550007259847544
Ni 5.930939040419728 5.62974795950604 9.327448597421801 -0.2695850515568325 -0.20395712914437775 0.08432627015290639
Ni 8.570739644960984 2.47066207358804 10.355860156537604 0.936372117191239 0.05793261065072603 -0.2944172801091639
Ni 2.2671829934135954 5.304074513421967 6.854534001264793 -0.43273208866338375 -0.18659652637874316 -0.16165502594205708
Ni 0.5531755073007995 9.10695055851326 9.120781916926507 -0.030084992310838506 -0.1889737683616681 -0.41282403688554703
Ni 1.4460180079725509 1.067021571870816 11.27474529746573 -0.5273463710058595 0.9892656227561608 1.319148442761786
Ni 4.069436630194022 6.968413242630802 1.5669982225376833 0.6237334289780418 -0.719024168562252 -0.1110477453081507
Ni 5.723201369708615 7.800813658423911 8.198701020929693 -1.4957400354090176 0.4715328635806653 -0.3814367808235173
Ni 5.259939205966397 3.10972247901635 5.028552766530374 -0.6260898450253605 -1.3071719871262004 -0.0030444432532786276
Ni 0.8458648105537284 7.480223338491053 6.913520916696224 -0.32866180311433074 1.0209866080085255 -0.6140293143164006
Ni 4.716370897699705 4.825445180424021 6.968794703612915 1.1984294929124586 0.20521054193550464 0.055691894245665376
Ni 8.270971114503162 7.181034701212692 9.21630391483019 -1.0298800538434134 0.2376624918166229 0.5306875195639505
Ni 4.881332385594613 0.21976139335400868 10.061111326414494 -1.736154378939165 1.1895494168140093 0.38870117569541446
Ni 8.032209158690863 7.1654047678600215 4.907794542323003 0.5830171822056024 -0.43853763960156733 -0.8285595909909343
Ni 7.102359506255453 6.254573799544759 7.093412841796076 0.2696626988723033 -1.855468735131482 0.02951369318840079
Ni 2.3206690783879793 5.172357214205869 2.664714265263865 0.7721927821654314 -0.005336067500932746 -0.26459659720330564
Ni 2.395538724355003 5.357207225990116 11.44450540142068 -0.5868257573184151 -0.7544956219959845 -0.5804044271731036
Ni 0.9249296212409173 3.3238661571943267 3.802917724913567 0.05208052274532322 0.06998517093988592 -0.5049536051329562
Ni 3.6596424297643293 2.426390853668534 2.4556346854921536 0.9210316301794267 -0.216660178533343 0.2554915495782438
Ni 1.011406191628097 3.482910922492542 7.969410351687567 -0.4073761263970984 0.05985553870505176 0.564091548945693
Ni 3.4903770471781073 2.87305357514867 7.300875063246945 -0.3860164297743997 1.4174082922766493 -0.31136367815551536
Ni 3.9923108373256566 7.23488321942424 5.832912628847246 0.4359747639703976 -0.8112277845807061 0.7040940296149809
Ni 0.8160184334733249 7.303981116089435 11.206528113566842 -0.2703275861498119 -0.26657480397559896 0.25022901562772387
P -0.005807992625542985 5.7892729488434975 7.844315613797536 1.3386913978907202 -2.2140021289942644 0.292997774053818
P 8.530708893916291 1.5616251497967364 7.947953397964403 0.2074556292159395 0.7239673715001403 0.7269933028106575
P 1.7615161409232634 3.511950885620257 10.192094698325336 0.017033558443519052 -0.7297166152790917 -0.036396793461479254
P 4.0367360913709565 6.263544022164553 3.765162148515165 -0.32262819532574116 -0.02497415344683441 -0.1776873968145714
P 6.904498141257042 3.892206777221134 10.515209365755037 1.3170817900407445 1.2215637649370767 0.8362785569017469
P 6.351497507993174 7.724657374464957 10.3800090831298 0.7578892210585656 -1.0041566809353801 -0.4575545470237023
P 2.260813229270449 8.622141738821679 5.663603754272564 0.8253709088503077 -0.012976100544693782 -0.06993760553140213
P 6.7163046828599615 3.8569510840760675 1.8895302785386439 0.46303511052229934 0.16439402213977494 -1.5364758225654827
Ni 5.277897772867842 2.5626295075182446 0.33189642476616915 0.2053036158699432 0.5560959323347261 0.4234537486852513
Ni 1.4415510183245122 1.2267821428124288 6.8211819886979255 0.1723094203321097 -0.8402267429162175 0.8488782479436284
Ni 7.156398301916512 0.5120320862180138 9.37858430285318 -0.2947875189643891 0.8626809581546755 -1.7705691089736086
Ni 2.427432849225379 1.575914080171902 9.171626769685062 1.0127467365972365 0.7797122304709281 0.010334806267104781
Ni 6.425125820122911 1.7657022448125002 2.5846944429967507 -0.10914512896879913 0.03659656817711116 -0.22074206191220047
Ni 4.084033628820776 6.987558778383956 10.613516663086322 0.431450907958115 -0.40674183524720914 -1.6163782526190809
Ni 8.279914154630168 7.120218404016678 0.4354155120478635 -0.4332594219217635 0.12054180084151497 0.2898090919131912
Ni 7.653031505970548 3.9791001458310515 8.361988973351998 0.08261854343318029 -0.05657172574745741 -0.29838192118386675
Ni 3.084044084163325 8.309126273545536 12.35670636737242 0.48932901122182176 0.0033812577674070796 -0.15386638313557371
Ni 0.16602975986144636 5.0667169864036765 10.280057244984887 -0.06400349943515428 -0.9477901292201936 -0.5541555207789037
Ni 8.653555639652813 2.3952850210889878 5.904339159061216 -0.4204270460437856 0.3974763507848832 -0.6235699068169841
Ni 3.4187874220074126 2.7724330476811896 11.407531774731458 0.4750323920934915 -0.4845773554694493 0.1437444642102234
Ni 1.4656981327505216 3.4528833287935563 12.786125421511416 -1.7047380694114125 -0.1853215163210615 -0.7888923543082994
Ni 3.1535769007131176 8.610344536952011 7.980921231299876 0.06770023156045114 -0.6890592467690456 0.20613896728704498
Ni 5.661895787642432 7.918323574743203 3.5113510586127514 0.7192550536261355 0.08812661773560307 0.1461574445270902
Ni 3.3343042344246316 8.423211195773636 3.559490347255883 -1.3932324663613942 0.40638702301095175 0.25549926288772773
Ni 3.609898467963657 4.566241990035709 9.48104236683308 -0.13153120997348314 -0.23404186434490012 -0.4288499800001582
Ni 7.290344565541163 5.956816773553194 11.419560027789819 -0.3387904069079004 0.132712631876094 0.6948329160280291
Ni 0.7928698226157006 -0.2808486093948016 -0.011687565815425736 -0.38140875579905925 0.7963125580317705 0.6582175787978406
Ni 4.7494701130836505 0.3047302414745888 1.4209503131241463 0.30839688221770756 -0.4422508267870964 0.2058180936125165
Ni 6.158048767657225 5.507000882909737 0.4418287681794693 -0.6776846863835168 0.2900949985847262 0.2805976006172522
Ni 8.114499625188806 -0.13873491277067304 11.309277936302655 0.4487138088036208 -0.5124802525273046 1.087553754405798
Ni 0.038851030857727314 4.861208280101117 5.617520368167241 -0.08586353273303923 0.5330349367502045 0.6167713958379121
Ni 8.12216508815481 8.544626330223362 2.570253290661976 -0.9294553354667476 0.925830851340283 0.22681577891010615
P 8.350751730833748 1.6711977782221517 3.613623375558604 1.1052048918286579 -1.30849096304794 0.34113062500530283
P 2.009583570099731 3.2880668141935145 1.568364595841789 -2.061788965191398 -0.8997344113635473 0.647869145683981
P 4.578320077664179 1.3805172611862009 8.081071501642136 0.6781824519555417 -2.339195055454546 1.8900531579745712
P 8.746601312463579 1.7057739090475372 12.60734797861584 0.3471012407664409 -0.8703400173618301 -0.4196310325050515
P 6.323961642799687 7.627570571059819 1.329671502344552 0.46883011993752155 0.24751984422667694 0.7167680255382236
P 1.9171812162849302 3.2009922289650152 5.913024871589837 -2.4970834152653185 1.5921018965702192 0.09022849456995428
P 6.856493858994753 3.958840127873619 6.2444546635631575 0.09071263329522442 1.224041279943292 -0.3901307090530894
P 2.3611619318100567 8.509887104441255 10.226415313718523 0.8689292530572326 -0.07349035587966699 -0.8719685541041886
