# total energy = -381164.04394925875 ev
CRYSTAL
PRIMVEC
9.31507737682180 0.00000000000000 0.00000000000000

0.00000000000000 9.31507737682180 0.00000000000000

0.00000000000000 0.00000000000000 13.63355732343773

PRIMCOORD
 96 1
Ni 1.7783600363332137 6.615353647350679 12.788358493214966 0.2157122127977769 0.12182915219437082 -1.5801287833687432
Ni 2.876700800057072 1.913717424490888 3.4634146694443397 -1.0793853596623926 1.7252729561399707 -0.9006844339816424
Ni 3.968055255810505 6.2861681308615145 4.086767532351708 0.8474309739741406 -0.3253635919790332 0.2379247443390741
Ni 6.831714947656115 7.609794038938366 9.82274621189534 1.1303286834794792 1.8423648507596724 0.20180665846027823
Ni 6.866003747174965 5.414221005688623 10.415192579849274 0.6282621700863309 -2.541371952770049 1.8074994063410545
Ni 7.564606598985653 3.877754896523429 7.951077046309121 1.3576059754070362 0.960147622344282 -0.06727548531820672
Ni 5.626073808583813 6.049071468499854 8.66528451560255 -1.1437210456259852 -0.05175013598909797 -2.3684398112522755
Ni 0.32196819460185044 7.63375241773828 2.646791651335386 3.147171937198122 -2.5551090998504837 -0.9633918403131925
Ni 0.6293284849914055 4.282336648629428 7.321015464734685 0.2243868577536394 0.3638959437262765 0.16163034335170873
Ni 8.252888345154698 1.4588249399205302 13.071677500616692 0.5290278724733405 0.6883025711086791 0.21692243105579417
Ni 1.7805397644199867 7.828884656890916 10.127047430901577 0.2160055756684796 -0.9470059427560013 4.176812107116587
Ni 3.885644766991363 7.122075221984302 -0.11258388718954539 2.315261941677716 -0.5133328303355869 -0.2138841584501026
Ni 5.400704828535173 4.496602056543737 6.607366900078889 0.253120478242906 -0.5663919149440955 2.7269570071651423
Ni 7.620329391357768 0.9948782002205007 4.018504782926543 -0.05530031523420153 0.5870661554639954 0.36528639631589993
Ni 7.897937324870604 7.933250782891782 5.336787562667614 -0.27783520738076667 1.8683795296558787 -1.422842318808027
Ni 8.357478033010617 3.429681048532207 0.9195248139592186 0.4263680941185689 -1.7732844510222427 0.4499397107909219
Ni 3.819591553900312 2.5810588769032443 1.2948357986845926 -0.17572744487472317 0.7990232720947142 -0.6374245533118893
Ni 0.10545878456744057 5.170547898757469 2.8911317178007834 1.137510288829583 0.10666452863879049 -1.9762023402688291
Ni 4.365976727651365 1.6725873336609687 12.732474550005668 0.3194235723455144 1.3143535924763041 -0.8265844695424345
Ni 2.1279083117868463 8.204291586912417 0.7545585211151508 -0.7474304876190869 1.8644547406801761 1.7857926107915825
Ni 0.3249890741682625 2.7731916611672447 3.731272511553649 0.029458157360117008 -0.6230911674083528 -0.7215402501158863
Ni 9.041204706382945 6.198811335999311 11.547254854884782 -0.42431763934744343 0.5255252586367206 -1.0218849514530788
Ni 8.133478369324182 3.5621135024195962 5.425583536971724 -1.2464319889336661 -1.788224874382159 0.9842311456560469
Ni 1.2349556873162093 1.7073325719672192 10.738048501317232 -1.1113940513585052 -0.2642800944041513 0.3129477348131836
P 6.35142024730529 8.812771065904613 6.845054138340982 2.2271088415795512 -1.7984120993278059 0.9075361667961532
Ni 9.09019269787157 9.25259175541344 9.8060861961552 0.2742490326914051 -0.15831953381092087 0.5780328416171335
P 3.8407926698212305 7.164151426120852 11.152944838510768 -0.18295353030951716 1.031102613396605 0.43210268260950097
Ni 5.5660753957337965 3.640443987384009 9.024378882266973 -0.5246608537538965 0.3023787010480857 0.4243369226211531
P 3.891205868135822 7.919846386665859 2.283648020571305 -0.6895192171245995 -0.5930830510820366 0.16301873905880312
P 3.551484999227255 5.501195882381777 7.181380593083651 0.26260527780488974 -0.00565051341755801 -0.5186020491543262
P 1.3489908635481445 4.555408139500134 11.491547898144068 -1.0212748286729059 -0.3267602152162437 -0.9602322116382882
Ni 6.943877793351977 0.6767953243579363 1.3990482259101091 0.15449424652755975 0.4548859990526037 -0.1472617333348625
Ni 4.157346941499865 7.77337611129656 6.062310987857675 -0.7868259586975739 -0.26995143375731573 0.4758934545422063
Ni 6.487355170255187 7.681985887966099 0.5897617626778318 -1.177980223919171 1.0556371082028593 0.2813553047188832
Ni 2.9048695937938285 9.0611296567146 4.361716011297134 0.3844524277213895 -1.374579112926265 -0.427375966557793
Ni 6.373823008197121 2.203164821244272 7.064882510415209 -0.07676516997619683 -0.8734747063360698 -0.7112913186943686
Ni 3.1526227045797115 4.395058398962924 12.497445834803253 0.16265544218211342 -0.44812116952494435 1.0546919706807707
Ni 5.654503424484798 6.570175522475259 2.6586665118696504 -0.2679457161811966 0.25713474160862165 -0.49003863569433664
Ni 1.689484883872105 2.246871163907255 8.510270451339286 -0.35733525978962327 0.48766113660109567 -0.7103662357769378
Ni 7.0721184624571105 0.46138323042874807 8.73641071978786 -0.9463212579841509 0.6696641300718854 -0.4214806841192805
Ni 1.8435469472359325 6.572653333035437 4.127137214328015 -1.9930086131928901 2.9475574012931562 0.4968330329083508
Ni 2.774160429205811 0.628183661991985 6.7776362664263745 -1.4614078377860509 -1.8458062723410533 1.3616199816624355
Ni 6.468072960256811 9.575433704265457 12.497349889507126 -1.2551783676677286 -0.5225486925069001 1.3565276547411929
Ni 3.193385482817822 2.862187909633174 10.643459480444045 1.1878110939666642 -0.015438188931941155 -0.5259502619892813
Ni 4.613459701195724 9.16753578464283 7.970109612236019 2.7468393479113664 0.3859981749419546 -0.677223430476382
Ni 3.703507060663718 4.06310630451747 5.104444384249031 -1.0224341390883294 -0.7180314656316795 0.022433903523483945
Ni 4.53899497330828 0.22375095112268845 0.8896932789255009 -0.19190225486237275 -0.29342534850953983 0.07907453483566382
Ni 0.4265811701510048 4.931970139106078 13.46181529387077 0.9336950845797081 -0.5069891475057462 1.0490784811487353
Ni 6.043184339650108 2.750155475019428 14.182580577579106 1.1625584900474624 -1.2388608614546277 -1.1818875293933775
Ni 0.5049312167777349 0.319428904531533 3.375982422456056 1.2669324228798633 1.8512050747591213 2.466054313873656
Ni 5.330562296512099 5.150613633348521 13.108555891623247 -1.6547565952869632 0.31864607074954154 1.1692433582668058
Ni 5.495019986135921 9.13973959399783 3.114627435805619 -0.20057535715633842 -1.490860338719213 0.2084269919902733
Ni 8.822999020773317 7.624670217376726 -0.034050333540125446 0.3209875743985246 -1.3372202126618327 0.8849431119869856
Ni 5.973731123346783 6.4615244609191995 5.518209871059087 -1.00695532672644 0.9282019226756207 0.49703357895493105
Ni 8.153151812568902 5.833399483914166 6.211803074301115 0.6951473619446545 -0.6812999145386008 1.637759289398018
Ni 7.472564320244619 4.045528753663879 2.9653123358307636 0.22759328050607902 -1.1592463949550937 -1.1574234828137422
P 7.897378420232969 6.024535554907718 8.661740128692221 -0.2741158495476505 -0.02051663189611305 -1.0668028950116917
Ni 5.5438682514651365 0.586937431242321 5.373216966948601 0.1894864463320285 0.5073102782905908 -1.7739596227123966
P 1.5845691683108991 8.525512712315297 8.231191667121745 -1.4655575982883664 0.16731890909605376 -2.5481928323466243
Ni 3.13148679419985 9.182914977255061 12.323849122846386 -0.7038993971056716 -1.05506658041137 -0.8109112817815518
P 8.840623147013376 2.187943984946038 9.16101429902937 -0.35055191831920274 -0.2705481868010502 0.39155921396949983
P 4.976281961793165 1.7455430190268009 9.542644632190926 -0.500792274666415 -1.0363224670346476 -0.05518230159909852
P 7.457781292579197 6.054427637943847 4.112384926417664 1.086478004843116 -0.07716651917967356 -1.1873274694620262
Ni 6.19169461694677 6.9869693409135625 12.112625087668535 -0.5129034561076521 0.7031918295156857 -1.2444915773778438
Ni 5.023844746455824 9.243649281211296 10.7126220663358 0.3998661911732984 -0.6211584691620141 -0.17896292109288534
Ni 5.8114717919643235 3.3986711562208103 11.848406646257953 0.026806835780198993 -0.6596244864476962 -1.302544258546202
Ni 1.3758462313864608 3.2700671991012142 1.4802635903124435 -0.1354876235180699 2.008529591646625 1.3801483794839262
Ni 8.67679888264554 8.322434712230963 7.458414717835182 -0.1422208284768454 -0.31881859177166383 1.2452677934222358
Ni 0.6253798237265208 6.466787479590253 8.715878426416644 -1.052715306570374 0.2785407180882235 -0.36892142196532596
Ni 5.458178855438542 2.018269852037632 3.0357706489741005 0.2665974296834183 1.6407096302755935 0.307544047299109
Ni 6.044712012326308 4.287962955314944 4.535420778150611 -1.4410583275954214 -0.033016564135336685 -0.6080790102702366
Ni 0.7035771030856309 9.147862341398111 12.277100475939214 0.05964676512835533 0.2909817720650537 -0.3710901474818706
Ni 7.64454859232191 8.094299154226036 2.7799776949758517 -2.4491822207086655 3.6967668351895364 2.117859840043036
Ni 3.475269036808558 7.1455957921514015 8.532180444642272 0.13753242186224057 0.675887485273778 0.2808040602011035
Ni 9.327280045155936 0.19068894728344588 1.2829078422097526 0.2679133202813644 1.2461625373223635 -1.8176933161549211
Ni 1.2911535486303136 6.873064575763742 6.558654634878162 0.8522245387080418 -0.4149642231570015 -0.6418990441434751
Ni 3.981850885282772 2.391459793663185 7.4871675669182665 0.6749773147546826 1.2138630538587094 0.3945566060349269
Ni 4.469569702236837 5.174804889080781 10.589743155721036 -0.2434161064709485 0.30868767398524904 0.5942505890275765
Ni 7.74252457529916 6.288534160494165 1.8079186396022204 1.249404698408745 -3.065181000046611 -0.48366718495035416
Ni 2.821816364641408 5.248170437847546 1.1798290598909036 0.1720350836248005 0.04541133825526373 0.7924700443572288
Ni 7.464590614081038 5.202098065551912 13.600223369842196 -0.45026418400987617 0.3583135645424926 -1.8610241177320723
Ni 3.066067006364784 0.24978286612822395 9.36538150581118 -1.2626505076750578 2.558309609065652 1.6875276190703972
Ni 7.272094541802576 1.724658615733875 10.819536797484279 -0.013184617011074066 0.3670422026647421 -0.7593328954836277
Ni 8.266572193699439 3.8013898928680296 11.721587457947868 0.24183025004106737 -0.8836935558506006 0.9678488476432815
Ni 1.189572630740324 2.2534755537086304 13.04596416125461 0.493892205112472 -0.1559050108321573 -0.21038874370233446
Ni 9.226435018372166 4.370364129056792 9.657098055393359 0.8970866893280549 -0.30258901728667886 0.6758746297579715
Ni 2.4131452936033866 5.139826773842184 9.106739069668727 0.33540426404448687 -2.050592839365262 0.44435527472460895
Ni 5.338526687598385 4.313840240037401 1.821102268496278 -0.4856407637369572 1.6851130960916336 1.148195279347255
P 8.004995508209406 8.30088893845017 11.732616509463847 0.2577862591496915 0.2650478258081113 -0.9973214031811017
Ni 0.6003986494397373 4.7661710783519355 4.957324847992348 1.1240374511541287 0.5093211380730325 2.6719055747169533
P 2.1194967969904535 1.3584829273106294 1.4440940766879553 -0.9577277000488796 -2.898059294563028 -0.5586791196808701
Ni 1.6107538505840544 2.611267672567365 5.894700144569868 0.6104261703461745 -0.1724657434043159 -0.21259475021471774
P 3.7526906687755153 1.6566492364111043 5.317578010272131 0.36989381318092424 1.8260743411297646 -0.2964317394360314
P 2.229731421686477 4.635610955000621 3.616505170246413 0.8091999555173999 -1.908161437539507 -2.0688623270984112
P 9.056937871932345 1.6188579678297483 6.035902743729467 -1.4406762616656543 0.1904128148010398 -1.0641173777597288
Ni 0.8655597766724623 9.157484816242711 5.800083178464799 -0.34534157776285684 -0.44921388836849085 -0.9560189448878892
