# total energy = -340887.10047671915 ev
CRYSTAL
PRIMVEC
9.15373805146922 0.00000000000000 0.00000000000000
0.00000000000000 9.15373805146922 0.00000000000000
0.00000000000000 0.00000000000000 13.39742091234959
PRIMCOORD
 96 1
Ni 6.51722348898378 2.2245597265346997 11.720747347441929 -0.6769259538406214 -0.2516395228220053 0.19451500989487144
Ni 4.87064908992089 0.684038705683188 6.147084768249806 0.6619675327585761 -0.30330095575203897 -1.9219479498006384
Ni 2.9670743415802043 1.9004258624541073 4.783079854938484 0.1059811294185207 0.40372953078344664 1.37083044451711
Ni 3.456451484801798 4.453540708543867 5.05424378308925 0.49149953651057937 0.8246258031541669 -0.2562644231885264
Ni 4.206005324401891 3.3242898149459497 2.8766939936449845 -1.0891707211839308 -1.3520238533335682 -0.39195799206981524
Ni 5.559412955181553 5.075866743092955 3.099332125685498 0.7467062078585527 -0.17526233231284655 -1.2080405336396614
Ni 5.590242744908281 3.467747197546092 0.2092324826774512 0.4175548667023131 -0.33904726011371283 2.1648650051479814
Ni 5.608916370514732 8.72704569727025 12.844669850125378 0.560806193326202 -1.0114262180136002 -0.13805435580398162
Ni 2.0404689007644428 5.883629202904527 11.805941187402338 2.235449243124447 -0.6632309728520319 -0.40894269955326995
Ni 0.9688224806672074 8.015855173805763 11.67390950062669 -0.2132501244105295 0.5214492887951343 -0.44266323173416666
Ni 0.746357354275695 0.2127877945331107 4.594698672147765 0.36882577692772606 1.7268516134810001 -0.03787466355858639
Ni 9.045806317119968 2.6708685322669066 1.4585904885032106 -0.04844678264747786 0.6562931080816181 0.2792099762411063
Ni 2.0284866576669707 1.9366014351975838 2.6111843294829953 -1.0102072580048345 -0.24899025812461634 1.6897444242160577
Ni 1.5329490487428568 7.03176425808387 0.4637219616102217 1.4082420523963488 0.9071191338633926 0.24674362818228476
Ni 7.790114839942688 3.884489429401419 4.277729438832941 0.14837553522433156 1.13049400541275 -0.34972042355684285
Ni 7.816038226078702 4.261083366202878 12.709476462229894 0.06054048058721831 -0.10742891760864079 0.1268566873159493
Ni 8.091300282751039 9.042767276089899 7.338865761789011 -0.22352888062871823 0.3733231505774474 0.4466772379895662
Ni 7.570205437212608 0.7516061076691943 0.7951037554727687 -1.8158881446253823 0.28278689495908715 0.280283154700627
Ni 2.1784523480152433 6.598517836538137 9.54840878106519 -0.8295857182626036 0.07256450163128793 -1.6650659476327712
Ni 0.17753034171528473 5.348501676947129 1.3712125666458903 -0.362633274963769 -0.6921581974093434 0.3469523738934025
Ni 6.727420775650898 2.299812606981086 7.239403990341947 1.4276525957124768 -0.37947400067019166 0.3357387645657701
Ni 3.8066185798749124 5.076242046352691 0.7820569326409679 -0.6287925886685043 -1.110871603196132 0.2552516656532959
Ni 6.317443156208888 6.063600846555714 5.090497162606086 0.16269606561206174 -1.1690602957217222 0.5765035494568006
Ni 5.421081665885143 3.064131426043535 9.307897975496934 0.7613010749535921 -1.1040075290864473 0.9455542979111392
P 0.005653348614972433 6.086457730447531 12.50040966221101 -0.2829951543151514 0.0337837813186644 0.35695345097017234
P 4.174516465536112 6.589483097090309 12.710548364954656 -1.44151135597244 2.2335201444225343 0.19374162206395665
P 2.3426704084954983 9.032890392742173 1.6616551824877077 0.6650250886379773 0.04357402793620883 -0.7892829048784987
P 6.524033870087309 8.072223892670724 5.741304137700226 1.1978111426021694 1.5058580976796259 1.2088766563877118
P 4.81694410882626 1.5427435484482008 13.102597473066867 -0.2683558071354217 -0.23663199366957957 -0.11673116884617316
P 4.225933012120148 6.522129892574495 8.093502672124036 -1.0562246052752133 -0.14693571745401146 1.3082125125755728
P 4.989208305045765 1.3661221729205244 3.9586566765159796 -0.41768419319132577 0.647491193519272 -0.32501675016257575
P 0.23385786875905554 5.829393305003439 3.8843411388451328 0.07979598638272063 -0.08787670650832609 -0.34539685648082447
Ni 0.9357408713820545 7.846886323281515 2.652648932067358 -1.2455058775749712 -0.5026624951059342 0.6023166538651626
Ni 1.95672135141473 6.721608151993989 4.82605940116886 0.6916090097740927 0.3805152974505124 0.5633122475775072
Ni 6.386654569547306 5.938359402659903 9.652440098543007 -1.657517445861552 1.1138011181381011 -0.6098690122911239
Ni 8.604577836001281 2.7137812562095727 10.474907123145856 0.2281177855509813 -0.4522699015859952 0.00806400795505708
Ni 2.1995425604648817 5.72182772926746 7.0204630530967504 1.383816572364133 -0.6411161432308636 0.9869184626802228
Ni 0.869392747303293 8.830116787627425 9.19711486083906 0.08289133747859273 0.7595103016017565 0.18623708615679538
Ni 1.6701818894741824 1.6650741036465357 11.540793095893022 -1.5143229406175274 -0.01792650257143364 -0.08199376536498783
Ni 4.178690570083436 7.385327389970707 1.3934387579865877 -0.8096144173469992 0.9211876961413167 0.6554130194695099
Ni 5.594837921405555 8.255747186682354 8.151366196411317 0.17200474460749732 0.48651648147369114 1.0667743557666014
Ni 7.446675742330721 0.9975194494300613 5.2849472737189025 -0.3836484437628554 0.13738021255509245 -0.14463200902149928
Ni 0.9397685161207008 7.66234696434718 7.149319308145496 -0.42670773684617475 0.30866581960837813 -0.03824901617886961
Ni 5.297021054196798 4.682420774555478 7.68809642946039 0.5096494679467287 1.1463286584521613 -1.0552118477399826
Ni 8.225887693188119 7.4754734022120415 10.037736494101352 1.5011781757054534 -0.4930694521008605 -1.277573190423161
Ni 4.635617711944802 0.6941453478557772 10.739814471344655 0.873300899762367 -0.29094166285573764 -0.11166506717717543
Ni 8.687007247072891 7.543632135675585 5.20488501930505 -1.5325006399678187 -0.2386204848545181 -0.45107948082231986
Ni 7.134670581156279 6.665129588272518 7.422465935956241 1.2510208938559293 -1.0381415225212574 -0.5710106446630295
Ni 2.354908956258157 5.5968151288227075 2.7594135557246298 0.35417794510756423 0.060578532914005355 -0.09818760151603091
Ni 3.9396681623208716 4.647096499449943 9.851338010970613 -1.3666061220231174 1.2668012966186377 -0.06223715156335088
Ni 1.233676737185362 3.851133207974995 4.322141545066949 -0.1118715267610267 -0.17659082131628295 -0.7005777889316063
Ni 0.607390795559143 0.488558799040605 0.18972586690914447 0.7892358536906473 -1.009184473167275 0.055000267495279476
Ni 0.9819123260678074 3.5466615732094295 8.346218156624195 0.41736691906122314 0.0610341323941852 0.8481112878706168
Ni 5.475885095544857 3.2237176950743467 5.317235253915781 0.19624433388115234 -0.36589420510322795 -1.2753841531916421
Ni 4.348181183676101 7.549792601378106 6.024016421765255 -0.471304292509627 -1.8403794448985271 -0.7000910791031749
Ni 8.164017577759687 7.593282010817442 0.5787093881509613 0.7863076243002586 -0.1007713030828071 -0.45093729881750083
P 0.17308803264331885 6.071317447725438 8.486836965057394 0.12355487663622591 0.15012645647716724 -0.4944894723768387
P 8.9388265806187 1.6132731000647207 8.52824847596111 -0.6016764491780024 0.056188374266109675 -0.3982571948149657
P 2.049174105642744 3.7408123570882594 10.590768731669641 -0.44083106362143437 0.07867087163934193 -0.19515161503760586
P 4.133178184536735 6.36215001280786 4.045739848008335 -0.8980408257112081 0.23757738830198438 -0.12609641211115702
P 6.781345446458545 4.143805674403935 10.623511652647228 0.7816960936701763 -0.40258179033224856 0.3097467113773827
P 6.374397714308562 8.205575548472083 10.67237247556983 -1.4578332330609152 0.6269740474025266 -0.2904953193469384
P 2.400933951135232 8.689259066631317 5.795871400918448 -0.29636077698877994 1.0160986837886048 1.0739024821709504
P 7.369692805394325 4.281313127276532 1.8430969164685003 -1.0355688766980746 0.348479094950574 -0.5652323474183555
Ni 2.619790673990439 1.7511833174111822 0.4260918598918115 0.6447326569375283 2.1098192291267472 0.5134547006254319
Ni 1.521946255615919 1.2593804336083587 7.220713888007022 0.16193733306916627 0.21161978789595812 -0.4490835334382137
Ni 6.982901604413659 1.052386955256073 9.58633729464378 -0.2887317996886124 -0.8919416547920058 -1.013587230220661
Ni 3.090265348154523 2.072232371771493 9.452590197358994 -0.5210852205874961 -0.16412277075625928 -0.5242055113840326
Ni 6.699675795644451 2.257000574156886 2.8154948472150605 -0.05993241468957421 0.5079610245007122 -0.35587795851780646
Ni 4.1376635161775 7.296279826294456 10.559338456727334 1.140312019944436 0.43161674411201795 0.4962326803201905
Ni 7.017841422521414 6.459371864555954 11.913255035342152 1.289795957741598 0.9491623269773716 -1.0703787852884081
Ni 7.823352062774561 4.363074315471049 8.453129240090144 -0.19540384025772797 -0.11412587001284215 -0.0035100700357875033
Ni 3.046245021908729 9.038281944449134 12.728086011670047 0.7372327211504788 -2.2890068646359287 -0.6631836645538642
Ni 0.19344960754478369 4.940785030801587 10.417124151753347 -0.1046122740954521 1.1785360964226412 0.4640792355160975
Ni 9.129141948257775 2.827589681290454 6.103114787563245 -0.5795857879265502 -0.41305569328037894 0.45878713387922276
Ni 3.647599842602728 2.866648681517279 11.923624389796556 0.6422466572908809 1.2509267914802262 -0.5104205417847983
Ni 1.1863885264584393 3.906833703962863 12.90021564794033 -0.09067972317475996 -0.8006867758400662 -0.26669127494880523
Ni 3.1662871425964694 8.783213033898281 7.797847917840889 0.3255286568019877 -0.14600214989614854 1.5354237271518847
Ni 5.5918080341135274 8.012074679994262 3.6870908992651534 -0.0019476106446740648 0.4597294431878341 -0.10754975945722123
Ni 3.2215299516822187 8.79871946614207 3.851102085265651 0.4389680422707666 -0.059690473882097195 -1.4904088530040913
Ni 4.074127420425357 2.6853405921119053 7.197375517494175 -2.110783135701913 1.6071243381209808 -1.0081886849129087
Ni 5.1193469987942475 4.95892773960158 11.95575126420389 0.3884031848390214 -1.1544885685551343 -1.553769319538608
Ni 7.865138876938015 9.237586282845824 3.198071667201017 0.08354696878472063 -1.23265113309949 -1.1655245146543218
Ni 4.995085004868971 0.68373022471116 1.7536154656090421 -0.7295824036940725 0.4635459887204469 0.31012569198335627
Ni 6.127155249783941 6.038812523936955 0.4645439672864272 -0.21308300270504596 -0.11273130365816068 2.7567316673244138
Ni 8.066081734444289 0.19601082344904094 11.6468464741044 0.10473697259877446 0.1080369835062849 0.6192995615764044
Ni 9.104362779377059 5.363193426505147 6.138443639537802 -0.5421752084885759 -0.4973724503515886 0.35146594549303983
Ni 7.641659516371408 6.495501668609219 2.75842220589464 -0.2781488819664435 -0.009112503824229469 0.3068930439786715
P 8.86259425020178 2.05527964891701 3.684197402669958 0.8109968995168227 -0.5482610096713396 0.36040721384672764
P 2.1100281561484704 3.852716804656326 1.5319814986317775 -0.13674540718457096 -0.8052885362781357 -0.17341602313272714
P 5.114532132583958 1.249311321761743 8.151366196411317 0.032081711025893134 -1.9227164525355467 3.2821407120982444
P 8.498806392921608 2.1260746589367585 12.729465479993035 0.8343538290752083 -0.05260888444496746 -0.41347246910282337
P 6.29554741481152 8.100710325458603 1.597763006325716 1.3841382173696097 -0.5710777504555391 0.028967333766627534
P 2.170241444991231 3.5842742828255596 6.525308070422808 -0.9828118967110171 -1.0703656726622857 -0.6493390453612882
P 7.090705177338739 4.24011215234779 6.360586554350222 0.5557220939350752 1.0385256453335534 -0.17446940409790596
P 2.5652710102100382 9.174333952972994 10.488184620176325 0.23328210336074015 -1.0316800831666297 -0.4788569080459043
