# total energy = -340874.3619817937 ev
CRYSTAL
PRIMVEC
9.16900908371164 0.00000000000000 0.00000000000000

0.00000000000000 9.16900908371164 0.00000000000000

0.00000000000000 0.00000000000000 13.41977161165375

PRIMCOORD
 96 1
Ni 5.1171872682146935 7.9215561895925 0.860215339248419 -2.4918257664108054 -0.10513677914035441 0.7964971632387507
Ni 6.645055920295495 5.658892322194875 4.316013011965414 0.5940379587961383 0.9838665632277765 -0.6343142898176817
Ni 8.204704357702893 2.4362240394827777 8.014207192122273 3.6274815185301525 -1.4978591386345494 -1.0642713868390896
Ni 4.981660145620227 1.1088174320053736 5.604015803100912 -0.4998263112087198 0.5220154457112494 2.330904276200663
Ni 4.0365095249477285 2.17208322710869 12.003810817532994 -0.5057689019453999 0.5187519444686293 -2.01234665139987
Ni 8.28806898787872 0.08274938966935937 7.0766347574198925 -0.43164605468805656 0.24099592706523013 0.6006942877703912
Ni 4.519331202884229 5.113455481536123 1.0167165700178968 -0.7687991831028501 -0.3033744893024517 -0.009152870143861656
Ni 2.588860532942631 6.2583162880708825 8.663804892356522 -0.5790111463700028 0.0028158721822403115 0.031258700903965514
Ni 7.15178120479473 6.6601939542176565 6.70883921476922 -0.4358775762709009 0.34603911805051374 -0.9112357271349275
Ni 4.5495705946923986 4.383849925334953 4.816731678643688 0.5008177285877116 -1.5671853358341976 -1.915439202147843
Ni 0.42648270190093485 2.6654584344482237 5.814397798582799 -2.21294977647035 -0.8567622786773954 2.6085790467441656
Ni 5.768837909572608 3.09388038176075 13.389979770134774 -0.8733440942954765 0.14114687868637626 0.26034476390548716
Ni 3.1451443112936412 4.465380753703129 10.81541005467917 -0.4396380717545976 -0.5908916998576726 0.21267908239840794
Ni 5.9003398371992795 3.757047298470714 2.426227985829271 -0.17335868753223047 -0.019419027956560104 1.2095664833658846
Ni 0.5052747472693827 1.820570927609058 0.16526313580643556 1.2426172431732663 2.6672025128143293 2.134283018596066
Ni 1.484774309600997 1.013313033862896 4.437878311092879 -0.08117512611843439 0.0303349035381155 -0.6120516217647395
Ni 0.5573125411651026 8.676853309118863 0.5408825938694511 0.11029004120651974 -1.000130847605439 1.1676063368840148
Ni 2.6686309115754607 0.7808172223825424 13.385913314626308 -0.35011843032620993 -0.9263116476314434 -1.1528006393297499
Ni 2.8086783556257875 2.235661135779959 9.764896517346259 -1.5139185060902571 -0.8673446821789321 0.9878923965577181
Ni 8.817139147404186 2.591739601780643 3.3786019518221075 0.4048836989925479 -0.4332617359146087 0.33060684265584356
Ni 6.490686484127412 6.171797518785896 1.8629867634200317 -1.1766147110302125 1.6319354836273894 2.4184598519241445
Ni 3.392019879648692 8.425457419307952 4.73382458201887 -0.7988294109163533 -0.08090696005871229 0.2759981541720279
Ni 5.004179231818184 6.133920342448859 8.411968890111774 0.2805757462403813 -0.9174989344358199 -0.9579254178819825
Ni 5.770570852280838 8.659863135370975 7.180583812886605 -0.29924966850080076 0.07294399645789373 -0.49889762874686333
P 2.695697826256393 7.438917891836764 6.656193515574265 0.4748917527505692 -0.549145212048506 0.5193127020681056
P 1.3347601527260857 1.915222607910978 11.621199990078308 0.9638155581141724 -1.3029916304962654 -0.7628558210352218
P 5.943305813552548 5.239639383920607 12.377296647192807 -0.5085598344269758 0.10150998102104454 -0.10687021689169336
P 7.299778179681224 2.9341012302600955 9.920472595103778 1.382013457717123 -1.1720504886982976 0.6966843674144712
P 3.862582592501044 4.067821690813373 8.921195480276644 0.8836513897587556 0.02903161134565968 -1.6407433117270065
P 0.21177935245931745 4.065556945580925 13.105212355028225 0.1876409084828575 0.546396188548459 -0.12074491799125657
P 4.785168281930394 8.577204518891094 3.1044632519927053 -0.7430321014410751 0.6328544174427037 -2.3297858463255037
P 1.2697518786448485 4.9510264864234115 6.3543020591878685 -1.8315528477458327 -0.5844001785960581 -1.1793053704884982
Ni 8.29226839401824 4.5727590185501485 6.936491955675568 1.74683782679494 0.7478197526377056 -0.1162295466194063
Ni 6.908041437530762 7.377265475063529 13.029658803652088 1.3626535651332725 -0.19179478275023099 -1.0125780722298559
Ni 7.726962310773586 2.9533561492404337 12.220580861611833 0.25371980238980174 1.3079476889499604 -1.304397766815173
Ni 2.4776771293447344 4.159117513807291 13.171264062338016 -0.819535533115453 0.09976728729832494 -0.23815228696884794
Ni 0.8368123605791735 8.419286676225205 5.843908254172427 1.2275210109617762 -1.0148396145705234 1.0974746130639357
Ni 4.581854675516099 8.632007685912752 11.826844358590126 -0.7647599800364699 0.24029658700536033 0.5696525879732383
Ni 2.7592482279005472 8.82810528221394 2.0244933562234935 0.021226513478944088 -0.5372600305751457 1.2772859982000455
Ni 1.9974502809660606 3.3874903891837933 4.57810180011674 1.5276528249572143 2.7431865816501273 -3.051077984986326
Ni 0.35609588711785645 3.3529965771818735 10.290052426913293 -0.2065346600635669 0.42014319625477964 0.14051721552217736
Ni 4.263130752337271 6.438643188826269 3.3340084763645486 1.4797567726068839 0.08769570084577155 -0.10481950501025174
Ni 1.7209313063903267 3.8763269370493902 8.180692556833508 0.3894257125662648 -1.442675037263238 -0.3402484795106656
Ni 6.472247606951479 3.5118129827335105 7.886396707534402 -4.131169112466492 0.5763130307125494 1.6291640915298395
Ni 3.6852539577011667 1.4440730784801774 3.6939801036028754 0.6841276137953831 0.4915784693776308 0.027151363603811304
Ni 8.203264823283888 0.26193016429496413 4.392680597939698 2.098829562884463 -0.021271507784266595 0.4844040631163787
Ni 1.750739754773698 8.755312519459222 11.003581959567688 -0.43862222889557356 0.7700166004497191 1.079093796563903
Ni 1.0190069884756532 4.112328060685069 1.8183786175480108 -0.5839864880974072 1.0058482097051904 0.24760031975562521
Ni 4.012220820005387 8.444583972161755 8.746604711575591 0.4291698252334222 -0.11168846421594313 1.2949631037648344
Ni 5.754983536915802 6.617081273719775 10.640375505940664 -0.39569097674968623 -0.07224362795675945 0.32963368010929683
Ni 2.2453344403153195 2.1941713698818495 2.045025518162861 -0.45344515284101905 -0.35976752338019974 0.4340778040580008
Ni 6.696925004424911 8.80659478701019 10.810176384320132 0.3335031903670321 0.050525776663693636 -0.5824186293896549
Ni 0.11429628216638402 6.810409829291409 7.647269868717582 1.1005098003458336 -0.03263861197062765 -0.42660977781572984
Ni 6.12234905304258 8.391880508209857 4.5960574705163575 0.9208331410153754 -3.2047003704318935 2.34824148192753
Ni 1.593170334451263 8.614797455947944 8.644895645016925 -1.1069059336801645 -0.1612415925537223 0.5011524862193111
Ni 6.999282246470451 8.507079937766509 2.3242108405669195 0.6427341384502608 0.6777296806888393 -1.1316769699772575
P 0.5458494460654746 5.305509544851439 9.180184226472136 -1.3825996692378963 1.112005459690259 1.5569289482135122
P 8.047877627112557 4.386041318495097 2.4714256989824515 -0.41367147248750696 0.5618228075161744 1.5452607678469645
P 5.915285321931637 4.866891659488372 6.5523379839997435 -1.0537221505683338 1.8844119005283935 -1.9961240188934202
P 4.62191407600424 0.9626542589265299 10.215988839505874 0.21640101133468537 -0.17704050725919188 -0.21786576880566993
P 8.24000504250018 7.283448174584091 4.9393754266385 0.3202761501537968 -0.30956519149419587 -0.6800058783175257
P 0.24960609924664384 0.6527793463705235 2.4835572148409684 0.03717429505745211 0.2887143161871157 -0.4043237127240198
P 3.1589345008871788 2.234597530731522 5.7422936284068555 0.9889105534095872 -0.9717643806476038 0.9691781079776663
P 2.560757520240375 7.59306727178793 0.14478415411949005 0.9763633128721959 0.08283785853283798 0.6363778572149299
Ni 6.243517507483136 1.2370093473692352 8.764305483523945 1.685325983433388 -1.0474789978720993 1.443518616210456
Ni 2.216250343645971 6.394796987605327 2.2391563620253425 -0.5683598373037436 -0.21812879265906948 -0.9001270188162755
Ni 2.184278009129571 6.1910707757843095 4.7333147851163435 -0.18014665698834134 0.1434629284140626 -0.30373521507598017
Ni 0.8243250871699722 7.948045456704023 3.615890404326758 0.6171740305929694 0.10829486515336187 -0.8036581997635642
Ni 4.943104462614358 6.730731140748962 5.764718273811719 -1.3799300928255331 -0.11376925800437179 0.6229034768775787
Ni 3.3330906585598186 5.118406746416781 6.483037696787698 0.3481265967071618 -0.042823522923429475 2.8024016585577023
Ni 4.331889151115155 1.9220535196444788 8.06979155871399 -1.2242328271288077 1.039564628121029 -1.7141416221134997
Ni 5.686133448047536 4.064401650442104 10.485927216294852 -1.0631221037259948 0.5620781180600901 0.43365177226417573
Ni 8.836632460619517 6.636684615043567 2.2213079690314728 -0.7640390427100454 -1.4095286324182563 -0.14556454813809772
Ni 1.4398278272954648 6.209472976924091 11.133780971010024 -0.020558026657009756 0.049242024855263584 -0.4232963971717807
Ni 7.322315603897259 2.1384421329473278 1.4994584775757647 0.7636351224034074 -1.2677767731580294 -0.4538907250188699
Ni 9.132855635618464 4.854256765033655 4.549557758079744 -0.4837872554679861 1.047399036563783 -0.9223374934750437
Ni 3.8785458372366484 6.057285764907113 12.27208593608243 -0.1313687162536899 1.310444230119569 1.218170937205444
Ni 2.792210815393079 0.4353271280192369 7.049795234163108 0.3610494754164169 1.3187758899137159 -2.234453711980397
Ni 0.8239656620156727 6.154981556209734 0.21528649841645048 0.030257256222644666 0.13943735219443726 -1.0797368294645404
Ni 8.24999926235188 0.793144038133574 12.379470619235775 -1.617596441296898 -2.9261426830628054 -1.167340484817138
Ni 8.186017917282927 5.6181635840469415 11.420896569331271 -0.2786877851890491 -0.2846226626162453 0.6133266318224211
Ni 8.882028224367925 7.646430904390582 9.870751809792026 -0.13188062289310187 -0.1286852558842558 1.1618151841235347
Ni 4.912580831526003 1.1903390913645104 1.644713918759821 0.9090703440524924 -0.1365183787754294 -0.08090310340397035
Ni 7.3869479486079275 4.8915929698374345 0.4625719214755117 2.2568189670494747 -1.1717946639337498 -1.7907946919918643
Ni 7.121596827040791 3.543363542834151 5.203811481103619 -0.741400222264607 -1.4111540838368213 -0.4253409384056352
Ni 7.403571361994286 5.777218383833573 8.960904624619525 0.40380820654018196 -0.6123089891911841 0.9381906584572164
Ni 6.30517909326541 1.2352397286248518 3.8664913410540525 -0.5218056436932884 3.9291153709924145 -2.9783281068171092
Ni 8.494958507817936 0.9662026654243351 9.868134974612506 1.1646174294590201 0.06843428151299827 0.40356240907796304
P 3.289033570130997 4.46984606110476 2.871844575791239 -0.2625129752013995 -0.18132962155284899 0.08076914892926734
P 3.718656657627535 2.645213262491754 0.6173979742937 0.5958662702541286 0.962081091921569 0.40150912609336015
P 3.34192041426366 7.194453772858775 10.524080379803939 0.42388389424413453 0.25653001814508725 -0.5463877039080267
P 8.965832966977587 7.7878536997966465 12.111477906164717 -0.10144647477296077 -0.8031568346471136 -1.0403747827271503
P 7.242215140939051 7.896680668071711 8.490703170723279 -0.4893686062105056 0.44305146831152087 1.6615553633763513
P 7.104505794193481 1.5235683868418597 5.967396467899663 0.11541399269664639 0.2495132205076219 0.2820639007501336
P 0.8699454916398166 1.386711757936846 7.896931898919359 1.001682508363275 -0.13326799015893176 0.013275376952667459
P 6.285924174285072 0.4570613470435196 13.418536648784423 0.33890919187395185 0.02772394827782967 -0.300559902671792
