# total energy = -340872.9325037165 ev
CRYSTAL
PRIMVEC
9.23680987285470 0.00000000000000 0.00000000000000
0.00000000000000 9.23680987285470 0.00000000000000
0.00000000000000 0.00000000000000 13.51900491997237
PRIMCOORD
 96 1
Ni 6.805681510798844 1.605560764888812 2.709235770871734 0.10743405981496336 -1.1779817665810681 1.0274578175551659
Ni 8.533860926686373 2.3745344232160575 11.142012745085824 0.218677723184004 -1.546265297852079 -0.5768269942344905
Ni 8.522314914351277 3.164300140556344 1.8020018477151707 0.25089416001554854 0.7268734894033418 0.6801912548554543
Ni 3.4357422721495112 4.646845071622112 2.902570514539459 -0.5301157062208806 -4.270456055125994 0.7116489591441034
Ni 3.3738002251741896 2.7266231417674014 7.180389329355134 -0.03333203849322647 0.7182916612716017 -1.126961309669143
Ni 7.55919274940693 4.479418655953355 10.73030503724098 0.7693761386522427 1.2814966938472834 -0.9988596942024993
Ni 1.7564994749430518 2.80236498268563 1.6801147520580055 0.3989220820924742 1.668744682035939 0.28952781322734655
Ni 1.5664798223369798 5.975024436172583 12.114758742231722 -0.3606648383834885 -0.14038866036411304 -1.3618516380572674
Ni 5.639755948391006 0.07613532901860823 0.8973154367202228 -0.32314370150957894 -0.6479046269076068 -0.5980049138636861
Ni 0.22709620741653147 7.702474144080534 2.25359132952741 0.64144113067045 0.020290117707603767 -3.1473843103192443
Ni 4.042120366369004 6.354407927884093 11.845825328198723 -0.0285569857020863 2.2089756223139503 0.9882736911565367
Ni 1.8460688202337907 1.110615544917795 3.6220930638759827 -0.33525462584050003 0.15869440065183638 -1.2786839069888365
Ni 3.1844271492588825 4.876102692547773 8.194220656794236 -0.030358814797515458 1.135714630381741 0.16109555389416128
Ni 9.191863551258546 3.2574626048857644 6.383768975411749 0.059805916414038936 0.47977016388879307 -0.5381599166815957
Ni 8.224206112668973 3.778418681445285 12.97401298020955 -0.3688113787500229 0.6698590196915108 0.4427254524306698
Ni 1.903004516260615 6.302376977897218 3.5097632953893165 -1.4636629523688147 0.6938255578094373 -0.3333448104122969
Ni 3.590338758911509 7.9550177626836165 9.854448557206274 -0.9651882700919828 -0.4834332145626771 0.15766210273258008
Ni 6.538820836900243 3.189886103890916 5.995732440215824 -0.1335541539407829 0.9584211265714784 1.0798885245510563
Ni 7.497740253354616 7.638499998934235 13.165509598713525 -0.12548808910319678 -0.1448063298158345 -0.768824894134463
Ni 2.3887406367931594 0.6387568075310489 1.2860050143738204 0.6029861691283616 -0.5641509414287188 -0.6095823342886405
Ni 1.6551809075001194 1.9356381655245294 5.637722926539043 0.38500032980505955 0.12238348203594407 1.380629689995719
Ni 8.909023196288173 7.607510501826838 7.432857206117298 -1.107742056428215 -0.30915612898123535 0.9793681611367906
Ni 6.41570339816865 8.428533583760697 7.182701302865113 0.7955124307279784 -0.06071968647755994 0.043894387390105045
Ni 4.236315057035447 5.308265315845473 0.8941675319171823 0.21568932997964144 0.3771330112418408 -1.4507362170048177
P 3.117903644588995 5.241871126513738 10.37409208308354 -1.0180066994445953 0.13112831810810965 -1.044719175738775
P 7.528184778679796 0.6814484190603122 8.615256618924851 -1.3860752864913226 0.20209976422066483 0.23703437131432084
P 7.56404207458767 7.610493991414227 5.435978067486434 -0.1710171838832474 -0.1541918847957925 0.3959691701117374
P 2.5068517245762547 8.377343183471815 2.8953251608789397 0.04957369716306946 -0.743513669063184 -1.5711556333358554
P 1.519131934953219 8.217749582571187 0.14052605428995707 0.5307798221674408 0.4322374084151524 -1.0301255941953162
P 8.327602962332222 6.200143966277346 9.270874299189087 0.46897924392087614 -0.09651381335803377 -0.06904620406538431
P 1.1074011350837043 5.754098417747927 5.507318568502524 -0.6275276059131515 -0.8747512590556483 0.11474190633028625
P 8.759359165995727 1.4312806362979427 4.170221064024425 -0.03833231992129527 1.1315558710183609 1.2277202714567759
Ni 5.388062116295787 1.4900821679181182 7.458056147118398 2.5395354137819424 0.12290978685305927 -0.5500543541263365
Ni 1.2005174153637848 4.331029305422704 10.115554698557062 -0.8596342009085517 -0.5283614425339352 0.05219725082884559
Ni 5.507521778319621 6.05802640964712 6.803425881829059 -0.4235031138659481 -0.5797282270416855 0.5464697220988717
Ni 7.218308281225563 1.729768147184838 0.45777629706187667 -0.9358550683455045 0.5743870173344301 -1.4467427795747083
Ni 6.175453973499978 3.8270504854007084 1.6081128954553616 -0.1353647247869604 0.47364682459987456 -1.895962067259838
Ni 5.822524705250638 3.379573231341737 3.7464140589333863 -0.36711187956041297 0.43381760841807865 1.2305369149699648
Ni 0.1618002747781111 1.6330310374364718 -0.020294194961151115 0.9906668739790616 -1.0155759785159153 -0.7475289608701642
Ni 0.8822021684140758 9.146843339961542 6.342617140087493 0.8107570155918746 0.17584828672330358 0.776842622232617
Ni 2.7619539395127948 8.431646388686238 4.934896834720054 0.008991919085965158 0.010764180495039527 1.3205453231093127
Ni 6.584182810162367 7.221513454249785 10.75389492596306 -0.23635148631468328 -0.9593248693326702 -0.4278112543229987
Ni 4.300981962921851 6.5471709130209845 3.0195778035433194 1.9170448560720663 3.4628404133765778 -0.7790856526305228
Ni 5.517081876533081 0.010214988033105919 9.547310773877923 1.1937817097278023 -0.16483496633193545 0.1822819581637893
Ni 0.5365976903901216 5.1610398033582 7.783391369567846 0.6328425903681617 -0.2903616219825515 0.4381841129168905
Ni 6.091131136214306 0.7117174449979992 4.991027080926382 -0.16846536399567114 1.7308589348681802 0.3195469852972561
Ni 6.472749935913892 2.2931396546585665 10.013946095284272 -0.930251863226114 0.10199720507010819 -0.0590312430315435
Ni 3.775961690020377 7.803220029311645 0.8539033540212496 -0.43995123211964227 -1.2029582340207476 1.5999180501805284
Ni 3.8433996388672043 3.0221363998767763 9.681202951320628 -0.35420751279391904 -0.6359636524956468 0.48775703874901166
Ni 4.682942524586554 2.2992267123616292 13.577136946312516 -0.24746379417776088 -0.724930506744358 0.9492224907913459
Ni 1.6593744191802264 8.375468111068596 11.26233143042739 0.10642901558921672 -0.18719842162880018 0.2703106168689474
Ni 8.420682295372831 5.709318363507491 0.8798800344132414 -0.7066911009181959 0.28979932172117834 0.292903928788431
Ni 5.146473354196243 7.907392771003813 5.001098898406533 0.15126391251572013 -0.2855464599820953 0.37994914053439727
Ni 3.994125902294478 8.139412198080029 7.291678109369668 0.36047817629397916 0.0553908180654788 -0.3037691536377091
Ni 1.3575062358816146 6.644231311114733 9.428762784988066 0.324173428325674 0.683153679917888 0.7384316265545863
Ni 8.187138794668382 5.654830422095707 6.280064539979892 -1.1940223649836985 -0.43716749872691807 -1.7253806853624285
P 1.836462537970991 8.555863007792132 8.441861376719343 -0.3726731756982743 0.4381375759496713 -0.05828459467350607
P 1.399736930598461 3.166212160199035 8.227802002750614 0.47026916637689337 -0.02823714046882234 -0.7849878770475707
P 7.705051214033728 8.880111981401093 1.3702188573030487 -1.13636486237123 -1.0990270451527202 -0.6044015614186494
P 9.322157991257635 0.4269983229004586 11.640322934891781 -1.1134367928201467 0.7758296075870702 0.02486822399658943
P 5.355271441264115 7.758707842557384 12.732090769273766 0.7614111181688952 0.6657372842136534 0.015250755511483412
P 6.249514715022215 3.1233164151716877 12.291344378565661 0.13094834088681964 -0.42672239213419416 -0.8524153145626093
P 4.463762263226966 4.236425898753864 5.329678088481648 1.155389740213165 0.8976330487498282 1.017202201265429
P 5.197146493132512 6.996301556046341 8.768196945677502 1.2631765553818568 -0.008323689374346955 0.4009915630269933
Ni 0.3645196172718016 1.184399182143991 8.49778933678956 0.49524537670625673 -1.346383110108023 -1.3164233305211392
Ni 1.648715140592466 1.9081217089275295 10.15989692800975 0.5729708537131939 -0.30041592089476005 1.5172483417944387
Ni 6.242614818050763 5.7849493627073025 4.487147094769974 -0.26828664446038314 -0.7605911933707611 -0.05931123616580754
Ni 8.365372277882788 6.157599220024985 3.5105742872957335 0.374406099228981 -1.0689338253117655 0.2703707806829215
Ni 6.535966662651007 0.2869923010060742 11.836889638332346 0.02281545523261877 0.40709998991757634 0.25939011330170164
Ni 3.5611873869678594 0.9065042151769854 8.561234212730417 -2.7927348248919 -0.8638184141932284 0.8383650071171302
Ni 3.5788481674356216 6.129879553610888 5.199342082838154 -0.2982250838910283 -0.6592344500981291 0.9480672941409802
Ni 8.343804326840829 3.1908097848777235 8.55921966449819 -0.9547886720252138 0.1527070727201499 0.9239194932501831
Ni 1.4954210440218665 3.926096797616094 4.282510190547671 -0.4810510874837457 0.312274620005559 -0.1252489765091972
Ni 8.650374046362291 8.424404729749666 9.889030249671364 0.18652864925528523 0.1144968801990157 0.06801313481517963
Ni 8.179232085421308 3.837506554171371 4.351713293760288 -0.16583769656483696 -0.7901635077112392 -0.7112805200610912
Ni -0.12113614301489066 0.8456151645266244 2.090565330079805 1.8002720353546802 1.4736668576590621 1.4017289338681793
Ni 6.993281119219479 8.263453317798431 3.3873081359252644 -0.6870453016628103 -0.12358675831542587 -0.7244561382111008
Ni 3.482499003701715 -0.16880085297712638 12.58931647546192 0.7310715866450893 1.1891316125503002 -1.0376530129206132
Ni 2.124632532235245 6.941167037943792 6.926245895282901 -1.0099295788634155 -0.5357086269276258 0.48693917083340654
Ni 1.8026558138538307 6.226219480534927 0.9027993307389 0.13574524805483076 -0.8979621499544728 1.54446809674234
Ni 6.257310582550873 5.356887882991028 12.742081302827078 0.22997617891595878 0.47637065128894085 0.4170069646186431
Ni 0.09598246238214445 8.519220583045472 4.2796707951942246 -0.21386281829386394 0.2846931108428645 1.3034045496639681
Ni 4.571195598802564 0.2143688070993087 3.0448183101888255 -0.6950578875546417 0.3778958575497943 0.10501208063703205
Ni 3.7522323254692878 2.4897636263203133 4.50742558715435 -0.7188135952133428 -1.5250110164589932 -0.5664762471277857
Ni 1.130271476317062 3.2026790855582017 12.249461911580841 1.1035449876277317 0.35467751045180207 -1.008738643879108
Ni 5.275446930384197 4.815647771961212 10.180391561745038 0.843298954083638 1.2638949216051198 -1.0936169298807423
Ni 8.026750828119098 1.1296064260065606 6.464977160409904 -0.34602626253470725 -0.05264385144796095 -0.4609861984130706
Ni 4.152260087235949 4.1619495007875615 12.147718450883978 -0.6456088888948945 -1.958055494156473 0.5994048795350064
P 0.6091075715355098 4.804378863922158 2.2800344688177394 0.47679642597244987 0.10403249033258212 0.9267698182147845
P 4.1542275277378495 2.384454757014372 2.2491160951463267 0.032547594918718135 0.09786749917245081 0.06993349176634407
P 8.598075228889241 6.008092215500297 12.00575514897855 -0.7986324644141988 -0.5557269790310816 1.057747983898275
P 3.633068241361231 0.9880615515881547 10.75918115225056 0.5731588013542838 0.014141838718020805 -0.14948085247336834
P 6.298137282167771 5.98219220063021 2.1526579370559764 0.32878161652164667 -0.4707880149948408 0.19100314008687105
P 2.299854815432658 4.295624613198367 13.468700493185246 2.000090459740336 0.43666227695572535 1.3307083796852437
P 5.6239887139462 3.585701880357735 8.385554707444536 0.10311074984926114 -0.27427705771586314 -1.018912241978
P 3.8002175527339457 0.7494710579717887 6.054703005456585 0.4214886545390805 0.9019355327799241 -0.20843393396880877
