# total energy = -340868.1468712421 ev
CRYSTAL
PRIMVEC
9.23471138639550 0.00000000000000 0.00000000000000

0.00000000000000 9.23471138639550 0.00000000000000

0.00000000000000 0.00000000000000 13.51593357291840

PRIMCOORD
 96 1
Ni 0.8125816270935132 7.1441664755553145 6.09052287204021 -0.42650616235833 0.047524270833208475 -0.27169078504592564
Ni 3.675849069628883 5.131405771869486 7.659506760938496 1.2981368735071257 -0.6937057444021214 0.5639907617017705
Ni 3.903687863152974 8.918865560472598 5.476628825779579 0.36611197754098884 0.6916041246780863 -1.9136985653076524
Ni 3.3405090035928784 2.1728998297599715 2.5363189585225228 -0.1586612334210558 -1.1575906045192257 -0.2785972823577718
Ni 5.806758667784038 7.362262648814817 6.23171052388972 -0.6054189469395702 -0.898376354673756 -1.2712760445605396
Ni 7.765754883147181 3.7120768414753087 10.090008858263094 -0.8704652300857847 -1.3268239570291729 0.8771966352723473
Ni 2.9618396728351226 8.921368167194592 10.303804426539452 0.05830002129247379 0.07338802597384779 -1.1690752081200575
Ni 1.0373628077554191 5.864928113325877 13.18609075669086 -0.3206507598843961 1.9178557820091355 0.9292324208226642
Ni 5.44285564015716 0.9627278722308689 1.5380863923283725 -0.3246652803604279 -1.1180940890865003 0.35623765585007033
Ni 6.0655614477983315 4.950451606860384 4.780842284500615 0.24692566228610377 0.04857122404048409 -0.09740187238994193
Ni 4.207011185627532 9.133572594739585 12.77543608038957 -0.8944289399902338 -1.6867745429544563 -0.7848150989151322
Ni 4.87273227781131 2.4430428350680224 4.922867524651545 -1.1424293233977552 -0.40072211141569053 -0.732488521597274
Ni 6.114071385475943 7.9841927407192825 3.3337455011456893 -0.1701761760391908 1.6697857217059433 1.491697747018844
Ni 4.125902717585943 1.6304713661567753 11.046842214366109 1.6187158996133217 0.2818600122694436 -0.827967208822574
Ni 2.2338673927806445 1.426227259624175 5.093669048220944 2.5772714948801356 -0.17122415768773094 -1.422776755677414
Ni 0.19264807973995285 8.014159378405147 8.316542607284505 1.4919594853206628 -0.04013106369293088 1.0303217693665223
Ni 6.536042276821996 2.7903049132003144 8.40068006058371 -0.3053318701391387 -0.3767046654551706 -1.1126199533458065
Ni 2.3441298439267877 4.0570764153755405 13.05653976436306 1.9564830074630302 -0.8752212567135313 -0.107981190567685
Ni 2.8446973618812845 8.600895986112128 2.7471806590661214 -0.03929802626867425 0.9593086713827543 0.7098322176503389
Ni 3.998629928499163 7.0105494399076145 10.83004721190782 -0.13962221451173373 -0.6704488307567098 2.4027074741858945
Ni 0.5635343959394196 2.9050092604102176 11.425018411548388 -1.0557083277604271 -0.9401153862837551 1.4036947993452986
Ni 2.28895244479796 3.9724587570964687 5.677908590032621 -0.3170280755301443 -0.4985626140049478 -0.19652329857415185
Ni 9.064912517329905 0.28404586294628525 12.256234762274044 -0.048953289970251175 0.6858556522300833 0.44584060102088374
Ni 5.581828808272596 0.5524398139622859 6.93771527305756 1.1950960576638514 0.0956478658133127 -1.94507270874356
P 2.429818728699406 6.928064999904485 8.534987852625527 0.17689575415121148 0.8321334243851216 -1.1652753747579931
P 2.5107240330956673 0.30765994283119336 0.6362235778243976 0.3075365910999413 0.7365871171466798 0.0561508361599549
P 6.996254107045451 5.125929588156784 0.9864647737740889 -0.22408783845598182 1.550210398542756 -1.964738305493287
P 8.366112689802284 2.1167343165379577 13.281175036588778 -0.2259315765329399 0.4050852734803927 -0.06788972186343792
P 0.9229465835334354 0.08719506616139018 10.204029836847804 -1.1423861288646453 1.279244407477997 0.12965353333479607
P 7.470197952750841 3.2435168323711077 3.9518828971803277 1.1987256839966387 0.9864410088231721 -0.663217088894961
P 6.770871746687597 6.168823987891813 10.96839611354943 -0.6315853209222929 -1.206104492959213 -1.3254340186601818
P 6.0358072084689445 2.3882625285186987 10.75500687256373 1.3128854925712097 1.2654792353731046 -1.9057101477855372
Ni 7.296188290527493 7.430322469999664 12.468367159072058 1.2160230376245058 1.9321318323121757 0.991687859044408
Ni 1.1484840870386304 0.36282256642217925 6.669193883027673 -0.8999336718585469 -0.35073600930555077 1.34007079473675
Ni 3.778511353497533 2.5065407089441427 7.114449175070533 -0.8918786627645544 -0.8285241097673086 0.8743432249839523
Ni 4.838157519260962 3.8989966298881296 11.869774105717966 -0.8837593760915295 0.07341630810862194 -1.3180888911490203
Ni 8.52365686204292 3.8451767332985383 7.407974469013595 0.48772798528328903 -0.39094600586553313 0.5355476758697293
Ni 3.464586582621319 4.426547973826632 3.747495652624883 0.9028421037545936 0.10935364543517939 -1.12266859583106
Ni 1.1227469470600457 2.1804538234817086 0.6370306915790184 0.31229647438242986 -1.1847265415040693 -0.5527257303109125
Ni 9.443969705956013 2.4124482370238702 5.422835709852325 -1.0750749052124968 0.25268647602928096 -0.12555853732981603
Ni 1.3003950854769935 5.251263087901798 7.316890665986406 1.1561389596743634 -0.7568142428268321 0.810957561638455
Ni 8.610758657621682 5.591737653337907 9.397073995787645 -0.7512187510169256 2.129185806578817 1.8190462306383897
Ni 4.6646003578840265 7.677378697429544 8.500738155907703 -0.8580169770201029 0.504499548314673 -0.6347575480026875
Ni 5.695637388500827 2.8159220019339326 2.699632054819357 0.5244651928033225 2.1000667777256736 0.5061437687863154
Ni 2.3237673058382415 1.297726253954277 12.01485326484662 -4.114846978267701 -0.25973772644910753 1.4004492958248076
Ni 2.776600601851832 6.17309965915485 2.10885064362812 0.7225681771597684 -0.6910078858549841 -1.2902759827018102
Ni 1.092918830041449 4.068490518358508 9.50529649924047 -1.8025338348056632 -1.2965561592835673 -1.3217881943774783
Ni 4.314115365559942 3.3308125568840468 9.396857903546703 -0.2640646359592355 0.5066119666719856 -0.20775104896917124
Ni 5.545268586824726 5.927613332620686 12.933152941728737 -0.37856254459951577 0.16933516819513417 0.29418768059686107
Ni 1.543471152400677 6.151453496216277 3.996107005412637 -0.6476035507274202 0.07963632087640478 0.6670904558074382
Ni 5.183988217164808 5.477652031775139 9.674353585873396 0.7286652911964419 0.17790285525948715 0.4316874494489533
Ni 8.95645083485826 1.6900906613493634 9.11798347884513 0.7140071749636349 -0.0038569118522449705 -1.0460859741793145
Ni 6.991193485334555 2.5518277324299627 5.933927104634807 0.5392960871685679 0.05098317591608639 1.3031242994193881
Ni 5.341587797672352 8.743129007263963 10.731069577788526 2.17592743360973 -0.3932666835789098 0.5676263015718288
Ni 9.128687432540564 7.620908438739539 10.859444067915652 -0.44559403222771643 -1.6053086250684803 -0.002750051941311393
Ni 4.094911026962286 2.031747269812836 13.447826480966796 -1.156003976758396 2.260421082578436 1.2237479170725893
P 0.11451134174684174 5.110442977556107 11.449860708016413 1.5186398228253264 1.0146480673850073 -1.7009513486754708
P 8.658262011783806 6.066595735447273 7.465931516198954 -1.9073068028486957 1.5736508889538834 -2.598320859351267
P 4.060086931210853 3.8995322431349035 1.344851908430314 -0.27632596982509183 0.10401886348582731 0.1032238783883577
P 5.241622049459873 3.8758821478765055 6.510813969427846 0.7283148498355586 1.4567258589293492 1.3820425111828456
P 0.5172620287737597 6.1946257708484564 1.96959581682257 -0.11347795201619812 1.458600964464875 0.2665580918050506
P 3.316092427308925 6.38244132624295 13.146407355931629 -0.6062450423852914 0.11716671372169499 -0.6649572115145193
P 2.6347462038572003 3.4134170481321413 10.994075998318877 1.2713259239618686 -0.6024254115288851 -0.0842491370580678
P 1.368159395905 2.835074792861663 7.429748994437171 -0.7604022172884065 0.8410880624752481 -1.2780465305151538
Ni 7.21374078936897 1.114223308667425 4.017827046040419 0.41378408680597123 -0.7595828067109048 -0.527285435860937
Ni 8.713716452247173 4.815477068673447 4.969091871319219 0.22668182443540313 0.4621321390920557 0.6832534387205459
Ni 8.327908689769487 3.4964925096489505 1.7082377922327208 -0.7786166834139042 -2.46824566509802 -0.5879143623969036
Ni 7.890635882045784 0.47996764778936274 1.3925870538423348 0.03055010487271513 3.302366552226816 -1.013647651144951
Ni 5.569999143287822 6.161537800793462 2.3195101039975063 -1.3282902571620543 -2.8470357523273098 -0.0104078255968853
Ni 7.723949345765391 7.658216671790663 1.560779771511499 -0.4217246818092866 -3.721824806599429 -0.5718182281659894
Ni 4.292570784444033 7.598551203042319 1.2113078270007085 0.8409865039003775 1.6966920591784846 -1.6398082015072468
Ni 7.987378716066469 8.35195587760739 5.991613574783435 0.6616325180166606 1.044451009679053 -1.171291499045086
Ni 6.0486988652361156 3.4957537327568495 0.24627404739536773 -1.1153013568327113 -1.7431925167328686 1.0856812199734334
Ni 1.8011750017879695 8.16780650253995 12.416466235459701 1.1423848433130648 -0.8953285689863677 -0.006072431446325025
Ni 6.321815447534875 1.2888424618267569 12.589700181946343 0.5307481975985568 0.38634424542746365 0.7137729474656417
Ni 5.149727438793602 0.9390500728390171 9.015343358283243 -0.9583185395553432 0.2958684107333937 0.8276157390204263
Ni 7.813516809221542 5.4360404233275235 2.791715977064228 1.0022514934928675 1.1155240143664789 2.6745833786594324
Ni 8.913112335425357 8.56377244728403 3.502802587778612 0.2129667888421558 -1.9084172623040554 1.073611433293093
Ni 0.3665515427850614 1.2788320349387818 2.745654161312817 1.3216233866648401 2.0088440375632497 0.5957089187406579
Ni 0.8859504837192245 8.254335746027333 1.1879800231614897 -0.9190336259127914 -0.2645523742289315 0.3032629034252519
Ni 7.143547749908179 8.169477985258329 8.046926903983193 -1.3531384265539859 -0.36603947243184054 2.1489578469994215
Ni 7.857520207857334 4.1907488592901485 12.47201671691904 -1.2556514506494054 -0.036321460138853574 1.3658381335088412
Ni 1.251284891574549 4.273288707560184 1.6475380358354343 1.173378977701734 -0.5871296617120791 1.4318175257234438
Ni 6.597323820021812 5.413239921495043 7.82490043765771 -0.38534434340803964 -0.18638698147109836 -0.9401665512366647
Ni 7.415519228024181 0.7292632926734255 10.536332606386157 0.040254219534356483 -0.5187234052235389 -0.6985044513423454
Ni 2.6180406113845556 5.462516340198211 9.975948170420434 1.6769647559528862 0.03023925850051566 0.7927875755976476
Ni 2.1921542025103657 2.046458164676806 9.164857025706738 1.0618560925293776 -2.215492854607178 0.5935918723976551
Ni 3.3043181705910576 6.800616751305832 6.035229115550876 -1.8283191712998834 -0.5977161789786739 1.6955031810767058
P 7.6865949391585096 6.9032513310410275 4.526202512273314 -0.30032516095316664 -1.19895605483989 -0.20700800015555962
P 1.8303289848925233 8.41682972344505 4.732563214601785 -0.52329251265146 0.25738799527000833 -0.4751995137989752
P 3.3829240319106537 0.2951875419502904 7.455794573768207 0.033660882587554924 0.18287511166309797 1.3174697695077828
P 5.090856155204268 0.672655436787266 3.64728795498024 -0.9469100406080851 0.16549085474837952 0.4307153153436711
P 4.376320379874884 6.487329175499055 4.376445971946541 1.524657489774316 -0.6074570604155216 -2.1516937578733457
P 6.055920409356407 8.747109167770159 0.19974495525970254 1.4337132000842598 -2.9987375237113967 0.28548372506495995
P 1.6813176857556587 2.908435338247338 3.6790368919183005 -1.040894402676046 1.2664837653782186 -0.2089820931627949
P 7.910130357286111 0.8339110394395975 7.2637190461196335 -0.10003339647551805 1.6922335091864986 0.4492779088372069
