# total energy = -340887.2838989978 ev
CRYSTAL
PRIMVEC
9.11121590368558 0.00000000000000 0.00000000000000
0.00000000000000 9.11121590368558 0.00000000000000
0.00000000000000 0.00000000000000 13.33518545086043
PRIMCOORD
 96 1
Ni 6.365195726425441 1.810398620749938 11.518159652080252 -0.2574854400798211 0.4736607085569456 0.18299569640136226
Ni 4.6122615450366995 0.2591685393418822 6.094859569622798 0.6601960426804501 -0.10875354995733529 0.02012685265686211
Ni 2.8967653502240105 1.4166938658368753 4.828123563571906 0.2293442017589147 -0.057473154515804245 -0.6594496514327288
Ni 3.5058592515614744 4.07100064687731 4.760488273781202 0.31466317484239353 1.022153631733433 -0.6500746379757322
Ni 5.2505204488151325 4.213600288615393 2.7666772303078377 0.6397462594665304 1.6975672626945864 -0.13270800389040371
Ni 7.071524524998151 6.263733224962575 2.7735315981105066 0.07139362125163834 -0.09632278039315023 -0.45284865690760073
Ni 5.10045872116666 4.714452943780189 11.368819532739598 -1.4023670816728107 0.01409221642700799 1.3569410881295276
Ni 5.2997119040412475 8.093812072289364 12.32557830338111 -0.749144127876084 -0.08950344347847165 0.6505461782955119
Ni 1.7885590359792407 6.189832151923307 0.6317890292912941 0.25890186081137345 0.8890239669245786 -0.7396423590332358
Ni 2.120945307159807 1.911469339924468 0.5203907467719225 0.5849905038818892 -0.6968005812773612 0.19967598527052063
Ni 0.6659014220244988 0.04455293515654315 4.852353931423051 0.13219763991288846 -0.8153554335958345 0.13480576695969687
Ni 8.573435594155983 2.4568758413674074 1.3649093585349412 1.9554154854304648 1.4623930845174555 0.44721819809470076
Ni 7.189059211498776 0.5748648850393596 4.798999561602972 -0.5245274134998257 0.5143810690944431 -0.03086583634092104
Ni 0.49819673569852163 7.524743742874166 2.705428902938601 1.3072658323915873 -0.15825037113588228 0.05772563684624251
Ni 7.850524382449077 3.7313800701865496 3.804741759238157 0.1833188840687359 0.45590132769099545 0.03808857934160537
Ni 7.9672117258609765 3.96251339787243 12.490587892011979 -1.8997305331633345 -1.1313386128012322 1.1935248565219896
Ni 8.071489593070252 8.916026427265287 7.082037046027951 -0.6507369541500794 0.2907688847232992 0.32706540516148835
Ni 7.068690936819725 0.9712009591354751 0.5101761625055775 -2.259979624165643 -0.7750065974651427 -1.0280838811749389
Ni 1.607018057023818 6.833330004906225 9.176314735054525 1.508259508032267 -0.9189153551673722 0.11284931729326371
Ni -0.2808240775492222 5.193611793630412 1.4001542754179153 1.1012657046752519 -3.310472983384034 1.155059867677572
Ni 6.419790132744181 1.7761586709926245 7.034817257945925 0.9871532043988482 0.4407541876369118 0.25251549766905546
Ni 3.625598852335987 4.499783583420404 0.5832982265761797 -0.8306979774901758 -0.6897603866011282 0.719606009207651
Ni 6.114245503922595 5.363371970287749 4.80518789951547 -0.36365374580848336 0.5234807174028662 0.1486377877467827
Ni 5.1200751692314554 2.9268414742657596 9.340617293323191 1.2638589261608622 -0.752993069308529 0.0768322757687064
P 0.22915528269058694 5.787854412875161 12.343541065740487 0.6625678853467364 0.6731826847481052 1.1416896170182531
P 3.951844163927296 6.219880942317032 12.809712788293192 0.3566423474876568 0.6849897046853622 -1.1524756518901635
P 2.186181613775658 8.346675650153847 1.4247582031253794 -0.828779163200908 0.642410693672571 0.8001630421261122
P 6.496907465034203 7.975830936204355 5.971135634088074 -1.1675016929853506 -0.8745849086811132 -0.7773396164736935
P 4.424242491499731 1.186471659751775 12.755224983201742 0.4348617334118769 -0.1255428536005322 -1.440223747509268
P 4.013654653324214 6.10643719180391 8.278190283909614 0.6675830791731406 1.609600310465299 -2.5429701504951043
P 4.701077678680738 1.1643951833648747 3.381936691517781 -0.3123288702822621 -0.10499511135616757 1.3715434114237346
P 0.10034546638030885 5.662438524527789 3.6838587008546653 -0.7099021516563258 -0.9781188621107219 0.11799409471899679
Ni 1.5899254157931841 1.1422184836018887 2.769944512368235 -0.6491217871441595 -0.6880907122081892 -0.5269563346562924
Ni 1.6688741025007747 6.466448669920127 5.216271387841811 0.4573120919955931 0.3804893293085834 -0.4438713931096549
Ni 6.1053347346669655 5.36410997878438 9.173167721045433 -0.693612927577999 1.920010366458293 -0.6948539990739517
Ni 8.618545224610603 2.542995055073137 10.284881853453205 0.45254989472025936 0.010391113426336942 1.4334740874902603
Ni 2.6851846920908695 4.916767495233397 6.837776278318032 -1.0032357117830075 1.02677416122458 1.158850959288888
Ni 0.6328322635241873 0.05968848718870116 9.274395153135297 0.9695069520719949 -0.9820503359546443 -0.0736245674646861
Ni 1.4238461704029988 1.2061336638966083 11.231106236146497 -0.8307370582582273 0.47664987309225654 1.594594838195402
Ni 4.032542204108384 7.027435350736404 1.654416424939597 0.2939938194185001 0.2843750653818135 -1.5388705480499045
Ni 5.753660019197887 7.835536432116245 8.047291114475135 -0.4665320679319643 0.06865076839917854 0.5469559177066708
Ni 5.480232426803796 2.8088603381807524 4.84237897213771 0.5940202181843253 -0.8025402841090372 -0.030352387039612242
Ni 0.8655345426066109 7.804877190249997 7.244245846858023 1.0329057280436147 -1.164061299845234 -1.1709809097832027
Ni 5.062501395278164 4.474764184262984 6.855125855840085 1.551956434699585 1.5826371516128936 0.8223349502374612
Ni 8.217697276347424 7.076699695690581 8.95212324284499 -0.10276056559869401 -0.03202026166033841 0.6108982248865865
Ni 4.758660563850037 0.238309321413624 10.197896163105133 0.1603707599129948 0.038322035508650126 0.6811315072815367
Ni 8.216403483674316 6.963875507865989 5.055702605893144 0.3330504191003296 1.18338031188882 -0.23297048565759235
Ni 7.171401674875659 6.005375583845388 6.984529723434072 0.4673982725870015 -0.9796700086479256 0.1378484104407626
Ni 2.179083976505581 5.47412791207857 3.012218123866853 1.1201142048403225 1.171059585539938 -1.1662763052186818
Ni 2.3007278214257245 5.599616690154005 11.471806340640569 0.2910990143692084 -0.26036019052445486 0.8724184971574136
Ni 1.2804994089522752 3.536318046675551 3.843947321719722 -1.023316798803599 -1.573945794486483 0.1359249681658046
Ni 3.491235749868955 2.8807751661303205 2.502493877675262 -0.5807738946973804 -1.3944228871250695 0.16141025692110267
Ni 1.3234952372930853 3.201899974325246 8.091857716455689 -1.2547826748912065 1.0548814609837573 0.7860178609739819
Ni 3.897304424904603 2.635865679840646 6.8310558453906784 -0.8768212542107997 -1.4317486201587213 0.7302123239685876
Ni 4.3317089817245105 6.936897197266892 5.928343896985839 0.4328981819276028 -1.0275190098104046 -0.10824138620760712
Ni 0.6419489462615924 7.845886773501106 11.137120398539633 0.49838777898998043 -1.1862329508462666 1.4975745175145951
P 0.3815503927586571 5.355399656280923 7.911258837235473 -0.26168122332872357 1.2900921488257782 0.16165065506668289
P 8.688218693422254 1.5035419768232288 8.397259299185954 -0.992565119443039 1.85325732930246 -2.036105187272048
P 1.795119111504857 3.4311746139455344 10.433435674852387 0.7889386341652026 -0.5027684245561793 0.057751090767539245
P 4.313340770252784 6.090027891773861 3.500526456832109 0.5453870305576543 -0.39662891518292337 2.244371485314741
P 6.796174466026415 3.8987439970338356 10.501738816776463 1.287368579247028 -1.460854279275426 0.03384548779453526
P 6.310619542538717 7.569516258336496 10.244796147505287 0.8281795819436963 -0.08805899772246124 0.588746885600528
P 2.6226999727093747 8.287862750823496 5.89437910595196 -1.0118170256941155 1.4365450131061002 0.3021352175787119
P 6.916852522049731 4.071838878750027 1.345093374839576 0.41189509731337454 0.08833282020913819 0.4740584582159964
Ni 5.375817891354404 2.996505831861401 0.20076108912387777 0.3509108443205182 0.01778123524282099 0.19792994911369138
Ni 1.8415954243606467 0.9982703818946501 7.160434504167069 0.7146514934158531 -0.4536071323401801 -0.36566537692187345
Ni 7.1527510157076915 0.5231924456943212 9.635378797999545 -0.009221775708584118 -0.5386862214987109 -0.6194841667833847
Ni 2.762866919773376 1.8244936719140055 9.397265367730089 1.5632276367380304 -1.0723207395061276 -0.5134577859492254
Ni 6.482812413870136 2.192240572420845 2.546393538644046 -0.1567259640715559 -1.2984184093032864 0.381320309850311
Ni 3.9805536055678754 6.794033330264582 10.349744600212738 1.3278395427778809 0.8286320961000826 0.11745981948208158
Ni 8.2208224234381 7.0930178835605515 14.001011570285899 0.5653714440993811 2.206719222179606 -1.6053790732950997
Ni 7.839053361495256 3.7549234523507065 8.450627335830044 -0.2097750213777355 0.1747008033824217 -1.60207237751937
Ni 2.708755407903049 8.862844259427755 12.64251650782045 0.5014376215598977 -0.8005577064613696 0.4821772306683889
Ni 0.44654525215030116 5.013264383972011 10.218445599689128 -2.109711499904289 -0.36939810449142835 -1.0756652304983283
Ni 9.036112254248096 1.954146275705005 6.252694986769126 -1.583451419984073 1.4764585614715862 -0.7209854060536809
Ni 3.4023649489288696 2.799803789468999 11.87790326044584 0.2558373629534368 0.8903051476298475 -0.7874684773775793
Ni 1.0598348684593573 3.4734142113576976 12.51148446592587 0.7603891046622839 0.5081880529098538 0.057729750611300576
Ni 3.269723866287312 8.498532287355856 8.31138153270443 0.46837889133271593 -0.5490526523346996 -0.8515023158300368
Ni 5.609192578178203 8.13909481584813 3.63373152374455 -0.3275724267048939 -0.18307925725410404 -0.17742822961591379
Ni 3.0417430193401302 8.187967378513973 3.634704601614183 -0.094900703234643 0.00941075179093863 0.0603677024547799
Ni 3.5358989307391924 4.4912281515890795 9.370408236303897 -1.6980555151849142 -0.9961309824174264 0.8980387688286792
Ni 7.424529478004369 5.834248724786881 11.437001495490772 -1.1654183280937607 2.755385180598848 -1.6055207410792864
Ni 0.1640283106668297 0.18341971169623128 0.28076576576677226 2.0605226968844645 -0.6861814110006182 0.07382819883505996
Ni 4.771334265316886 0.35926891401158123 1.2975337384004588 -0.6614882791293124 -0.32323291878927557 0.983543375560403
Ni 6.189167033154737 5.911584726261091 0.2864384088532288 -1.4357772817021401 -1.0845622758776419 -0.4219740788159313
Ni 7.651662981862825 8.455818906711288 11.934350888100568 -0.5453335516118994 0.45237583103624024 -0.37819333418555506
Ni 0.2135687254660428 4.650993324285859 5.754985701127021 -1.0759359676612115 -0.5166724362317812 1.2213670755452386
Ni 7.939695853517419 9.00967150539346 2.3774770605890314 -0.7893854918946341 0.4913540120716506 1.0681712361141282
P 8.709083378080116 1.6433900313269572 3.6683495889661875 0.3482206990828648 0.19520920774841866 -0.5974657535307646
P 1.6508976733173846 3.7355985631981614 1.6787661497204436 -0.08896608291776291 -0.21015940130034771 -1.4592175150029514
P 4.73776854554415 1.1201875632950271 8.237530571353204 -0.15877307640857172 -0.35133970432782075 -0.6123717241083196
P 8.473239551718203 1.7885134798992017 12.469558294344376 0.737671094239478 -0.2707307351255015 -1.020771663784242
P 6.282502329938644 7.93120420019815 1.0444241577037638 0.7573289776797215 0.2435379767607935 1.1772389748777725
P 1.8965633905357067 3.0458521777596483 5.972843075967936 0.1079325967179367 -0.5426935428858911 -0.3785535457384513
P 7.1512294426343885 3.742778201412308 6.101301199340313 -0.45539096371348026 0.2514014386692703 -0.16224972210326252
P 2.7149874796523847 8.636166316369689 10.396311114107004 -2.0862013325974913 0.14031538392401643 0.32822831512133793
