# total energy = -340856.12144233135 ev
CRYSTAL
PRIMVEC
9.34411745436401 0.00000000000000 0.00000000000000
0.00000000000000 9.34411745436401 0.00000000000000
0.00000000000000 0.00000000000000 13.67606041232944
PRIMCOORD
 96 1
Ni 1.1247607652742693 7.703000783480939 5.933085705278139 0.06894644526272642 -0.6610362791935582 -0.3613544082513454
Ni 6.945510555787194 4.669059278659159 1.832660827085975 -1.0756204933033218 3.236058315917885 -1.2310765895235185
Ni 3.853850437286876 3.503483408229013 11.983593328466263 -2.3013185921237462 0.505818781346729 -0.47309532297177875
Ni 7.693217492478603 2.9851465233373506 0.63420394165285 -1.284300996065298 -0.4382800150648065 -1.216743717840614
Ni 1.645826132470308 3.8038687528823925 4.463907310545995 -0.08553803107282042 0.024647880455667227 0.9396842122836074
Ni 3.5576325690299067 3.5873281743837016 9.489667995503211 -0.654463253961731 -1.6644406553439466 0.4723587019160703
Ni 5.80796703779927 2.727772151447822 12.509492407635088 1.6832379905561077 -0.14325595460957907 1.1295547814279323
Ni 1.420268480602702 4.902409924505703 1.7188756396994964 -0.7589184336540284 -1.792561811194616 0.687952643968428
Ni 0.7694320098341331 5.947278485319637 7.454054805559038 -0.6442760290160839 -0.35616180830681243 0.950708588418569
Ni 3.2644235066017364 2.5123341788118587 7.269017919146666 0.2940580969975323 -0.5356464062311227 -1.6820843365676386
Ni -0.16653833703574986 5.859854922169825 10.364553043166246 -0.9735317569606718 1.578684594723049 0.554381777857097
Ni 6.299682531988301 8.170823369271716 5.613038468621785 0.527489324341627 1.4797539443934062 -1.7267909354463937
Ni 7.473518602271422 8.535926071596707 7.55261842556939 -0.5047024083540985 0.9033599239312764 -1.9267109184069204
Ni 5.948128800010385 4.9230230476682175 5.6771512618923925 2.05741886114816 -0.7317814682279205 0.8708231276458357
Ni 5.442378441365281 8.141623002144401 13.011349072525968 -0.8783852562638098 -0.23072462704620914 -1.2101028154853288
Ni 4.9395995120790515 5.095543488715137 8.65102410748923 1.2990426731508469 0.6583245366893501 0.25322486503125424
Ni 8.026512818899151 8.294801120006186 1.2888453370595767 2.2051256524402407 -1.503572644079559 1.2450806171120945
Ni 8.762044370513157 3.735208177633908 3.0735166455879623 -0.9014861039473313 -1.6275394114422228 -0.5534137575168727
Ni 0.6013883354722359 8.34187678387416 11.219060439427281 2.0171170762053197 -0.8670616037208745 -0.26182134845101357
Ni 7.7960775377066 7.655943807847928 11.620452890812226 -1.0603663953577285 0.908999638715557 1.4803247292952117
Ni 8.637524660964804 8.517471439572244 9.324529407266075 3.720547482548902 0.6130597513142796 1.9603967406951401
Ni 3.88908710430675 4.762425700526722 6.601283546325925 -1.1264159786886343 -0.9393137163180663 -0.8982056334238467
Ni 8.750747332478943 3.522180987307976 9.067652142426523 -0.08770829925126183 2.9077091589479664 0.8861489593696287
Ni 4.316804737870187 9.153366666489108 10.967393454494989 1.51515160716641 0.35923607635676197 -0.7714294216368456
P 2.179122949448636 6.145551314143479 4.695743274948911 0.06917938720913892 0.5953461360846005 0.21453927553559823
P -0.054423877854827614 6.464933249635205 12.603337248317665 1.3541532409717454 5.559643689859631 -1.3213680761209243
P 5.8077427789797325 1.2321900839503481 6.901186734517299 -0.13912650582223782 -0.853476408837272 -1.5100551664801092
P 3.1027889624198797 8.788450846513731 0.37220610043385055 -1.2802787622797822 0.5813325954143279 0.49849782220528344
P 4.311899076192797 8.789254440617075 8.592463588825678 0.5752637635124287 -1.267126284058224 0.07276324790565533
P 5.203458701500215 5.5787464918792145 13.540312087816728 0.32769301144315827 0.13036521468984 -0.8761507105063362
P 7.0109847869747455 5.067352286275742 9.327470001037264 -0.30192875799486063 -1.7176617194516157 1.0049166990298564
P 5.502545213823772 5.407048333170598 3.7279160283519377 -0.02555959363665921 -1.0401804073281569 -0.9209892069772656
Ni 3.7513080920532245 4.109187791565603 0.925314315294846 -1.5057861067911098 2.550506825191782 -0.9085324692711514
Ni 2.218611189922248 0.8821510334160592 12.36214688790478 0.1726909720412445 -1.4766290256111796 0.39026980573411496
Ni 8.920436505929198 1.4849484618043909 1.637680865262346 0.5851015755384568 -1.3319332532312804 -0.37205508249830116
Ni 6.529005863200646 0.4783814385440138 9.954230418704958 0.20948602938240699 1.4088735153327607 -0.29862309066039533
Ni 4.410582300906903 1.1341235709899717 13.437385699354618 -0.04061494530788489 0.18142526659044883 -0.05768964140198452
Ni 3.2412594393669796 8.69006663355901 6.508355363568208 0.5486083657084294 0.5355798146592454 0.4682464795199097
Ni 8.467321561053106 5.841316193088035 5.949523876750259 -1.5205195563465426 -0.4597764943756856 -0.6165682786881704
Ni 1.2700150715123875 6.814851761053992 0.7701206712924636 -1.3851396620509306 2.7851796382524614 -0.8410633798848999
Ni 0.21538377675457512 2.0278697197878826 13.093200738422013 -0.8257722580537844 0.3711294853602382 -0.1392334637137473
Ni 4.852802004800449 6.39916935080575 11.160129893711494 1.0400356542201765 0.6057089673761632 0.7752549660305229
Ni 5.418849953548775 7.3540820926325905 7.485728560583507 -0.7450259919426524 -1.514523743774424 1.3232434387667662
Ni 0.40503105073194545 0.18997244926570012 7.5632856700854045 -0.37793056744247167 -1.0316577145691264 -0.011819361232431257
Ni 6.1911786398019375 3.164665708377346 3.1529201527040547 -0.976125228719461 -1.577394929377348 1.4247333651831526
Ni 6.036720377845289 7.1616306489992505 1.2038774079837031 1.4593578972355576 -1.1427841356340125 0.5244929607174644
Ni 3.29182980317275 5.201459060359337 3.1348402197905694 1.4041637685619173 0.09167294032596471 0.31560368437879194
Ni 9.2410425208109 1.3939180693070126 3.8716519154994358 -0.4340338381939428 0.09449806847958565 1.0261992625577163
Ni 4.340585516858672 0.06834100643064318 1.9689559934835588 -0.2658641510618195 0.15547126572884837 -1.4569089214744328
Ni 6.738314094769243 7.670576695822769 9.643851540405926 -3.4838949200540323 -3.667880234062174 -0.4468212197665983
Ni 8.936452323291187 4.670769252158134 12.978609153696947 0.12971858224477661 -5.189082675408353 0.9045590864457002
Ni 7.8040761022701135 7.351596557382714 3.948880112066011 -0.17435601844849327 0.586201750581171 -0.3984446282354235
Ni 4.454396867774097 6.814253737535225 5.423159460530892 -1.7449251831532593 -0.9222953273831987 -0.25781197018130436
Ni 1.1867776729939472 8.52940387759515 3.7079625998835635 -3.5929642014795737 -0.47425694738004776 3.045778427150283
Ni 4.898317201049138 2.3968128543974583 5.183022182158086 -0.48218083021281466 0.6495115663834105 1.0551200593571248
Ni 6.493096419722158 3.107881506446883 7.5331163179753355 0.6000170591977085 0.7705177084558537 -0.005120609056016988
P 8.383458106663456 1.6368931561587194 8.778293790812166 -0.5008197854702406 -3.7116594360306525 -1.8556826509145006
P 2.918336083350053 0.8713501680200708 4.332206646713692 -0.19318189290574472 -0.43786323924236203 0.7537577153886954
P 1.2691741009391209 2.813027879342102 2.480673505551864 -1.6473515610721434 0.8984586299749171 2.586745752919158
P 8.57456399737957 6.001194043183513 2.0616795400684476 0.44482270127933066 1.219554447816532 -0.8772657979473859
P 7.71031722746836 2.7539543686288583 11.689010680768423 -0.15973698298373779 3.6234009207028763 2.130613540164279
P 5.078593259605073 2.7334346866411514 1.22621171758617 3.0676487448608136 -3.0754646413608064 0.7045388304618834
P 6.581659965204621 8.876378992007503 2.8736683985568674 0.6352393727351124 1.1769129589969214 -0.27982524122760194
P 7.5786959886346414 6.245262391780466 7.759974670996261 -0.2626109342318445 2.331304082742243 -0.8269459666469112
Ni 4.659920731762995 1.5312859403913852 8.693406221146626 0.14720825438910776 -0.655816939776148 0.817183745053825
Ni 1.8591336463206622 0.7583910006188895 2.4414777359554 0.7154716753243032 -0.9681057008490939 -1.130464694836711
Ni 9.209309897846303 2.4794709176320926 6.774901921176832 -0.24898614435955826 0.8479184551335204 -0.006087343844660484
Ni 5.098776553363474 7.420789747327601 3.287683818246545 -0.43109815260438655 -0.8205418628927803 -0.043297377236054466
Ni 2.5806583658310362 5.5471166542069055 13.030317631011872 0.48363890281558 0.20908236618608508 -1.5394068801693488
Ni 7.0982588442448655 5.226912436376875 11.411510014237125 -0.7473096457705065 -0.6549489353488979 0.936267987513207
Ni 1.3245753734824337 1.047036396069466 5.647078154192377 1.0667401600945565 -0.25537327883282473 0.4178104343565449
Ni 2.736518245409796 7.586657176728234 2.759336580297765 0.788115881153591 -0.5671689023194361 0.49330959313612455
Ni 1.3501595671447026 2.5984402213968867 11.12164614586706 -0.09044035347044424 1.4832473022586454 -1.7335323679352854
Ni 3.4436904004697517 2.606130430083536 3.146669872521187 1.1382512807606655 0.21930172992124813 -0.9174701380804134
Ni 2.9945280172880144 7.849329663229343 12.24428673088495 -0.9178306067436257 -1.371344150928735 -0.6616466590840476
Ni 2.235580107267273 2.2834687093560704 0.8674190977959231 1.5801053863299754 -0.46041824172474255 -3.409797012497353
Ni 1.4254731540394747 4.710706010270822 9.400718537968794 2.130469558387247 -0.5841554095751036 -0.5216184673831469
Ni 2.96318784725761 6.338834384232606 7.9495929782094406 0.9029266930485997 1.3358238465349381 0.2901736743414615
Ni 8.63485224336531 1.2627453481123712 10.84869886778413 1.9583804815960595 -2.630263987916767 -0.2963186108969349
Ni 7.014059001625908 1.2915906387754181 4.946029199317549 0.7016391403165851 -0.16890142309182524 0.3208813878379635
Ni 4.868752413340074 0.2947564482829811 4.059588281566082 1.4383712676815614 0.4259747153348922 2.55143602187427
Ni 3.7613436742275406 6.791388682059852 1.0338378301279194 0.26208308675283254 -0.6880428896893892 -1.1945183307835106
Ni 2.374190745976584 9.084341670658874 9.425048751065146 -0.4052457103176569 0.22456657786461326 0.029844594165258274
Ni 0.27082616341480353 8.95176733184212 13.383775694132362 0.23580975487860034 0.20055684521357717 0.5179780424170821
Ni 1.4846868265149302 1.8135717294845695 8.707753179126556 -0.10300276351648711 1.8664422034238501 0.960719692797668
Ni 6.6088887235435 0.5555507671704611 0.818234466612547 -0.9189312960069722 1.5406217264130564 -0.45586224692294397
Ni 0.020070229936883493 5.612843176566438 3.9814294108984245 2.8340444822739648 1.3436119751207893 0.21098781073891407
Ni 6.057632512767188 2.9670936883645593 9.997583386168603 0.612494365729113 1.1542363433350122 0.6572323320664359
P 6.4548322586385245 0.444434259736482 12.135138094592415 -0.4278660188203341 0.027081943818456584 0.0010924617332303765
P 1.742920857212687 3.6607822818998064 12.996551728083466 -0.5035065882737845 -0.48567598785026683 -0.005438654517068053
P 3.221300404428117 1.6034879361650707 10.530867121382459 -0.43754030868530447 1.244464066574018 -0.20418827131857736
P 1.4727357002570625 7.187747457357921 9.275336366376967 -2.0508386368274807 -0.6968250067573935 0.3491596659573664
P 1.7809046947718992 3.930294662396818 7.078304481364743 -1.2103061897453864 0.6660553296747045 0.388624299710892
P 3.158180890845712 5.348348587156584 10.679567538147472 -0.6736899634018269 -0.5077152270384934 0.11475476184609269
P 8.734357750417722 8.963998781624412 5.611301397182115 -0.7722202929692571 0.604918610264384 -0.863907631472925
P 8.16018041946115 3.607913265193774 5.2373021606037105 -0.6654930294133312 0.4261701191751499 -0.13261133041153936
