# total energy = -340862.5758693849 ev
CRYSTAL
PRIMVEC
9.31426165745667 0.00000000000000 0.00000000000000

0.00000000000000 9.31426165745667 0.00000000000000

0.00000000000000 0.00000000000000 13.63236343568778

PRIMCOORD
 96 1
Ni 7.414655388269911 4.701485430754568 9.970001699028296 1.5658365351157872 0.17951802226540697 -0.2113004568833264
Ni 2.7698286122383213 5.689672725539981 5.544909536723607 -0.4388166042945668 0.6265361885341596 0.9203762559836149
Ni 3.3650099432918017 8.715624909629767 0.25058158606153025 -0.36691801838205196 -1.6171097314684666 -0.8794550922892208
Ni 2.7685059870582025 1.6282726821301123 6.005833234880827 0.21776935243712175 -0.7268930297873675 -2.30124994366934
Ni 6.744801620110707 7.28844714044871 3.285794940690698 0.5510156895983414 -0.5034772776977459 1.2433914023351296
Ni 0.48765283533600146 4.792625482778954 8.141642838505517 -0.3923685972446726 -0.412791898096031 0.3018768217110027
Ni 4.18766417680206 3.5044444429141897 7.104124418780218 -1.4930110665136287 -0.14652562649978637 0.03226863022571862
Ni 6.408798938789529 3.7065266676174184 0.4970527883766771 -1.7807347366527009 0.7612954185266373 1.4612669413328123
Ni 5.928462456122424 8.347143397301023 1.436701601904096 -1.430320372352627 -0.32764724580688737 -0.4690121540413407
Ni 2.059327405445042 2.0276496009550127 7.978013612348785 0.15645676957056925 0.2900844570617649 2.8110287381050814
Ni 7.0042410691743 0.8772879677109983 11.630219504963012 0.234381507072506 -0.2816995754321794 0.6664852181232716
Ni 0.2876467595950861 6.097385908704363 1.9659910504807117 1.0455537558249284 -0.7686107212411278 2.2354980940845115
Ni 5.953946276494292 3.352314604415027 5.674593867060444 0.12218602131315731 0.00026842317003824737 -1.0954151594317456
Ni 7.0087771146863975 7.914020907859428 13.087627642345433 1.6623238661112596 1.110943336974332 -3.224421503009905
Ni 5.900128471630019 2.9575855022442066 2.628633717129719 -0.4559866883159502 -0.6815002034748651 1.4045041826204714
Ni 0.8743875065765687 0.0287084178180444 4.59450181935425 -0.11198002731443296 1.5560054079579784 -2.5066821146973473
Ni 1.952297222735566 8.888665265941373 7.921711693853966 -0.44806614791729293 0.7185426009401432 1.4265704183918917
Ni 3.9912357090307475 7.48577909161771 4.977735259572236 0.8929078753600169 2.0575379032245276 -0.28913854820872786
Ni 1.8360366065507527 7.362309236775066 3.561237223007547 -0.134144222116298 0.31125517760210913 -0.5505066111724067
Ni 6.740395974264254 0.6235348754957324 2.9772534975282836 -1.852522250908648 -0.7572754987339667 1.7804084636615338
Ni 5.434760007726654 4.1864533227639225 11.10600074052764 -0.8337627324584286 0.3440287724887042 0.6512774000345816
Ni 3.324763017916495 1.3104141828573257 1.345909903272219 1.1840691104257284 2.129761733686945 -0.3697516311761051
Ni 3.0187429454319554 9.226214114726632 11.184740715775321 -0.27038826418441825 0.40257433413308086 -0.226177631105475
Ni 2.520243652192796 2.732003394939289 12.6714049495715 2.3255221859531434 1.3074257550082193 0.4663384638639194
P 7.183093524868963 5.427411055141345 12.288362451721065 0.13944043751823082 1.5012203417972982 0.0024348346937377425
P 6.120988248186203 7.206639978779811 5.540342754147465 -0.165543819473502 0.16322828396644792 -1.19279363478292
P 6.993157097594431 2.052239252191025 7.6106488800136765 -2.139329065660406 -0.3278691320097063 -0.15662620526889798
P 3.712906936972217 0.523204441321886 9.01024246277979 -0.6122585955692229 0.5604742639080799 0.746942749349391
P 1.1678687197831086 7.68756325994232 9.599637774383343 -0.24325129875831009 -0.8201906502009487 0.5377467404035771
P 0.6387860478191592 0.9055334667160011 6.5300110165641385 0.12176538883597093 -0.060100564836322305 0.4707468773442603
P 4.224157454659141 6.971892637832379 12.332544652720317 -1.6993066139831958 1.1868145343813497 -2.5392037414741364
P 1.1758696706966443 3.444795910143196 2.578643142452142 -2.2335430272406698 -1.3052788838685456 1.311698157131328
Ni 5.797448049196003 1.2053679379180273 0.659382675007869 -0.6497851317597712 -0.19818757365045223 0.39514487443822915
Ni 0.7878561513065679 2.2827951753141362 0.6100664528869165 -0.6639840489679726 0.754812639015771 0.37177406092277265
Ni 8.27031936571215 3.671374643464119 6.169980333995408 0.7796626081799153 -0.44444114957019587 0.04521104931899956
Ni 4.79474913447661 1.7355916069563753 11.395620260778708 -0.6710458409107604 0.31394043774375613 -1.3777783365898528
Ni 7.3666403685268635 3.389357423720187 12.315900066826849 1.4814999805502358 -2.410982826820809 -3.230810180145068
Ni 7.9245553379912215 4.179765682768674 2.2338813293043183 1.130894069064646 0.44210658789974827 1.7235690860749866
Ni 4.623254945629087 1.0287788478484978 4.801673356722388 -0.01391121076445346 -0.026107495720329228 -1.4040203010055177
Ni 2.4910713841355268 4.445026545477157 10.83988296573063 -0.22984093888967513 0.6596147162556834 -0.6730713559812215
Ni 3.5039507870371036 2.7483033531449785 3.109078245234073 -0.5691350249068714 0.1239927355045929 1.623811054748042
Ni 5.539647910214811 6.311874730167579 9.622335699041312 0.42377153703598636 -1.4464746135149862 -0.09419853496129582
Ni 8.205361703697017 9.28409293774958 7.6482198179647005 0.38294756104108885 0.4443606740412476 -1.1975969697088344
Ni 5.452540933563603 6.244104161079237 0.12353784895401607 1.466686569686487 -0.4839155535157343 1.3833776850545012
Ni 6.816810178332529 2.3814611508986356 9.749361739051345 -0.26766957970167454 0.14970710955156152 -0.22043558641537522
Ni 3.19428883817632 7.039169551043636 10.285768215093658 2.146736670978387 -1.045895198324747 -2.133652584100919
Ni 0.6872211407708211 2.430407596824865 4.706191927258187 -0.633693111293915 -0.29803765047057057 -0.35544524185576204
Ni 4.126981760967734 6.821020224680512 2.296139718240589 1.4413956563301822 -0.7012336773480504 0.6697016681780402
Ni 1.981357719650853 2.1019680961111273 10.56397776460074 0.7725733054333017 -0.33724491679765145 -1.9825341960241276
Ni 6.723537160348655 1.1314313274970176 5.717767333503309 1.739352317051172 -1.1624142511601143 -0.8415364628665765
Ni 7.5150910736024565 5.220979070162656 4.599014579211769 -0.9225424103969984 0.7620960600510617 0.06069294700468258
Ni 1.7762669883759457 3.7667806274074804 6.430699562634694 -0.5589660547936696 0.20582657825294873 -0.3841197269723191
Ni 4.256375486335417 8.027645587945836 7.744655027840478 -0.772559935696863 -0.6920823498660855 -1.0624896123483185
Ni 3.6675092248039123 5.124250461039175 13.100238221439538 -0.7687801569394567 -2.193856764394641 -0.8906445332471371
Ni 5.139898420916637 5.4990749856753895 4.257727917153398 -0.1196398578525359 -0.3434088795165183 -0.6807088179218213
Ni 9.042434414522937 4.379612484632265 0.21010459841897766 -0.09983979240747322 1.1004411518914272 -0.628522365726253
P 0.5965142019216143 6.181260836499928 5.928319947916397 -1.3067356709197302 -3.3630556425767564 0.27357128989809015
P 2.358874065956465 7.097719000918474 1.2990964233054778 -2.6217333247379364 -0.15943333570038992 -0.17723333999628832
P 3.819173350211484 3.9402960110725083 4.965670496221476 -0.1619584161150888 -1.3732043440659254 0.11415132393413889
P 1.81599231508867 0.8263473383265759 12.83706561623375 -0.6210718229854787 -2.437796090358911 0.008004872582347505
P 4.689982317392266 2.6502614331032115 13.252934367058076 -0.9067404103677352 1.4456994259118585 0.24859739356157187
P 7.752902806692558 1.4776890110950323 13.707614715509424 2.1724788129394974 0.845888312077369 -1.0352924831082362
P 1.5890037542471471 4.645637116810958 12.859490633020046 -0.9839113004227829 1.4460084725118452 -0.6892806187512323
P 8.912295548208707 7.9380423891237 3.3304270205364266 -0.05614826505679362 -0.04709978170128018 -1.3235720257507784
Ni 5.435086006890767 5.536210947598868 6.770513639897453 0.27423849116844384 0.20954002254879397 0.8214785157744369
Ni 6.585574314095694 7.697082435534443 7.536229790829778 0.15235406025610534 -0.653261777454462 -0.1854243604475129
Ni -0.11985964695662922 9.074363704082424 12.068159330624026 0.38489208636196937 -0.9798304454851899 0.2176207426743994
Ni 0.2788373307545481 7.326216472176752 0.16456717232319576 0.904160822566017 0.370833037165742 -1.3883013476083639
Ni 4.15935813509515 3.114614642466908 9.334133809441049 -0.24342793354549044 -0.7998259705016677 1.084974423714396
Ni 1.3464696904083118 0.1957084753317123 1.3278439610232156 -0.836440536400908 -2.1479975399686815 0.8515989893089011
Ni 2.0008990409740175 7.065985310857453 12.07140348802005 -1.0927188435465054 -0.458397868860604 2.240713062626548
Ni 5.042713412963398 8.878661748733995 12.372052025706177 1.1290634436138103 0.6570672672434813 -0.6440572281370586
Ni 8.60148794514261 0.6517198317988282 9.750602398727343 0.47337171656161703 -0.31526378454086995 1.5288895255777926
Ni 7.505040985085919 6.460064635911882 0.9583499884333525 0.8378651846625764 -1.9998395200717947 1.8917521429435484
Ni 9.216098826377273 6.371104121156141 10.98707158832801 -0.5117341183898994 0.4407433890036345 1.0095331147559452
Ni 8.334410801376922 9.005643080287236 1.2300237204130458 -1.0642665017430832 -1.4253843685035903 0.3535590805766427
Ni 4.97057445507593 0.9532029273450873 7.278714668260639 0.08118001121444084 0.8768006853855094 0.5506662766787226
Ni 2.514580580999048 4.079916795931533 1.2456213832766163 0.9317580154579953 -0.04336859679362208 -1.981736639823497
Ni 8.487658351295904 6.743143681504642 8.78871671650263 0.11909169865854974 1.6964534608051172 0.28730303766188586
Ni 5.621380557789056 8.493954792294216 9.539423865919158 0.14132531324576952 2.912386509818978 1.4047921461745356
Ni 2.4618525447690986 6.42362724362579 8.046693253391913 -2.026515486701084 0.5682541649638149 -1.1256549321528937
Ni 8.46909502746508 1.709949444133367 2.2717102723080838 1.9773657644493108 2.2795061242343455 0.2506442487882716
Ni 0.3710950941987534 4.694332077667728 4.226155363822068 0.33910331016262885 0.7052564253541983 0.2873536883941632
Ni 1.5608467407295465 7.858265736534138 5.970675622170429 2.20804256897672 0.4858816761031697 0.8082597030913177
Ni 8.183007475300641 8.097744722492136 5.390045962376805 -0.4341878472733039 -0.3515600478687429 0.19002663510621468
Ni 8.979628346990955 2.262229285189471 7.97309195639685 1.682816843858289 1.1686018680280648 1.0742742636880724
Ni 0.08326391221939722 2.1128657824543597 11.888470454216867 -0.995010752770054 -0.6533332541223457 1.8948261538831817
Ni 2.514524695428057 5.054393497300504 3.3174084767740877 1.1393347436328314 0.33073514070359167 0.24964640365137653
P 3.9576950521743535 5.229762419070064 8.719519202501653 0.9763360591786864 -1.5194173244212992 0.46983002195694573
P 7.388510255307984 8.141810495218488 10.695693535443096 1.1010247923090393 0.22431512397543948 0.46632380857590017
P 9.375083961584657 3.181174357517114 10.170792967041635 -0.296230936279135 0.9411610539394502 -2.6367138573071687
P 2.7196247409647962 0.5086658100285938 3.341538003475608 -2.488772324296462 1.5235825115425825 0.5453669759529962
P 7.711547484159264 5.3510713651677255 7.447878428797839 -1.309294689896158 -0.2823935161754104 0.2841660346948009
P 4.51795721562033 8.937388169583638 3.0611200424882 3.1716187573865766 -1.5067330440854116 0.005277446348855427
P 7.646897192784582 2.596220085954975 4.1482052379777254 -0.27248499881244687 0.22969824266422376 0.23647567059737334
P 5.886343364118921 5.096214532925388 2.1924114413504934 0.09085764351352095 1.5156226332655576 -0.03725477058640036
