# total energy = -381170.14336775464 ev
CRYSTAL
PRIMVEC
9.25022569342238 0.00000000000000 0.00000000000000
0.00000000000000 9.25022569342238 0.00000000000000
0.00000000000000 0.00000000000000 13.53864032946129
PRIMCOORD
 96 1
Ni 7.224222664163124 3.1626428717002377 2.547931156827991 -0.40408742834349765 -0.1537733092011352 -1.3291957996954593
Ni 5.080316384565288 8.177994922096808 0.959475021996763 0.591782072882426 -0.7562565705511491 -0.6000890500862246
Ni 8.856286212370142 4.837941974215186 4.134849904169708 -0.13517729136650267 -0.13114965826434832 -1.0700219161696216
Ni 3.755582330651522 5.661563558397782 8.490216860693325 0.6671871292863025 -1.3062775003363891 -1.1456095208979495
Ni 2.4668686551021284 6.837757490129962 11.646398449833852 0.27964397845473127 0.35958240395258717 -0.2734764161914387
Ni 2.499864209705549 6.77440269521019 4.110384907585709 1.830521578267841 0.2675981030337908 0.7017255293828044
Ni 1.6980269067371527 6.7782137881444795 8.322269765268683 -0.6943919718358686 0.8888905266705078 -0.10137062722970286
Ni 8.875239924560333 2.152684743662497 0.4646702810808651 -0.13426583529582684 0.9612421409600413 -0.4521094647487311
Ni 3.985348683551537 4.315516984773818 2.556257284862345 0.026968815279360007 -0.723365219139767 1.3091391381549002
Ni -0.08398464798300316 8.80594648482548 7.901529730435955 0.7297456687448142 -0.6279001587612218 -1.3203110956113195
Ni 6.032377350768767 9.08941964737715 11.921314228711951 -0.1960622997773333 -1.2038622338922558 -0.79432818061189
Ni 2.0535500762431385 2.6251677652586554 6.75472561538053 -0.7937031454333815 1.6797906554374553 -1.3956454466782608
Ni 2.516986377233144 1.6604432402516758 2.9682789820966087 -0.9671189114557924 0.41950736244299364 0.7887730551216158
Ni 3.238087711438251 -0.023149614508135484 4.63330200902733 0.2134794668125162 0.7615304173555788 -1.3282522048352674
Ni 6.9046828721192375 1.3046703146553364 4.079138570637323 0.09103530674196579 -0.8420591681392658 0.4708566634492471
Ni 2.9443930496332076 1.5960431698426456 8.666219052543157 0.3952999119588547 1.6316809444144222 1.219636723117693
Ni 5.637929232069849 5.49847283139669 0.8135194128390604 0.1913175860034963 0.6497121124299907 1.3717305877338763
Ni 2.573412753201987 1.5926390868333775 11.980166938847457 -1.9965389949436516 2.645861585244708 1.5348331447557375
Ni 1.5940543713453832 1.1755186652656666 1.020280454749811 -0.054408142437235324 -1.1956570723736442 -1.362544293248918
Ni 7.8221572449214865 0.3665198376620118 13.266419129373029 -1.2047793463898864 1.5417170163597642 1.9225218200262373
Ni 0.8545904143639232 6.5751805871379005 13.368635046929308 -0.8655821909618706 -1.3602776087019284 -0.30089028942801727
Ni 4.6953867479765234 2.07512160226926 11.418231460934658 1.0795455393893407 -2.1084038368364593 -0.349646632896114
Ni 6.4823453233308 3.488010305852382 4.6119238127155935 -0.012781982256016695 0.1238379550942835 1.7753549603980263
Ni 3.362438493757785 7.699166245760546 6.287344093185491 -0.3293313183775296 -1.4773468776138106 1.5452602536263322
P 5.213565883881875 2.8149638934764782 1.6488036814186275 0.47761095145394517 -0.4827127914568847 -0.8962104573706888
Ni 4.2303871588654145 3.503652437288991 7.118725691597638 -0.39297203515662643 1.1302361237656728 -0.5602845164947771
P 4.309152829582578 6.418555767809302 2.4625978259570775 0.17739197706133966 1.549222323597874 0.3989182254377323
Ni 5.514457221179338 6.803614907556028 6.499779223460059 -0.0715345177048768 -0.9914268920735376 0.5907168648427052
P 2.8621215434255207 5.393732527282721 6.310712013017047 -0.1071520097981703 0.011619072296167085 0.41003850372060996
P 8.61585434938946 5.874670255048636 11.505705294002162 -0.039409612145874066 2.2611898424236605 1.481544460634926
P 6.4312378270639385 3.3355295875785447 6.832112077465407 0.46979968293964247 0.5074660871421647 0.6175548109711558
Ni 7.416414600803231 5.542540906005799 5.630991562893352 -1.2609744055242154 0.45563598984475084 1.4393310604916696
Ni 6.311641660686697 6.7195026064601775 10.487044553749422 -0.050577455837235476 0.11518207919149841 0.3585997283243437
Ni 8.531270286789606 7.446940345179818 3.8926836238949005 0.8336737722890482 -0.05489022427997643 0.064690755310166
Ni 5.585193696102904 0.22077143355704723 9.665736450981548 -0.7338144394975492 -0.41459295586051176 0.2553167145632764
Ni 2.3977694701042176 4.048990235463937 12.148018756948739 -1.3641843999555021 0.011924005131095592 2.045172696790955
Ni 3.910190600806152 2.426574672525034 4.690312999252112 0.7992855246171653 0.1694773501999533 0.6992421008393184
Ni 7.159489585633622 0.8898504241865519 7.683286383526823 -0.9841385859422408 -1.2103912932600251 -1.4904075674525106
Ni 7.841628969743522 8.918244223229047 9.730830288308228 -0.8001635563467444 1.6499414332865068 0.6045170039505912
Ni 7.294635381191785 7.2100698190430705 13.615945377642849 0.07389376196567274 -0.6358602941485629 0.8451167240186671
Ni 9.089872908430015 0.5575471709030239 5.585758884885148 -0.32205638198267117 0.9144686322499284 -1.3941130691941346
Ni 4.697569801210728 4.912406290042921 4.975923888932701 -1.5845343686356066 0.5014875009612266 0.503225823808572
Ni 8.343897717670773 8.205939853539737 11.868337261857665 1.4325636598608489 -2.887881839809394 -2.512929638268956
Ni 8.581434260048464 6.803503904849204 9.569679333608883 0.34915786618515354 -0.6669187061162642 -0.7574978991574179
Ni 8.423098148989665 3.94555421315515 10.776283381898041 -1.4635431389614988 -1.4148778125453116 -0.38951955783165176
Ni 8.829543810251138 1.231797037625411 2.639263258980183 1.6194432646976495 -0.7500211311643987 1.4266087278289947
Ni 0.5442129707457964 5.200097555453902 6.401475226296766 1.4294150869295383 0.16184605890694062 -0.5944387937789827
Ni 3.337037374346237 -0.0269292566754911 10.835162917687695 0.4123265284238383 -0.3208826733895441 -0.1733561164290692
Ni 1.8905148505954565 0.4515127602319992 6.563465176455188 -0.04948293722147607 -0.27424723291919223 -0.5129456221994972
Ni 6.101735542082601 4.961367733977854 8.562539749301914 -0.035033851675681606 -0.061635513423609976 -0.9636939449346434
Ni 0.282442687423322 8.409250561313376 1.1880684462946713 -1.0095017472973775 1.390470844455857 -0.010499871090059336
Ni 0.05295106622269638 1.33930315918441 11.655252765748175 -0.9988568659890217 -0.691897487548789 -0.039013405148719905
Ni 4.833400113460972 0.9553077953780805 2.7619369754041188 -1.4256162820087384 -0.029576428105536158 0.6803090113802412
Ni 3.1441146698862057 5.606580217617651 0.7130610381408257 -0.8895674981328743 0.788133621765404 -0.7192830786505935
Ni 5.917831807552017 3.8076333499263875 10.602082208966428 0.0903303102551412 0.8262507403520996 -0.9005664203465394
Ni 0.9268911024311484 8.779574091729222 10.09369258678039 1.0834983533895015 -0.6776862290454135 -0.10288963497739054
P 3.9557849626340906 5.301165520017111 11.40308236652086 1.0328735892540988 1.334420281319192 -1.126673603225395
Ni 7.156048501722079 8.468359502697131 5.548189093738024 -0.8559361832316743 -0.5485888253244036 0.7437872344395449
P 5.3512924923736955 0.5938931572074136 5.412829617969225 -0.8962415677189404 -0.5524992161224034 -0.27563022930964787
Ni 0.7243296629285707 1.656844902505466 8.950679214163005 -1.434807204479387 1.1147215730698414 -0.1888588400503586
P 0.7092591954321052 2.88965946494343 4.609568705285811 -0.4378416419758072 -1.1813895067110365 -0.0636124346443227
P 1.002363692845868 2.8861628796784755 10.817237830580739 2.0895270545366142 1.5161957321602082 -1.4906934741240456
P 8.191925761803214 6.981552246594824 7.07048669027962 0.19804796274879438 -0.2852602962002442 0.3991822777323964
Ni 6.744894475646157 2.8845255897528226 12.64672801807717 1.5937314617538423 -1.58576078484354 1.4045998276580711
Ni 7.498871111522291 2.708891556880622 8.768246265497838 0.6765158628863962 1.409196188779502 0.5269784461434796
Ni 6.2795526281890055 5.5711426034641045 3.3075846561356146 0.6812376938420978 -0.17811008617428684 -0.27424517603666315
Ni 7.095561276728594 1.6726905389045852 10.803482745160137 -0.012058473826430846 -0.22232251902544292 -0.32139895090433035
Ni 7.992703653730922 4.344923451856597 0.5378330901710897 0.9562701416667467 1.261963508910362 0.5214760282680115
Ni 4.502861803215945 0.3169182781177282 7.5868370565900465 1.7567136911477552 -0.6547123938580595 -1.8266266140888088
Ni 3.931447619162939 7.488788365652449 9.736976138176047 1.0881908737691648 -0.6178615435782971 -0.7593303243804664
Ni 6.3698903310925665 7.603380159997044 8.385115797782179 0.47308478144881755 0.25863575163418034 -0.6505063261965119
Ni 3.4559952751592404 3.5472209997173927 10.20043093961719 -0.38494222287361446 0.39826902188950764 -1.9956005422897827
Ni 8.796252248429521 2.9455493278292906 6.434766788118384 -1.0109675332096266 -0.3407323611256196 0.3765213457997709
Ni 6.712083925554109 5.179488052886922 12.284176527184115 0.8529804430374601 1.4044509607850328 -0.39680220753599404
Ni 0.3343965793297165 3.5642321645381636 2.3104232901495627 0.9683512412009968 -0.6467489160366088 0.2857889150102046
Ni 2.9938077546210047 8.419166803122984 1.7260550902102012 -1.6493778474735528 -0.06921229732960338 0.7163221962500567
Ni 5.031151435667845 7.498242096183622 4.394723891250607 0.026540726603005906 0.46237973632648754 -1.2528664317051004
Ni 0.9170516374937617 7.538785834851072 5.813722368821831 -0.5754807646192411 0.22635889387834562 0.2596001724299787
Ni 1.1151701936557106 6.705710520137301 2.3732693226630577 -0.6766505886920476 -1.5955448608134972 -0.7018103757871268
Ni 1.1212383416287535 5.284450362414538 10.38175386121412 0.20275616685774112 0.28517365002370887 0.44613087856779293
Ni 1.9978174671919449 4.431265057314495 4.039361675669515 1.5020456659120711 0.17700425470461775 0.5456659952506537
Ni 4.90991797936495 7.026610095339781 12.41523094797326 -0.5458362022799309 -0.45892597344993225 0.09215476505838968
Ni 1.7466645927771816 4.353045149905882 8.464249627476974 0.20880365860340172 -1.4285879630425526 -1.1196938294734524
Ni 8.514943638660917 4.72930732513681 8.261440281929158 0.23224826277958707 0.731782753779501 0.0070857032021877965
Ni 4.821004811198964 3.960992839629248 12.836011683798489 -1.9528844914784949 -0.39161937778347394 0.95190595116078
Ni 5.155539218889654 1.050122607456874 13.571403691484624 -0.28193200315795963 2.3974076592395357 1.246375681774434
Ni 2.9468443594089035 2.998488368758748 0.8487192961954929 0.3971017410542838 0.29287821775681816 -0.2807328406435359
Ni 1.3039950481888243 8.834881190404257 12.457796785950018 0.634678615135636 -0.5287944163062958 1.3139283320134274
P 2.599220882538556 8.832383629500718 8.259721590018499 -0.4596181144209504 -2.6756820110402497 2.1657646341441157
Ni 6.777843779121733 7.779883714072698 2.4213991713193668 0.2160112320954344 -1.1331887786360935 0.4548489751670812
P 8.233542526636626 5.927183785601935 2.1298718373650614 -0.4998931598909133 0.4869875075728387 0.23731025068352676
Ni 6.767788783928597 0.6270542908485128 1.8010457438727934 1.3608242252340175 0.9751060434263271 -1.021741226786363
P 1.187469956700379 8.721334671548922 3.789749888834492 -0.2799401695389115 0.10130403565782554 -0.3046219885563076
P 3.4174218345379166 -0.09510249409397896 13.109709207969198 -0.2794398328637252 -1.1465698279286898 0.48098886678724256
P 1.1726603455649498 4.36095409276709 0.5501525405834348 0.5297719497282166 0.42257494562472386 -0.8726447542356068
Ni 5.180283572285827 2.340714078796706 8.794497480639146 0.5819656010126365 0.06162780011412613 0.5280773356346131
