# total energy = -340865.4187770816 ev
CRYSTAL
PRIMVEC
9.23935139859761 0.00000000000000 0.00000000000000

0.00000000000000 9.23935139859761 0.00000000000000

0.00000000000000 0.00000000000000 13.52272469979862

PRIMCOORD
 96 1
Ni 0.7013647164471778 6.864330004779946 9.695631336731523 0.19617774230927504 -0.3868713215755273 0.7124796825755149
Ni 2.7155470405411957 2.187739846397539 9.130854725406074 0.01645223201875231 0.8745489132368552 -0.07387782112607277
Ni 5.412717010936544 5.944746588718537 9.713684105639503 -0.23557861270440075 0.4977743137756976 1.0683920938756828
Ni 6.30479487756397 9.361588126635464 4.76093250254198 1.1142263786009778 -0.7257833416629564 -0.41515217079809147
Ni 1.5162330182778239 1.4086777273940525 1.070343762458511 -1.4176445766571715 0.16415388110451085 -1.209415559610317
Ni 1.7033668436845673 4.4159665310952825 10.412349083576567 0.6372072950947606 -0.2920143270946261 0.243003187303246
Ni 8.016874429718891 6.779207859353249 -0.17952244763592906 -0.5461419064458077 -0.9808275192911367 1.892305701454173
Ni 9.296450698516695 8.306269397596349 11.849720541008299 -0.011760225859721682 -0.348297060846755 -0.29794869030119014
Ni 6.343960488598787 2.453971760048932 5.385073795165119 -0.8030547618516105 1.7970663839331888 1.5665531015668375
Ni 0.07305555235958926 2.210579523320886 9.735983280499736 1.506739471843315 1.6390934348284092 -0.6353363033242929
Ni 3.1643485399552653 6.576801385906744 9.484271007740348 -1.944780888534754 -0.7277193823434048 1.5707416857268885
Ni 6.5710545092698815 7.242542858686584 7.345057159388568 1.8135924066126703 0.5159638402005308 0.20524448049723362
Ni 2.9029950038991506 4.750541927838098 7.765695267541413 -0.8699229844290697 -0.11843092514609926 0.5078098436348287
Ni 2.6822484177128207 3.9059450886010767 1.0741670061117803 -0.9628195127494901 -0.45910697911248677 4.044128785816532
Ni 7.948355398948851 2.98297083053689 7.078050988080955 1.2940819867114615 0.3745637078527678 -0.3418716169363854
Ni 3.7317648340060376 3.564089082871369 5.520463556396494 0.653249693269604 -0.35778957371822256 0.26081656133558306
Ni 5.490438435806768 2.7634807961554047 7.682205715525862 0.006982087744787976 -0.5813485362539279 -1.2473902390818776
Ni 0.919628688883789 1.2829301533945574 7.706208626803842 -0.5694150180411356 -0.9476224932940776 -0.5019125043137872
Ni 6.360582081958456 5.347986114284048 12.053967493274843 -1.5365395859238828 -0.9897135089268566 1.2078906383253585
Ni 6.347231219031984 8.498392472816445 9.32381026619688 -2.296311625827458 -0.12199601678953828 1.3064901305678271
Ni 1.8806884777917177 9.282961245317631 10.437203863063417 1.880551903352355 -1.9179912791457354 -3.423950678289916
Ni 7.251828406950324 4.1991559086505985 3.3916615332570568 1.059721305574562 -1.0905079519381156 1.246395479268776
Ni 5.359886399024044 3.614009299059412 2.265853943706777 -1.1069702112591968 0.8848664931127793 -0.46639399969220324
Ni 8.29022988338157 5.659093558201095 6.7800782062651335 -1.4322872662710107 1.1268371253864529 0.10228696839638514
P 2.343238132247025 8.618873616457401 8.305928465525769 -0.5134811829879932 0.11837744620034454 1.4179891044807837
P 2.090920681963982 4.42187047670775 12.83386392571934 0.13674900672899673 0.9895019071366828 -4.204439639025869
P 8.50371433928402 2.2561202868949866 1.0164238310034301 -0.3872636719179395 -0.6196003806462749 0.11536668439847875
P 0.9837322335690131 1.0348812835073824 11.816765622055955 -0.3005969265573145 3.291855368282847 2.6454954601545406
P 5.876310712112053 1.7775311182249016 11.473721435722549 -0.44293551155894684 -0.8323630238974247 2.606118243908499
P 4.041301588167029 7.653287469246581 1.5819968744287136 -1.092860768441008 -0.28697213668502836 -0.10269166003397152
P 7.78662979018418 8.48234371925016 3.347144489829844 0.30117593898923617 -0.1992782356114697 -0.2516354090569473
P 0.09672954272394685 5.229648500192532 3.0546478716517527 -0.03642944647162758 0.47882245526354317 -0.9045107497062681
Ni 3.4815354771633973 6.020278287281791 5.358325872554646 0.9638950052018562 0.16102459144690978 1.7935691694132079
Ni 4.024661516104348 0.15640374229709456 4.9270320203096905 0.8323923344734633 -0.3183074564632002 0.8422018643647172
Ni 3.4472852011298833 1.9328815744502883 11.742215142622662 -0.8471571514874635 -0.5066042533625016 0.1830206361020267
Ni 3.2174286143584325 1.4994913133485743 6.63387008835514 -0.429707442904447 0.3551948164078528 0.8262183444522674
Ni 8.590730551769491 9.206736595391412 0.9379919000023781 -0.5626607300364374 -0.7477192225040994 -1.4194590041580908
Ni 1.7495358831610903 8.244624444346927 2.069477071053223 -0.08134456181676314 1.959907716873863 0.08106791111660877
Ni 5.146595969503225 8.007089956473816 13.226157551321439 1.378276359272194 -0.3389788687696227 0.2916471735631945
Ni 8.474287004736746 8.76797827106459 9.216981188341496 3.4374438276803443 -0.06473343562264336 0.8276609904360649
Ni 4.320875125393386 8.921342266716143 11.295978487186716 -0.025999252277239097 -0.7407332781045695 -1.1879504477580058
Ni 2.7498527526837475 7.673410776827103 4.134397293943584 -1.1325277480133271 0.2371457000812045 -2.0399153050467573
Ni 5.754351272230102 1.0350106344284693 0.32024146681608434 -0.5725322235138786 -0.47473491545773083 -0.28419637371210404
Ni 9.134401712449307 9.083160268995876 5.197918719249911 -0.4743122260980153 0.6228903642514564 0.5577077569065363
Ni 2.3574944516211045 4.571871348411042 3.8059300324815224 -3.977057188979015 -0.23757173187502953 0.15939091249822873
Ni 4.425344472874084 3.2618421770487758 0.06298743102327403 2.3975760664965997 -0.49668030938057045 -1.5361950581002706
Ni 4.426758093654534 7.7446923736975 8.19237775944962 -0.697753946329566 0.8317876110099287 -1.3703303649522398
Ni 2.1022481269105935 6.891632288480792 11.806907233998832 2.130788632289563 0.46500071888910244 0.09336164088229727
Ni 5.117362661337581 7.242256438789892 3.4806004547909692 -1.8283556809647739 -1.084824528400093 2.5679756714005064
Ni 2.2502717773915566 8.395761756285482 6.270839336843503 -0.4136431903527328 -0.04252476073608805 -0.544260887373011
Ni 3.1175235065218017 2.478114185534654 3.06416809944375 -0.5777975856778759 -1.0938100197281548 -1.0222518478741942
Ni 7.334400491361308 1.300651229583465 8.669094111569397 -1.0563313060564066 1.278755126546404 0.12334636016984564
Ni 9.35789238603298 3.5140025583562133 12.679325608491348 -0.4009344845368127 -3.0434207255513845 0.3763192570912938
Ni 4.547322391459047 0.2578536697055633 2.5452611726060232 -0.967687896585385 1.8934470141474682 0.21912406669280327
Ni 5.324435007294722 0.48002681176445117 7.448600723848343 0.5780994331890108 -0.3241963111438094 -1.2930882553396246
Ni 6.154489107260972 8.086834799323901 1.7469599519611594 2.905146540427113 2.0370631803099433 -1.8094020226804064
P 6.967829220352492 4.648456333046003 5.608766810546778 -1.2923938003757613 -1.521892011214037 -0.5844431160188516
P 4.257788833308997 5.076811147576834 3.5769631952601193 2.4891194232232356 0.3827611560618957 -1.0678382782547415
P 1.3067584409290687 7.900920568315977 0.07429639726687302 -1.9708302773236381 -1.2345822886839317 0.25670253916720953
P 4.470450986927393 3.8795759794023583 8.994492060461095 -0.5427459933903813 1.0065850878712148 2.175107765921912
P 4.482785521188181 6.820812659185704 11.624892009326528 -0.5903620526064478 -1.9519884620267867 -1.2788759683949846
P 7.255496429498288 8.563945671752993 12.54089425274413 -1.0775215669807765 1.8976407405138416 0.5397691701502446
P 8.678698417460101 4.429141846343136 10.158500672748945 0.2801530568806659 -0.9461243114819964 0.5453237814198867
P 6.540176596536133 4.946222153388085 0.597259399415825 0.127623904499277 -0.06346665309507779 1.2524190597550366
Ni 9.425986406633736 0.7353590624439702 2.891225917950542 0.3675361115820251 -0.6341607949589531 1.2080269067929066
Ni 6.653358652487185 3.499940265363764 10.691404293183426 1.4618788638851983 0.3219260270523939 -1.1946476572725233
Ni 7.155923938315881 6.3465105496145 2.671170435256877 2.1695942923028504 -0.9788341430101917 -1.6673925388834185
Ni 6.606302635266067 1.6527721548365704 2.6523064512866514 0.7918534938191524 -0.4545910935200042 -0.300127957340696
Ni 6.905555991200648 2.9367833123573543 13.110741420176186 0.4846472894754363 1.1385654695669747 0.49875081875635396
Ni 8.233703530866588 2.0597286312790226 4.347055751821379 0.9799967958597252 0.14960915052111654 0.8722043242640785
Ni 0.715480597678363 5.350536175299761 0.7698162999512235 -0.7075367367479427 0.7287804766180674 1.336723475531072
Ni 0.458057481752989 4.800887154195427 8.20185733409499 1.3743428285457429 -1.2328452513881671 1.3071758437809422
Ni 7.30188721341096 6.954718580565181 11.008620796316379 1.1487503805197765 1.6070163517882066 -0.8684253168376205
Ni 1.3493610907241953 2.4010487546213706 4.689018010093409 -0.0941658819511475 0.7905322039045676 2.131934058747915
Ni 4.479634902324564 5.857517871148424 0.414361816674678 -0.07507107010322556 -1.6076591275785281 -0.7609295505467862
Ni 3.0207690175487882 -0.17612144234649374 13.167848003965757 -0.4030062794641769 0.9987792186735509 0.2700295952934188
Ni 0.4836948343124159 3.091634843601406 2.5963492428244512 -0.02091232467263495 1.5445624562283593 -0.46909982865914046
Ni 6.946597190591225 6.764212391858673 4.895780837775091 0.5194381719023764 0.32220370619381283 1.1108572050184289
Ni 8.165313851017634 1.2777930739571055 11.344416711393164 -2.444511554705874 -0.9000437150738501 1.3794667800358693
Ni 9.145054684735966 4.388109886304065 5.105450365440627 1.2856256284139924 -1.0490949362089674 -0.7404046911205571
Ni 4.996401071418302 5.474916325276338 7.2998240662196245 0.4926791586409772 -0.5130407530164648 -1.0183337437667106
Ni 4.3634223390794755 4.069121275552222 11.237019413420148 -0.8879101650351097 0.6368439982180709 -0.5936785185741905
Ni 6.797926785504827 4.545012553582494 8.551676736887899 2.0290143418635376 0.29439028352597046 0.012005251990992227
Ni 0.34053200665886846 6.786996632672982 4.713629794635646 0.4080818942148714 -0.291202372716292 -0.04759163373603417
Ni 0.28860592725882706 5.577399212183201 12.002770398708641 -1.4773592189089848 1.2581130248160204 -1.851450100890392
Ni 0.3197323785480923 7.424890700013112 7.395605651479034 0.8271346856189496 0.9741331379900964 -0.4708677191928407
Ni 4.822682784398573 1.2439123719838396 9.8479919388095 0.2842616797324008 0.90052785379912 -3.1288790524262047
Ni 2.5534795757707958 6.181329423386508 2.089599454698594 0.5347856008927241 -1.2247118236477552 0.29163148983391063
P 5.112317975415192 7.568599573340675 5.975015628188027 -2.190756528202763 0.7561529550937494 -1.5494077001358026
P 4.816612530458994 2.057936197086818 4.165012809094556 0.27275676441659474 -0.4902893182525621 -0.9613560408300863
P 3.5401499231187827 1.5024756238850798 0.9701272884761213 2.1738301847610693 0.8514632350619852 -0.1341205679672142
P 1.6828832013953035 3.2043179745711226 6.889044346123903 -0.38525178369423324 -1.603054538926981 -0.10933101972736009
P 1.5038522872595046 5.6415203116362855 6.277208021836732 -1.0769278992608355 1.3664608546945047 -0.30186679440867364
P 7.8344064768227835 6.66823400841218 8.961780136453365 0.4868296418387357 -0.4854343041531059 -0.5424503165268335
P 7.47228857323996 0.8414074150970788 6.560455125221959 0.8055793280456771 0.21695662672783925 -0.13732827627123445
P 2.0771910056257563 0.572630984040876 4.207244036959133 -1.2461800208238603 -2.0575569293879212 -0.4878246587621534
