# total energy = -340891.4023751438 ev
CRYSTAL
PRIMVEC
9.03559087842771 0.00000000000000 0.00000000000000

0.00000000000000 9.03559087842771 0.00000000000000

0.00000000000000 0.00000000000000 13.22450058210411

PRIMCOORD
 96 1
Ni 6.7136878984372155 1.9006636239328634 11.302953899708307 -0.9013092120498348 0.3403778059996783 1.468894375971083
Ni 4.549067561522124 0.593382605961559 6.045262904064332 -0.13446740978367164 -1.3117788897705924 0.6718706508049009
Ni 2.6861456002095587 1.5694369377143118 4.728380667347439 -1.3016852529800162 -0.15043601729778608 0.4662240497732422
Ni 3.16713720333772 4.2029050437710485 4.593966315586409 0.9491157900101524 -0.33764163801543784 0.16481465461696132
Ni 4.872478461730007 4.392354275315169 2.6275362407203167 0.4448332428022919 0.3139036709685497 -0.33463087621357207
Ni 7.140140675715217 6.048641311450909 2.9495665026594953 0.24160167897002907 0.39173559164636407 -2.3690028828445975
Ni 5.092684844234026 4.241550265467724 11.304673372630655 0.5114207009145385 1.0355627060504875 0.28223565044130744
Ni 5.76880002990596 7.923183042485692 12.517386090550113 -1.182270880874725 -0.09081084943598555 -0.4707026543698862
Ni 1.658283901694535 6.298764534973794 0.4528014635042522 0.7011411176342441 1.2835335217716541 -0.3796755751580364
Ni 2.7495844829620397 1.2660217998666674 0.36138748818804006 -0.1521547997611057 1.0977363513657548 1.1465685423771093
Ni 0.5059894685352277 8.99578898646294 4.7704214640531415 0.2515245945106958 0.26767060814293897 0.2803356052051172
Ni 8.519053146584518 2.125613691587865 1.5016284432684681 0.4551081423657388 1.3922834721845634 -0.06956299580080277
Ni 6.652995835276923 0.7490432458445339 4.825461765190692 0.8505450941230901 -0.11231247095318722 -0.7227432692850521
Ni 0.5447467315573745 7.409464529611128 2.486867453032601 0.9386873955879769 -0.003768980124128993 0.25630993171448113
Ni 7.565509182101564 3.871967496456938 3.7622248252764035 1.010260736950589 -1.293220667152431 0.38858984692853077
Ni 7.78595048996544 4.025283400536712 12.825874712611618 -0.12613600709984085 -1.038700994569153 -0.7657547398495715
Ni 7.732387507917768 9.095135306910674 6.957291039664959 0.6571811671135264 -1.2287384283086449 -0.697368023745057
Ni 6.851715582944678 0.7935489517105956 0.31082341871486546 0.7533823343271477 0.2811133639114062 0.2808359418803034
Ni 1.9057596971236337 6.757691225456812 9.038774002403459 0.09934742615208696 -0.9031598921053283 -0.4968664572494475
Ni 0.17464531963674748 4.8957993214913165 1.5813991563264769 -1.509457127884794 -1.2871351230799835 0.19751471595314368
Ni 6.244261851486689 2.0463083114541907 7.119330806627161 1.743218741985114 0.45280803347765247 -0.0876972435076683
Ni 3.375217823036749 4.612741369634462 0.23006421202729962 0.4025475946602035 0.12877781559806206 -0.2793850683663898
Ni 5.8061893044864705 5.448994330412823 4.7656470578935615 0.30233936316971805 0.11149460303758219 0.3876297970081066
Ni 5.80597245030814 2.8296578883106345 9.349854031896015 -1.3939058382793348 -0.09498709230086222 -0.49145531353620525
P 0.13299486045203926 5.629353757648583 12.299883156802617 0.39353099298389005 -0.7651464168416113 -0.20713218443824974
P 4.380418259916219 6.193066194219127 12.190357339800412 -1.1472403716331534 -0.7644236797429739 0.8092084401578322
P 2.3051508800641214 8.346220366454984 1.2854519342450943 0.6957279170384728 -0.747230712903455 0.3604792047352437
P 6.082407314135145 7.851015779055402 6.063486787075795 1.0224243688963166 0.20949682801568437 -1.4269445139018586
P 4.87707757742877 0.8928175660777594 12.60847659171698 -0.30754224752689613 0.8764918958958389 0.37680056760308656
P 3.9931528397807203 6.0241729316626 8.196809644703315 0.4264992203797945 1.1652226671431867 -0.5032613050321978
P 4.50334747225741 0.9979629286776841 3.8688673852658857 2.194326762052524 -0.47754076033764203 -1.860453589940583
P 0.20610272888083842 5.779389742281107 3.739359359289588 -0.4751005263272656 -1.2513389393169805 -0.5142460861784756
Ni 1.4387190461347448 0.7702398382172791 2.6498324644890134 -0.32934648788618115 1.6192825707500693 -0.4170501591517527
Ni 1.879728160133191 6.667841310901808 4.882618201685118 0.10559649238559234 -0.6576879315466156 -0.629236103963826
Ni 6.16654673532744 5.387199925179349 9.185896912573739 -1.2575728360418341 1.8321418874800834 -0.08475230194673146
Ni 8.799337172076893 2.3740743664102153 10.370917351920372 1.0445222292366205 0.7037875541181557 -1.2035511304097402
Ni 2.468080652716555 5.186799557629532 6.700603459452189 -0.7609038395151735 -0.1467390280621731 1.1793886742309236
Ni 0.48953927199069464 0.014029561778917137 9.159818390511326 0.25886483692585094 0.01602208645986918 0.3537583410716424
Ni 1.5905079353754408 1.0812710755197115 11.493863282719856 -0.805579070935361 -0.8593873750050683 -0.16061630026489757
Ni 4.0293765231527034 6.813070361248003 1.482149516699917 -0.027564282771513817 0.34975821877331376 0.18309879763812983
Ni 5.53522097307155 7.764960812621186 8.163325552450909 0.014776129867910038 -0.044894032299213 0.453061030028723
Ni 5.294151411493971 2.7501808319524486 5.087478536835937 -0.8936054156476738 0.6898364912547023 -1.6655380021731832
Ni 0.7962993855390895 7.622216549735031 6.793942015601086 -0.7173820049731388 -0.5189080104305193 1.036715588708008
Ni 4.776746377587786 4.466193123036757 6.6678060720978305 1.2140204053721801 0.7527992081301681 1.4394796702543917
Ni 8.105756189458578 7.1971733246161795 8.6166610193693 0.1605959885499234 -0.42865868992495854 0.9753076179141718
Ni 4.576842967529974 0.5471610414094558 10.467244881493926 0.6248405459992916 -0.43092203203783846 -0.5815976761502564
Ni 7.91595456987467 7.282071735432631 4.849477461881736 -0.18667468791484623 0.24959241048498948 0.3698485617652856
Ni 7.088682986315504 6.049933400930129 6.84773901944954 -0.004559337235908277 -1.096967334410214 -0.11491622712462145
Ni 2.2349714466018624 5.4214357785833025 2.6230663339694757 0.6996488493594337 -0.13784995310265938 0.4616076340471534
Ni 2.2132227796334503 5.577995459747273 11.20829343663067 1.8844419824353804 -1.2083233549874028 0.5299915219381904
Ni 1.1110162403140666 3.3697151482616086 3.7130432011900867 -0.6925474624279622 -0.23062641090544794 -0.6026830360656459
Ni 3.507697654815253 2.397458475306871 2.4858355885673777 -0.08510942817583407 0.2704952220759277 -0.20702805476021763
Ni 1.5679551008290524 3.409435605259174 8.287159227427555 -2.166446490702488 0.4784316475830277 -0.2622216692132258
Ni 3.4620950282304683 2.6491177492595983 7.095063920512884 0.9612177154800091 -0.8095966767351862 -0.07774038940527256
Ni 4.072503397868213 6.906417049428587 6.095939014862978 0.6398298203192722 0.7134433320403648 -0.19221978610279153
Ni 0.9727897728098003 7.432938994415423 11.54771269299474 -0.6620423518605695 1.948922164396637 -0.4832799768142645
P 0.5681669828170854 5.4498346403538545 7.820123094234047 -1.1981327876076464 1.220116490967589 0.2931628388767725
P 8.564023281815839 1.6956008915489356 8.068598226001619 -0.33451800478479166 0.9341303723449138 1.0224487943763487
P 2.168062896996091 3.5214769307300138 10.410221268183728 -1.498136560665652 -0.8135919139375085 0.5526403696859579
P 3.985734619763659 6.131018792444267 3.8662226678493283 -0.7602734050200262 0.32346380385315904 -1.0358195592563
P 7.199305724036431 4.03953252717119 10.471304572424092 0.37924003028251463 -0.35187217979252305 0.9514004722792713
P 6.452586432136341 7.686676454243819 10.261948127309218 0.23750128364841033 -0.03356549466027122 -0.7548278085244227
P 2.524092279861211 8.603391350773617 5.848218354924182 -0.916395674069312 0.10213167376544346 -0.28384541813058856
P 6.944583384814782 3.850480861620676 1.642998392799453 -1.112651063694058 0.566342806873715 -0.11526049783791761
Ni 4.991052519323058 2.9178091118020464 0.2530588869620367 1.4706905486395576 -0.5072143761426748 1.2070483449297214
Ni 1.3873517126426704 1.172087798286438 7.091030432795933 0.39148645175003544 -0.4588007607259776 -0.5971029708747071
Ni 7.103266429808241 0.4927414853573774 9.305790166418303 -0.953097657476036 0.5650346295852526 -0.13345182403496372
Ni 2.6241704831608095 1.5566877191466222 9.258274705268825 0.5109717863025781 0.153421068068039 0.6636222947531797
Ni 6.123889711331647 1.9276800403165577 2.403949643711569 0.26200672498894234 0.8831343409130209 1.22904824623958
Ni 4.16875051068397 7.169967160826446 10.2789549162448 0.3572743246447008 -0.8189909734658929 -0.7175997774108996
Ni 8.202653864809326 7.094655511810362 0.39642028069735774 -0.41698999533777864 -1.3912262345646427 -0.2553941047684311
Ni 7.791245346153015 3.9622872617316567 8.224171220654187 0.9536712705913188 -1.0646714504909858 -1.2549685656497676
Ni 3.1753053773881748 8.298196201545508 12.455482354668398 0.835036971185162 -1.3469459245900288 -0.8428875775778322
Ni 0.2797771288505264 4.893395854348151 9.927117143934995 -0.5428642641358006 0.29147336698949156 0.9675734824947079
Ni 8.666757948799988 2.3203758505010863 5.869641740625097 -0.9841686678492275 0.47904819812110405 -0.6082756996620751
Ni 3.611896087503134 2.457039160803219 11.642876438477918 -0.4885242559323393 0.44253030570072827 -0.6585214831915046
Ni 1.3268222901161255 3.3935510366964534 12.551068965799322 -0.9321315967473301 0.05106930787198947 -0.8711445155409966
Ni 3.2142487735800547 8.627950086469564 7.947898093901852 -0.09530308087938424 -0.6761798197032162 0.16313803824548676
Ni 5.527341937925537 7.8067142775406015 3.69000605897876 -0.2197377890174022 0.2546556839405098 0.011715488664715307
Ni 2.9727183968735216 8.307033009312482 3.5627198847712753 1.2629394996703862 -0.40969140479383637 -0.21184784474636417
Ni 3.6687209178165294 4.205868717541567 9.138672397446859 1.3343230936196955 -0.3772636232824341 -0.02332041989349532
Ni 7.049947408711191 6.151574761431861 11.650216048855334 0.8991304592309612 -1.5705136288764825 -1.3392102465086677
Ni 0.30183933081844166 8.94897559071581 0.6477145167832288 0.9831299421720681 1.750721221009746 -1.58163390715936
Ni 4.9064884253648655 0.13418123351932323 1.5588905961748312 -1.3968080995277943 -0.2743613898995533 0.1815070276709777
Ni 5.818324102882223 5.467417899980165 0.43335867929875604 0.6406021797089225 0.017746525350143632 0.654689511039924
Ni 7.963400456975265 8.69671093218191 11.571530510248056 0.3691271102182288 0.20263763900200585 -0.116370957293277
Ni 9.202297413369074 4.953130144887484 5.71473015121644 -0.8612023167266201 -0.7252058718929316 0.45071078462899156
Ni 7.781812189395631 8.850406331073762 2.59321906699949 -0.7216209827551507 0.5049502626988466 0.6434525046735241
P 8.68487430828136 1.6411253148341218 3.6474366802133753 -1.0673613386183232 -0.27929199443195124 0.4078499807097234
P 1.9291438060202895 3.453240149281967 1.3504593955541673 0.039356390310435446 -0.26571939795383914 1.7127624823777858
P 4.7703762860993235 1.1311656077172902 8.311624896538634 -0.5838620467044009 -0.005631487254164494 0.39791883763894054
P 8.704978497730766 1.6479471858607735 12.463152667667769 -0.3507496361523056 -0.2298975031592234 0.4519431143741959
P 6.42531701921126 7.612051510125781 1.3443892856790616 -1.0629557533514595 -0.4934332631981824 1.8709416339561005
P 1.678984440134349 3.122600776463061 5.958417323438286 0.5163909004356204 0.7302951134903809 -0.5475089619966635
P 6.977066333610562 3.867955694157821 5.936001829871508 -0.40735324357896296 1.0497531386182566 0.6322774618933111
P 2.3903113230127233 8.5219264644474 10.106903714716331 0.029441445189568653 1.0276241679297011 1.3218848678563428
