# total energy = -381174.37668682507 ev
CRYSTAL
PRIMVEC
9.10727253288208 0.00000000000000 0.00000000000000

0.00000000000000 9.10727253288208 0.00000000000000

0.00000000000000 0.00000000000000 13.32941392908905

PRIMCOORD
 96 1
Ni 0.952229099067988 8.45544686620211 4.704776942437969 1.5266565224822157 0.7560130870817754 -0.18114295946333964
Ni 8.875929641185794 4.25607437264024 6.926163672695338 1.2738574321344707 1.2721232230521835 1.3665415873337692
Ni 2.0079805655442398 0.7078245106768871 2.750764252743812 -0.5627188369678825 0.4345385457445033 -0.027125652572198445
Ni 4.511833908483143 4.625938926628487 8.601270693286445 -0.22880504142599306 1.5000916275094938 0.8209966910420118
Ni 3.895298876686079 1.4305248403847108 9.978572632718054 0.50702077207463 1.0008325016581539 0.0988961975472813
Ni 2.346406814588937 5.708001303586174 9.10276356858976 -0.1256007034216611 -0.048092741742168786 -0.8330055425774299
Ni 5.238703547577744 7.496095879977153 1.7792905759886237 -0.8513133397476823 -1.9550830417917102 -1.026419863208955
Ni 6.88857704803354 4.939192674264155 2.7682656984593446 0.07715032122975746 -0.13300136676110644 -1.1893797240053643
Ni 7.804795991323199 -0.19632820717253116 5.215319714503278 -0.22811521444782001 -0.5377937915914286 -0.7582414621916619
Ni 5.986428840878814 3.8171949070464843 4.666267751063895 -1.0771261313145708 0.18408404436953454 0.8415346630943636
Ni 1.3480311653619212 4.386754626879809 11.523265331428908 0.2668177732243404 -1.3458956289486432 0.3040553174195602
Ni 3.14479586524834 2.9178881689364817 8.141032852039846 -0.6794685177568168 -0.888674811115276 -1.2170219112026652
Ni 7.490085080074852 2.7436842590407076 6.310597654700706 -0.8131854225277091 -1.745806557316948 -1.475268654928543
Ni 2.3546306817279943 8.347580329773546 10.215156806145359 -0.7537823979790439 0.2684491381801764 1.2179634491803282
Ni 8.477149496758448 7.358621600393469 12.454231681206135 0.3423331299538363 -0.18783117011679262 -0.10968840306677885
Ni 3.515042924684915 2.7363984409773123 12.587845387943478 0.8304827761555762 0.8182972898329778 -1.3478455535861626
Ni 7.551131128173523 5.249213340134191 11.336093576107547 -0.4746138164988342 -0.6417542910354948 0.346957516099725
Ni 8.368244731255851 7.1356300312906855 3.627973104667537 -1.0406128668798853 0.10748779587103426 0.10327195801747376
Ni 8.926365716729645 2.5930135414896993 1.6390914004492299 -0.4553966201404351 0.6313621491678933 2.118123378117068
Ni 8.885665315573004 0.43357994367989405 11.658771529408218 -0.01582565417834694 -0.06398910125745108 0.40982304527569413
Ni 4.435096029730435 0.5102522500700313 7.781725448425458 0.24691897741788443 -0.39196570537929915 0.8238447020137684
Ni 6.405390701341764 0.8801341078761787 9.31280823899389 0.4914398869172375 0.017838313733001536 2.3532188805374634
Ni 5.518733964844331 2.6674928166427545 7.993396677712242 1.035138216918559 -0.41986191756893493 0.06096676949135952
Ni 3.1990934243657914 6.001373875181353 11.183831818036946 -0.993546766630018 -0.07488517934466458 -0.3183159411036325
P 8.88873446643221 2.8707489260663164 12.842983807796475 1.0974239623316584 -0.23171578731488482 0.2717082685474224
Ni 1.4375738693610454 6.226578511520892 4.5123002008392 -0.5774682273629153 -2.40265528079172 1.1292940715673776
P 3.353625625490399 0.17353725754297367 4.519151602000565 0.06667024763404002 0.5929753218595788 0.49593983167012007
Ni 1.1250851326220341 3.531153689877597 9.184286408355602 0.5949213898423561 1.3261192176526644 0.4038935671651367
P 7.739469525112284 3.0044163657118768 3.7030042805388947 0.8062573279493082 -0.4569806767981033 0.08306848648640533
P 3.673509467563756 7.644835855741362 8.343626862746897 1.082845293186535 -0.9917724483384145 0.2687795249364016
P 3.1819262155539167 3.5686756529040813 10.522599203148213 0.2256739519961791 0.7118376781161417 -1.0795738215241149
Ni 6.375345809102838 2.1837053899607475 2.0106225853194784 3.0169460762996234 0.4909452066690061 1.577401100024935
Ni 3.219785147665833 7.326390962735525 3.485654666798953 2.138053541382092 1.4692872405341275 0.8341815651634021
Ni 6.423914893767946 4.727384835888684 7.183741020145057 0.5191844040203574 0.6107691555078901 -0.30424789304634053
Ni 0.0935672077518923 5.160581363392992 2.47532572231168 0.8493379611888663 -0.7380102227464516 -0.33189907910470584
Ni 0.200171476200972 6.795792154996206 6.519416486215669 -0.21302643843549762 -0.8042729505294278 -0.10736541136055702
Ni 1.5687185945021556 1.2459477470211782 8.790188312761245 1.5112491867882103 -0.9123420728252287 -0.06023811885545109
Ni 2.7327646392181943 7.719633885434691 1.007937374707964 -0.1078076411042982 0.42833833047106235 1.2967631330880507
Ni 8.537303032144353 2.1641885048234286 8.48113301778461 -3.33543505264601 -0.8560603675143643 0.30927491394728673
Ni 5.995435933459686 3.3233348368918345 10.18985680292022 1.2349795241223505 -1.487537187883251 -1.6759944216198166
Ni 1.7819198455822514 1.81445102323531 11.144256165043842 -0.8416231090431119 0.5181446499019334 -0.4911982032200766
Ni 1.6028799739468986 7.822746425576889 8.187779571461848 -1.146432016799245 -0.27697645892489714 -1.0099383206141639
Ni 3.3369957457607 0.3885745347750452 12.164063048104335 0.39410820564359866 0.3504650150323512 1.0289225750261506
Ni 6.079760170270904 6.024005447540773 9.641165487474975 -0.9121199295120936 -1.5348513995881825 -0.5912904779579882
Ni 4.677203763977051 8.337116073579995 10.47945167784953 1.5649721302329629 -1.4601999335208788 -1.5910222903527955
Ni 0.43727567489255115 8.794874915230523 0.7978134710323944 2.292146181595859 -2.704975103577412 0.8032972168797198
Ni 7.805451714948904 0.827408464005905 0.6684783609527802 -2.032475560939261 0.9705701032291865 -0.528506966972864
Ni 5.123259760363251 4.669426153194376 11.56263971369801 -0.6798282150890808 1.3082438800341403 1.75669543631531
Ni 3.507911930255367 5.021495096562781 0.10263440833178736 0.2411926164570685 0.6783801697886446 0.302617299421453
Ni 4.2589704853204395 7.384313216339515 12.597495453968445 1.7464976698467019 -0.7347534063720508 1.2318785165995236
Ni 6.840909583353779 2.8158593942312145 12.323336495333697 -1.8520702509728943 -0.8389792436623615 1.0832314728813603
Ni 6.62966639587822 0.637015466373267 7.09394058033194 1.919981570102887 0.5970677467613976 -0.7721768413258314
Ni 4.321173157036674 0.40266257472787736 2.4640090254047116 0.43176432543347576 -0.06673761053686571 0.6722941114955647
Ni 0.387433393520866 1.6790896308900105 4.952463791866629 0.08539327796484003 -0.288908948696425 0.26162414483854296
Ni 3.5200792464212367 4.579173081934071 4.239100238007047 -0.33223357962598915 0.6873942003617968 0.24706655873934225
Ni 2.5317124897588097 5.505892710507597 2.2389018368817704 0.0405565812661237 -1.976402629205093 -1.3234864080155078
P 6.927929572848453 8.466840064198744 2.35468077172718 0.9781851965722831 1.639736467729047 0.8789658113576282
Ni 8.058934432646994 4.487608563422355 9.164252230135782 -0.3512345462085241 1.0627199831915697 -0.11424748319237099
P 6.280429814281961 6.4423297989231765 12.7429595437859 0.4553572822620674 -2.083496017851186 0.016828641521564564
Ni 8.547703537429848 2.643267471581966 10.830402248145202 0.23852252582407307 0.5322376376598899 -1.857654172818575
P 5.555281449704837 0.8927230907624674 11.574836173136134 0.009145671055010055 1.2675679995813331 -0.33905317365098386
P 1.2648726594408466 7.142496914815436 2.639703795821708 -1.8933218014235134 1.68343905082332 -1.5463591431174657
P 8.27963096905981 6.917911573011285 8.495408667552574 -0.20036041293205495 -0.39234905686064686 0.28571949522484985
Ni 7.808129253087202 4.729798263122183 0.295632996649347 0.24431110748139218 -0.3304466629288954 0.18888095153754567
Ni 6.225722427898443 7.82416716009925 8.173729782053847 -0.3037691536377091 -0.655212987643562 0.1666041424172163
Ni 6.486955434561471 8.495974229179744 12.855513593410999 -0.6785609183408831 0.7319642736626878 -0.127528002351361
Ni 7.910349280516634 6.841802096066544 1.2635338903716977 -0.8355414216254062 0.4455963462205616 0.5262631652440098
Ni 7.338958998894881 7.605037074570067 10.52475853747675 0.11541733513075605 1.7786143478755883 -0.48024633219426316
Ni 0.4298304795590194 6.26465601817471 10.713676156951552 0.7919445108710619 1.5328541666524955 -1.6937293770057347
Ni 4.558235462274389 2.617949253811669 3.2506578909822115 0.42146037240430634 -0.06718781070040686 2.9255767832570068
Ni 1.9734093588334303 4.839194821344059 6.628050765722662 0.9618435219894661 0.31996864621570703 0.047305727064499176
Ni 3.0387689978807844 2.456513740071994 5.351479814653778 -1.8444204477371204 0.4554418715560737 -0.79174473615543
Ni 5.161464768833178 1.9518342300932021 5.864915056490254 -0.31949710589592717 -0.1538859235195995 -0.4967841819482864
Ni 2.759995384230133 7.357118900417894 6.172585135307588 -0.7739884406132735 -0.17995202447903202 -0.7297675231216851
Ni 6.437420979002964 1.0433473612233217 4.030375211399648 -0.6111206253100379 0.756960024376077 -0.5937561658896613
Ni 0.7224007004399666 3.8848164059473693 4.575601209628491 1.8509628768413284 -0.04707458489029957 -0.3674157839540769
Ni 1.5180548371438225 3.715830963239502 0.5501584970577615 0.2360727787319999 1.8286025068682572 0.14564245256388467
Ni 5.339684985936398 8.62282942893603 5.4419332459108265 -1.5686770898883757 -0.7133325174941134 -0.10917829619957972
Ni 4.694525796422772 6.308206995648654 6.52153574854486 0.4806001159892561 -0.23849167258613768 0.6940291891798112
Ni 5.569060753117232 3.8490703610738377 0.8476457344042425 -1.2076792936455008 1.0550154154584603 -1.133231458948571
Ni 9.00759348086392 8.97977987040691 9.268808272981788 -2.0190608301952517 -0.9946582545266419 1.0974836119250002
Ni 2.5627956110717687 0.5029108776439029 6.592155361578831 -1.3836291389436752 0.5295063547716559 -0.662261409849911
Ni 0.10012717619072156 0.05130764152968548 6.825193163063778 0.4258091362913054 1.2166678702973563 1.854615385992251
Ni 1.6325878971003918 1.4959970229568942 0.185274710443103 -0.041224553867425774 -0.9442507486083673 -0.008006672354560403
Ni 3.4219574916524644 2.7028927851582747 1.5081433923958314 -0.7710985206599882 -0.3145464467588712 -0.9845245085267496
Ni 6.931381229155987 6.99985881167932 6.016390856937268 0.4184100156137568 -1.17276294138429 0.6144291208579805
Ni 5.508734179552321 6.23876404223192 4.202111050426448 -0.13906557067731534 0.6038598299825664 -0.03613865470408615
Ni 0.9620558461809919 5.98466202999844 -0.00387878739149991 1.0122446001498373 0.3366152536334525 0.6771036170690661
P 4.723386743226395 5.18275757212345 2.3437238120870916 -0.33069863103870145 0.23548476743901378 0.49038393484889736
Ni 8.666990593672782 0.5802152287510396 3.0365604842803173 -0.5367609794515401 -0.16056384976040736 -0.6016332546448929
P 4.040869521592711 4.197960866312086 6.365741279440768 1.1052272604261608 -0.7021795862010874 0.42424847667240484
Ni 7.969173154105969 4.995803480616734 4.9206065523844345 -0.7630789927896212 1.763519401215679 0.13815591437885238
P 1.7671569567312972 3.051929006757791 2.821810086134492 -0.2309531981172474 0.10630431708589434 0.23708733603944332
P 0.8515973799763764 2.3030744116568957 7.0343981429361016 1.917244630787698 0.41921991310956186 -1.6688092167252873
P 2.055821068403007 7.740371145097629 12.343250457555472 -1.5151742328742293 -0.7354375769232688 -0.9735435840352137
Ni 5.235670825808856 1.3006642406772744 0.4796764038397362 -1.4711824006743115 -0.9489561245038368 -2.6674408540773804
