# total energy = -340871.8793392138 ev
CRYSTAL
PRIMVEC
9.20585782143230 0.00000000000000 0.00000000000000
0.00000000000000 9.20585782143230 0.00000000000000
0.00000000000000 0.00000000000000 13.47370346403804
PRIMCOORD
 96 1
Ni 6.25458864685861 4.2722452652513745 0.13901857867968065 -1.112619439125174 0.8176632557934046 -0.49562101487812066
Ni 6.390144902433256 4.693965609419426 10.005181220156569 0.13493252234554826 -0.7875008732774115 -1.3657543155457834
Ni 4.08353438694749 3.6066617489154176 8.788425508361213 0.20871906930939535 -0.8638202139654413 0.6180361214829485
Ni 4.825535728582269 2.122465742632819 11.482963505335002 1.9491391655034496 1.3728420756305002 -1.0167620284042167
Ni 7.540103830878932 0.6821052692649764 3.305220539362683 -0.8707264541669714 1.213868196065032 1.2640355609480423
Ni 1.3569710519843567 0.45091303972341795 7.403962082750497 1.5152284831509324 0.3147235957666838 -0.5432172765998451
Ni 6.1961958910616675 6.450581358653804 3.3284625684594102 0.29517112755605296 -0.45743421939575407 1.6081525222751787
Ni 0.5490419599728162 2.983222649422974 5.624234107013863 1.0553486304281632 0.4414640692197429 1.3315553010665713
Ni 7.339001868024728 9.157296864277791 9.374571678051762 2.0564348999683357 -3.8631825157450304 0.016431406083145896
Ni 7.113108530212119 8.181678470166421 1.953821793082865 -1.6462763257300936 -1.1184666419345703 1.3638972077323865
Ni 0.3747198373540379 -0.21353723552179224 2.0402555916288994 0.8503805435207678 1.5259242723018815 1.8297859856533971
Ni 7.487142531162739 2.011940214318441 10.185971378440321 -1.5380043433948674 0.7714739017215358 0.30991460441381463
Ni 3.2079928725883784 1.1996889720867105 9.899547684657973 0.2952287202668657 -1.3571511472578046 -1.0489157303186256
Ni 0.9282266383423858 1.5509384750714745 11.069765944284846 0.6534684941486294 -0.03788854751565733 0.08072466884457712
Ni 7.881806859362446 4.573534578151003 2.692005465502919 -0.5918448077995614 -0.297488719945636 0.6499352841843904
Ni 0.06030020952564014 0.6815087296818703 4.928088063487261 0.1447515653184991 0.3181938137034714 0.055082285686124485
Ni 8.65375485630346 8.530009716240004 6.861779407397624 -2.02005250468456 -0.6532386375260104 -0.019342151972037657
Ni 4.576075394893863 4.5846460484721305 11.349426094367995 0.011761768521618452 0.20702239833326283 1.290913102065177
Ni 4.595131520465307 8.238137995832929 4.362987405230953 1.0056818593306551 -0.3725078537650036 -0.7863474763992586
Ni 3.390287268030766 8.265930480422393 6.366903793922305 -0.35957957573910976 -0.7570937217404639 -0.391223685006952
Ni 7.758669305911413 4.351783876332186 6.835681721222509 0.7976477319034263 -0.8982010054381564 1.1859791829642479
Ni 5.240986883613048 9.075152995449772 10.88165897025028 -0.3413715373715153 0.16908140031311525 1.543066074188491
Ni 6.136790490910687 2.4054814278709418 1.846489776826813 0.8864001561484864 -1.2007352582274997 -0.026774439880366794
Ni 7.566460201657216 5.7026054153302015 11.67737557135212 0.2297699764424236 0.1876609630875155 0.9469624911125755
P 4.668115560818163 6.312143669599031 5.839826089988577 -1.5425899058830208 0.13402620848119498 -0.8079149181573893
P 2.948314036781952 3.097476550131765 10.664045380910595 0.5505176669160002 0.2634105473150044 -0.2102347346229734
P 5.156016816451487 9.433794802219014 2.5853749356084825 -0.1033606610765381 -0.6166649521670348 -0.5131615948650453
P 1.2660263831339706 8.012999538356965 5.697005492052371 -0.44778846877587397 0.6629748909771679 0.19140783172445747
P 0.8693910807869953 4.469655679142221 7.6225588576993735 -0.3975365145988573 0.1332376511416286 -0.76212074264141
P 4.481549647373287 6.9482960586635345 11.845918256466671 -1.0675228038968518 0.3150575820673348 0.7016041733135917
P 0.5807441723546438 5.09698885646883 12.886559465136601 -0.363696940341593 0.364468785510611 -0.2787561765331393
P 8.154806571353356 4.934809260240745 4.770998386016881 -0.11042913788754531 0.8154382231176279 -0.025527197736827007
Ni 3.071083355922426 1.319447975738363 12.576542999076716 -0.3814455225742656 -0.8352891964052841 0.023450517713456385
Ni 4.485434519349687 4.9129637597668125 3.9972975937576054 -0.5325695670780117 1.1391149143125414 3.9935361604706445
Ni 1.3268218678073131 4.417541318340315 10.415482618354178 1.0410250147166393 -0.6782300173640256 0.45318701408362594
Ni 3.7504296296155366 8.19736525179625 0.25127112591058137 0.12758405240027706 -0.27590559445822166 -1.0404056359650855
Ni 7.736630482424437 2.806212416337113 4.633054130938257 -1.6591907197989166 -0.7426605770342695 0.06346691020539393
Ni 3.141857990411926 2.467390821333726 6.649596353552913 -0.32733999897911364 -0.6467309183144797 -0.7285909863150807
Ni 0.8909880231012989 5.016225866305408 1.6369202660012974 0.2893429509100501 0.30362208653688355 -1.4815352046635453
Ni 5.722398009522765 8.412855970335558 7.0520828990946764 0.3523018111307739 0.5938512967066288 -0.7130787496120945
Ni 0.2225994819046569 7.232757063570602 11.567996172329357 0.1823788887529698 0.23264189867357998 0.2522177639229785
Ni 1.1209788882046576 2.025758206822179 13.482865219455483 -2.781938248497028 0.15364346849149024 0.5324284135144574
Ni 4.842999240760544 1.4447581116216968 5.22348562741794 0.7535597404452764 -0.5798976627400142 0.37775187577276237
Ni 5.727562495728359 7.037823025418267 10.09717995972093 0.246850071853162 -1.2378028525037585 0.23383026255472633
Ni 4.049712065522618 2.116905404543373 3.0418768515804144 -0.5140933626506953 -0.8328391922028946 0.3811835271621306
Ni 2.5577647270027453 8.340543957599474 11.102884017590773 0.7349328693727085 -0.5991382561371811 0.30166521992082884
Ni 1.2237530842817617 4.813927141941886 3.8086115712696844 -2.1070936026654676 -0.8136618479434955 0.3813755885682787
Ni 3.400901622032638 5.739373611239549 9.704232523994207 0.5949725547952657 0.6813060851861878 -1.4747174104107634
Ni 7.892945947256866 1.4911924581832259 12.584600886377533 -0.6937034304092763 -1.380911740012512 0.6136601039024399
Ni 0.23278576352050387 6.150286278392685 6.014122436205616 -0.2663074092468252 -0.7192951628354516 -0.40130035251666374
Ni 6.2567428175753825 7.526534396534822 13.27562663181581 -0.7224216242795752 0.8840175148489227 -3.0865257842709743
Ni 2.55853801905492 6.609870315543998 4.426865931669453 0.7551651372591833 1.1960959596832756 1.328819647302963
Ni 3.666407765803666 5.754001719226517 0.3129991639754152 0.8896621147292096 0.12749689200310946 1.4494678918153552
Ni 6.738117120054043 6.379594989435732 6.142877404064231 1.2242780785444465 0.18334716620351002 -0.7982365145273608
Ni 8.392639906685853 8.447156996364157 13.737518577508553 1.554167583418291 0.6445511370543415 -4.017257672457301
Ni 5.497913167948044 0.9012230957632951 8.802990095929609 -0.18398582822877346 2.647163591885583 0.8957977953133025
P 2.247959995671432 2.4661204129622964 4.358298861871756 -0.02137563746229867 0.05134415879993092 -0.1956835762816759
P 6.802475271682046 6.975361280489643 8.294222843088441 1.4810194413693911 0.18805331342992776 -0.34709481300853773
P 1.3597236034557876 6.409421968591037 9.768758222233517 1.2545384200908845 1.6082805632126107 0.29167931235271055
P 9.115612740322478 7.029657429581615 2.5300109070158903 -0.574740544019107 -1.468470143949471 -0.21544841761342892
P 6.681418242085672 3.3278623465331982 11.808959499301608 -0.6674954045553407 0.24879151185024895 -0.7517080319485182
P 5.770866850650134 6.303407310581012 1.316501180668112 -0.2863627852358036 -1.5080090825843577 0.3968888537125294
P 7.490944550419265 8.51548287268844 11.51127151795925 -0.11234666662523231 -0.014519019551781446 0.44644455315346987
P 1.2938280735811987 -0.11760759469220947 12.683524272151962 -0.16669258836596454 -0.04593224375574025 0.9497688502131191
Ni 5.323655486333614 3.5199793922097555 6.75448881750151 -0.23863719702506644 -0.3439668089025173 -2.7153947562488394
Ni 5.264102792458409 0.6639816970850234 13.231001236304902 1.236766183709128 0.564835369090253 1.4195299666053423
Ni 0.7553498353925527 8.612153585068022 9.446305562920267 0.7521867713571497 -0.2174597916165029 0.9798170757487513
Ni 2.0230608904973324 6.65913086043907 7.49036826372324 0.44108174617965973 -0.870645721527707 1.0458859423533664
Ni 4.879123026626412 4.330674844479373 1.929743872101168 -0.820025071157362 0.31577826228344325 -0.5074254637122164
Ni 3.776905676544752 8.115736911003014 8.902924284886524 -0.19426689843980735 -0.0633524961147167 -0.37039029320136857
Ni 2.5111738808592285 4.520453602283879 5.529648521417822 1.4321512549137785 -0.46159760674482436 2.476823893685334
Ni 2.3482670218677884 0.09927873188411972 4.3430861819167745 0.2594901292146757 1.4364470540756553 -0.35771501172654524
Ni 8.686325181072432 3.884144713637387 9.483573636906199 -1.2469585508610979 0.36421013253258566 -3.6063902450774923
Ni 8.773384977946417 3.4776784757842547 11.707718999127984 1.1800718163408772 1.0144290093956658 0.8158714540003046
Ni 1.728823264644914 2.5182623913374953 8.436922844287938 -0.8871069524075239 1.8858694589105263 1.069344687596939
Ni 2.401430850454789 0.6949391555737447 1.4032590254074389 0.7419329548396254 0.8396148203638315 -0.4547931822284812
Ni 2.50613827666233 3.855965583021836 12.692080196357807 0.06332087154583288 -2.0883695438934033 1.0475558738566215
Ni 2.349021902204435 3.1046018840410876 1.771683897222465 0.6950954256607964 1.0063220640178152 -0.27103386818821706
Ni 5.214934306140977 5.54605059819591 7.852918877699068 -0.8463243711735231 0.8787084439311835 0.7012408764369019
Ni 0.3490520647365011 2.5494058081530486 2.9496093009693443 -0.23762623926204882 -0.6389214495723899 -0.2212082029153416
Ni 8.986491379324855 6.829236700201945 8.458009782082117 -1.8241095040939102 -1.9312494297072225 -0.5966764248602497
Ni 7.965386842001647 7.725344100805795 4.529266369921339 0.44420203697619626 0.39568274921957014 -0.5562504556347194
Ni 7.592347073689535 1.5226120507316991 7.49488189578492 0.10111480246515488 0.7411066022835882 -0.4193824068293551
Ni 8.34772452665538 3.5666162676420927 0.5796201371216614 1.2131760550940138 -1.8247345392724188 0.44518548393538815
Ni 2.4978253871014533 5.861618196487477 11.825681019344106 -1.1190466828077565 3.2259165994981926 0.052200079042323
Ni 1.5668185797143446 7.169227439141358 0.6656801778424783 -0.833729565227648 0.43988335499618436 -0.8203300039922904
Ni 8.078453187058884 5.940309868654002 0.6453177410543247 -0.12527545887175842 1.5394567595706778 0.5197883561529435
Ni 2.885484057542769 8.046352361035876 2.475658602191559 1.0322899488364867 -1.743530873908894 0.7815600823129444
P 5.744473656440795 3.2396334057231875 3.9348607046449446 0.09921450011864848 -0.6320308931001437 0.09805570392385692
P 4.190570895169318 2.8685728968303326 0.40758106722835086 0.14522876206523375 -0.6678764420438433 0.06355381349224538
P 3.9856761189163534 0.6702205068916746 7.5535600331725465 -2.350613838814448 0.9171775465406592 -0.9345654029998034
P 8.073629317590555 1.4170392738943447 1.3664217855648615 1.0331139873996789 0.34333637440736997 -0.9761260000504093
P 9.221507722181572 1.3273742192731521 9.145007044162874 0.14518531042180804 0.37152903479150207 -1.4929321336465773
P 6.930022431002029 0.4961432600894182 5.588366243993834 0.8791169922235117 -0.33108558206447497 -0.4795235950956258
P 3.015074917286355 5.539035734579755 2.6185602116760878 -1.3934947188838451 0.6123177309419325 -2.2070005008654503
P 6.444680403827091 3.226938527866655 8.431992186869548 0.612616493129274 -0.3289857621126528 0.6598764545575022
