# total energy = -340895.41757347545 ev
CRYSTAL
PRIMVEC
9.01204014546096 0.00000000000000 0.00000000000000

0.00000000000000 9.01204014546096 0.00000000000000

0.00000000000000 0.00000000000000 13.19003170386628

PRIMCOORD
 96 1
Ni 6.453828440483533 1.9738531061902733 11.452337646127262 0.09866274138023653 0.3264503972853088 -0.21747984622116093
Ni 4.567004607096602 0.2649557860901786 6.046165194447667 0.7194710262916835 -0.725288661414725 -0.5233125672561181
Ni 2.9429718677290877 1.4992249937888156 4.83154854294684 -1.1158364034005752 0.2515999278333215 -0.8331448963687715
Ni 3.7245680955108376 4.3927477966041675 4.853061184254582 -1.554393840496484 0.8729427450919999 0.050913756130731666
Ni 5.056953187942265 4.587921552543072 2.4929159843040813 -0.09008785522703194 -0.08216422950458108 0.5679695438438604
Ni 7.209911582285552 6.223606859968444 2.7181494005345423 0.28315327715957045 -1.056136159326465 -0.6668863102164321
Ni 4.815800002590224 4.447964567285133 11.38276018928992 0.3489290380037991 0.17745162665468148 0.43955682489470105
Ni 5.5869422636688695 7.90553294597453 12.324541827900116 -0.7111640490878849 0.8252986608514753 0.5219712227368752
Ni 1.8545336931307035 6.243604577308261 0.3740970008786398 0.05002055489250095 0.8542464542340772 0.7694758974549005
Ni 2.3637680401355414 1.5249814048556019 0.43130092643722134 0.6855975134726903 -0.3293917393018198 0.05578188285631038
Ni 0.5779592648334612 9.038896141275478 4.931251447969645 -1.2314450286065308 1.003558642340065 -2.1331581609630037
Ni 8.682352792417793 2.33679500363348 1.4189835897102807 0.47593279242057385 0.2467127749443493 0.22123365683663834
Ni 6.889434418553575 0.8450472996494626 4.680931215263812 -0.56658886144625 -0.7431603994888233 -0.21154831122807435
Ni 0.6648966148261393 7.310603108125021 2.533976642142602 0.6470759603587243 -0.9802384795568859 1.1153589495435243
Ni 7.58446999962557 3.727397876152885 3.7856183598529407 0.4385083290255286 0.3468019643584673 0.0076323197342771775
Ni 7.6460763068517945 3.8945081387181117 12.637065866101498 0.017114805303415685 0.34524027629830223 -0.3279308384855772
Ni 8.0758695189533 8.894757569336297 6.582643840366432 -0.7159637844693734 -0.6866259547372046 1.9225501021610116
Ni 6.9800685074614375 0.6627995130573355 0.3065760916289257 -0.5074529745160422 -0.08333253878106939 -0.17373458281441045
Ni 1.8781542506555626 6.577293392063299 9.10000047785915 -0.22704974929778315 0.15639352043280164 0.3662834701218466
Ni -0.00013427939989332254 4.823189875604487 1.457353252326778 0.542503281251956 -0.11251353122039978 0.5663284086960119
Ni 6.434993276337423 1.6361719575994818 6.948231672830355 -0.3172620459178213 1.2457902415846092 0.5584096680695674
Ni 3.2920532472504194 4.221942597531809 0.4815736918308394 1.162254328543482 -0.5993205473513162 0.048717519810361265
Ni 5.942584408500426 5.495055501164687 4.840346096649918 -0.22665199963873223 0.9684072912499129 -0.8611146421088202
Ni 5.173929470533897 2.974865478213817 9.424515035628186 -0.04850874623366484 -0.7362384755580095 -0.6355319642748667
P 0.19790079932197352 5.535510549897649 12.37520481463705 -0.6714762435799597 -0.6337139372295215 0.054703305080150956
P 3.8831709920694006 6.03844548075984 12.600820341374588 -0.012441568197462444 0.7812952586873319 -0.2805883446458716
P 2.07778896652381 8.363921361825131 1.412084872890258 2.326571453153264 -0.05352625405291427 -0.9616699725260793
P 6.320116799126671 7.7552751986979285 5.814298015380865 0.02066498454851925 -0.07585962744279194 -0.07823995474951041
P 4.714108140281751 1.0969455406050481 12.538299312061843 -0.22899581728056045 -0.5023722175590252 -0.772791849202011
P 3.882576197412155 6.164884405625834 8.187738678328857 0.6590251623008004 0.4799671103909476 0.5882943714441417
P 4.802029605070962 0.8847363249602138 3.5405602574556796 0.19023849400670462 1.0713352356644066 0.3993517134307252
P 0.24120906000166148 5.498786485832865 3.702284023556729 0.11880399221480184 -1.0429168324227134 -0.6477508749385619
Ni 1.4872840404425973 0.9648290303744369 2.7159594747510467 -0.33643810462563994 0.936961928256438 0.1561811473116794
Ni 1.9688153756842084 6.45450434350313 4.719340530857459 0.04263197573791367 -0.034893469443075385 0.4917432770902692
Ni 5.941520987749592 5.623630279572609 9.21908017064777 -0.2992764079736781 1.0905310918665672 0.1854726971869451
Ni 8.601686020038926 2.5066359143978794 10.27508761716185 0.054956558741537605 0.6454880470463142 -0.28023481796119476
Ni 2.2658522226965516 5.1371152860665 7.056824955570929 0.12319697907617491 0.7827559023932583 -1.037457351970039
Ni 0.6076962940836622 9.020962181155499 8.908283740564478 1.0468665610990808 0.5506719331056774 0.25944230669587576
Ni 1.222366104921516 0.9359634654175033 11.316783943740992 0.4923444010093779 0.7973435703994463 -0.3354718840576287
Ni 3.876114564544805 6.788454507425745 1.5806803196905468 0.529800746083623 1.2318047259387945 -0.10210262029972092
Ni 5.73524439820877 7.961272414990651 8.096225915495518 -0.9392684649024275 0.27646249540295614 -0.7082625591703737
Ni 5.100039752431526 2.643844227376124 4.849447356109802 1.6468255133653442 -0.4521580585984793 -0.4970945140998536
Ni 0.9270235214782968 7.338080818881715 6.779241498666622 -0.22779459788360765 0.14350252340274638 0.5326814100655277
Ni 5.120280794858398 4.548124382749186 7.157280365955552 -0.3056928530229832 -0.043973834477788784 -0.11515405416704039
Ni 8.045868436923444 7.4404936444110925 8.824909751291116 -0.12137483826577163 -1.1731501495203795 0.0917852975341129
Ni 4.65732327459532 0.4126577187486766 10.21838385983777 -0.1319032486009212 -0.6237360000812032 0.8304866328103182
Ni 8.280298640240558 7.020081966221595 4.788337612301975 -0.727907587094811 0.6672622054986121 0.4445051700389118
Ni 7.219662609848275 5.990411306167128 6.83904449663656 0.13762858112047263 0.15776186153523797 0.5659010913506061
Ni 2.339949217724934 5.234283104163803 2.660468738046138 -0.33498517422919727 -0.7862402613974331 -0.1935495606578086
Ni 2.1717214621673064 5.218115503935036 11.347265367516778 0.9106135201698963 -1.5538405390961756 -0.971047042865605
Ni 1.234541371314528 3.3100142434911843 3.9429091033494585 -0.3548376901787502 0.13567608537979214 -0.481893380879383
Ni 3.549869695045599 2.6574433961304207 2.799583998743673 0.33582566785262163 0.25369100603439537 -0.7028542436706089
Ni 0.7299698539408852 3.4367776018065856 8.021372810289213 0.8218564679391459 0.12321909056336199 0.46952123246727523
Ni 3.8034955441192753 2.553074957864342 6.845599854722628 0.4934738866281308 0.5683976325202147 1.052601406700329
Ni 4.142447390386909 6.79974659387315 6.094796867309703 0.26555047647614266 0.1184419808896928 -0.4700431664090163
Ni 1.0908173532273664 7.2462030684177945 11.418241493002672 -1.1178164099450814 1.9330880255778582 -0.33294886052545886
P 0.09934873184053608 5.669005902288239 7.948774517556284 0.32052734693265444 -0.6247040204214273 0.010930530869574726
P 8.42999764102096 1.6993733959519566 8.007259054035996 0.32006891923899716 -0.5060923467230897 0.4123823213624382
P 1.6590895759839597 3.2287797125758546 10.24248205549648 0.09732088264036141 0.34117021999398667 0.22984813797852674
P 4.020108943839805 6.347576485802843 3.749385451982397 0.4873829432390445 -1.997603174542108 0.1766692399627022
P 6.78279494614165 4.08226498552197 10.498065319714907 0.4988294945130893 -0.3778449497072009 0.19691153515150606
P 6.387364643556469 7.745839592544351 10.212526934871955 -0.4624275588452874 -0.017573490107389088 0.33367134051378017
P 2.4025558614201628 8.484862942131734 5.470671623829697 1.7917169466958176 -0.3022185213211376 3.3362709182837444
P 7.01253888852289 4.018000126418662 1.648411209478349 -1.505943972525213 0.010895049645948977 -0.5524354527640034
Ni 5.47235417174648 2.807953480534339 0.3569002256520332 -0.46739801547668536 1.2134071972682134 0.7071577561419692
Ni 1.6226358731270139 1.2337933719728404 6.9264549787429575 -0.312304701912546 -0.2795161946276154 -0.002800188452956468
Ni 7.091511397332634 0.7757600305085343 9.408766495271571 -1.0111554808507166 -0.19149962010731536 -0.9197949295588482
Ni 2.690301294923109 1.616228312501232 9.068845854675846 0.1127151057082446 -0.22521629563347018 0.7087240721878245
Ni 6.4992941836017755 1.7716139106865116 2.4130765172212008 -0.696885941902316 1.0659230635098995 0.43105855761570283
Ni 4.140744114777524 6.782560633094857 10.50526684108771 -0.21355994234146444 0.7787835480090716 -0.47507224419249156
Ni 8.369553886988442 7.0180722812433265 0.578728893071776 -1.3591923460575495 -0.30738772422690286 -0.6389337908675641
Ni 7.335972001460572 3.9032408057313086 8.292018798600374 0.5367216415731724 -0.64655556907888 -0.5269491355674408
Ni 3.1374697206483955 8.451905910896171 12.386508616736794 -0.2940637534244871 -0.36272994844263334 0.4522238788394083
Ni -0.1889401276901661 5.209860475055688 10.141960857217947 0.08811401933011276 -0.6395709102309308 -0.1691384788032958
Ni 8.628343635131841 2.2036240846922968 5.911297308325282 -0.059201450060820615 1.520370432363188 -1.0985228518227919
Ni 3.3982961898908477 2.518856240992198 11.441284378746781 0.04748930383021499 0.08708197852117261 0.054542868242886705
Ni 1.2078567201008281 3.369836166745672 12.651298581286165 -1.0534372723380632 0.25272221436322284 -0.5550808608066505
Ni 3.0789275071110116 8.379566263718742 7.813642578654243 0.013903240344653475 -0.10866510400858705 0.7039510762792134
Ni 5.704279027870954 7.870944735451673 3.597541585619807 -0.2814915731864313 0.03423655258536684 0.09065324081219872
Ni 3.1862879427438404 8.363813217341995 3.5344536989746245 0.3567701313147727 -0.20506578882752424 -1.4122501451144773
Ni 3.1458509180914014 4.253673991291835 9.012881084653193 0.4911658073202444 -0.5015276101705427 0.9793596764963585
Ni 7.144015543894949 6.276588644664608 11.68553770594871 0.4711559398572208 -1.183146341501143 -0.832608050028695
Ni 0.4323751616363679 8.964321508113247 0.22122305831418354 0.10568545255497283 0.8653063115926646 -0.08268667766695437
Ni 4.385339899509382 0.36496780409394614 1.369310124994039 0.4280195136790628 -0.5681099260764668 0.4922937502771006
Ni 5.782097995527252 5.740949019694171 0.4663352329530127 0.8632347737756165 -0.40442989928458084 -0.04815984753467835
Ni 8.014236175606293 8.726430681335795 11.36603474376898 0.07728941791078302 -0.04969556745291442 0.21635010349209194
Ni 0.1946970190090825 4.684395443540255 5.790028590957193 -0.7016157432778174 0.21613258816464714 0.06103747482829487
Ni 8.072760365063154 8.868640676659059 2.417561809659248 -0.6507750064768663 0.5690977439110327 0.6887545710444332
P 8.591141932933208 1.7369626158818252 3.6214685525135497 -0.12045181223086998 -1.2976648189667137 0.19967495682925612
P 1.7556896355448002 3.2287166282940256 1.6803309548798362 0.09903786533146815 -0.03724474328407134 0.176854873610947
P 4.689865751978862 1.0779211236134505 8.15637317340344 0.2757312736638864 -0.14442657787891258 0.20550493324747188
P 8.562880174673781 1.8552186081905622 12.475659323817645 -0.6004150659670757 -1.3184305907591551 -0.8942692744839179
P 6.370467068066537 7.842088182535001 1.3526901203441555 -0.2206541301840845 -0.9972884930606372 0.027506432950384883
P 2.0058909093191835 3.2721636743937377 6.002506365401814 -0.8821023001040809 -0.49076060146202577 -0.1800900927187931
P 6.747918350330432 3.781686406686937 5.859751141642742 0.5585724188996767 -0.41739982918168755 1.0068540252618854
P 2.461638797373225 8.523912112583934 10.241295169794066 0.2881386461893038 -0.008517807663024039 -1.2922523897018907
