# total energy = -340857.07661714416 ev
CRYSTAL
PRIMVEC
9.42370059364151 0.00000000000000 0.00000000000000

0.00000000000000 9.42370059364151 0.00000000000000

0.00000000000000 0.00000000000000 13.79253838104490

PRIMCOORD
 96 1
Ni 0.3452909807524049 1.1537813398062793 10.296653623026497 0.33589045965228603 0.2459098194270797 -0.6292237626686519
Ni 3.619869508239111 8.565625397440405 0.21360230604831199 -0.5338630890784548 -0.24872080651331357 0.2230059182457127
Ni 5.613472183955807 8.26451932094621 6.277494388137406 -2.1085398481936912 2.3256191165423235 -0.7866084433701291
Ni 9.06317793332988 3.3490794760639515 5.600308216809626 -2.806295080074838 0.16273771748327456 -0.7256925817213631
Ni 3.7136447513285487 6.819102723589047 2.4117906912312708 1.101130207538652 0.6182716345325223 -0.7387733261647212
Ni 5.320178355127288 1.3642408417574827 12.03765872026959 -1.5082713351068089 0.7637906741446652 -0.87509450132768
Ni 4.678848421607871 1.1533101547842242 4.861759620059591 -1.305537536846571 2.1162112486960196 2.292253139487369
Ni 1.2424395135561974 1.2521836198123002 4.806795887236845 -1.199759524577792 1.810248429841102 2.309385428292281
Ni 8.332068405708053 8.58511360995261 5.861152475539243 -0.2757346160979961 -0.25752092130344684 -0.250799029198581
Ni 1.024082950635348 1.98391511166324 13.712113644997595 -1.703669261827266 1.9745684042098315 -0.6141527272681423
Ni 5.61529095814094 4.173832314969041 7.109239612769795 -0.18824100396070162 1.456889381090407 0.5597147600342361
Ni 2.7523047982300795 5.687853451537451 11.675755640379604 2.006504590796796 1.366770929735756 -1.6951787078577514
Ni 7.598150615354776 1.8345777307730453 10.564160437967976 -1.826072798467868 -0.03418050253645081 2.4654861000750117
Ni 7.0572302100353355 8.426663510735867 7.93109560615929 0.46121091282936694 2.541729078999152 2.22294622556143
Ni 4.635358044072171 4.344448411455252 12.958669004960303 0.6136235942375498 0.5691350249068714 0.13657777125845508
Ni 1.8172569693622942 6.709825493273991 7.586764900481834 1.341880080031347 0.532040176937103 -0.37018769027225923
Ni 7.61173016769041 7.806602869112025 2.657890628250734 0.5056699144736904 -0.9229848972510555 0.615633682689043
Ni 2.6014407778684254 9.392583382248713 7.567069366559923 0.6121801769228038 0.09233988448600226 2.267923304492752
Ni 6.63078891767444 6.46230257748792 7.065186640317761 0.8516990052218751 -2.7498598799052445 -0.35361898728030067
Ni 6.865373092754874 2.5035568013866656 6.206573503357736 -0.10674603260900326 -0.5036976212386679 -0.5399278072152959
Ni 3.8197084997931885 7.390367444328848 9.09902003558758 0.05580733677760712 0.01737242984017653 0.00897726379794583
Ni 7.307900641768735 1.4081458621125922 8.480204264792006 -2.12540474226983 -1.3280048647111515 -1.641895423053579
Ni 4.842858504084867 1.9550785883134583 9.602116534446555 -0.047712475584614604 1.9026297090880009 0.9400104852747745
Ni 2.9341068271398822 8.874261010587043 5.518421914196687 -0.5752575928648415 -0.904912613130377 -1.377466461776389
P 3.111112192525162 4.990113247177577 3.495704715967196 -0.05057334207217742 -0.22368803191440187 3.2261341148256375
P 2.6245759624513387 2.2171988160828002 6.012470718262159 1.565750146049568 1.2225161015480173 0.04874348795229025
P 5.021032408324843 0.3060309023447163 8.312900599010845 -0.054895880706931265 -1.0411715675968327 -2.298566740410222
P 7.016359621222262 9.418442016259107 11.763145384050148 1.416262351597664 -0.3165436796945581 1.5182816681549594
P 0.824686873002002 1.792359552796894 2.727860661655897 2.093227643316653 2.9839295121642864 -1.6863415691820958
P 4.309052992598461 0.502680913669524 2.107734054128966 1.7330343452529442 0.023184922756895553 -0.04649557245837799
P 0.49604191670876546 0.11528483934626099 8.147211213115245 -0.05575668604532979 -1.0182589246647173 1.615948364170514
P 5.0845858440996565 6.520154674495865 0.1776669091562454 -0.19729591507411828 -0.5890461620085017 0.4090270317369601
Ni 0.6815493446320103 9.371050226740788 1.4275690510917542 1.6253084652291752 -0.8069682379734038 -0.37143056154042486
Ni 5.5005291341691605 7.822349872549112 12.280944740337338 -0.24698608321039403 0.27248885546718876 -0.17427065782353857
Ni 6.727994387724442 5.0091585457690515 0.4865880604262487 0.8577655231309291 -0.44785711723028027 -0.045705986677547085
Ni 0.47602597697185794 6.158539017469334 5.6383479260101925 -1.257912221659124 1.7352634916937792 -1.0723405370004693
Ni 8.465281835143516 3.9558527000658357 11.34343826802447 0.687070755584107 0.2854287034573085 0.8599013385270095
Ni 5.121460783925702 4.640456266010808 4.719916908130207 -0.7056076380460299 -0.8956946940765348 0.2882486894046068
Ni 3.0339320859125096 3.1132702199261746 11.516935189735525 0.9251541369882325 -0.9316243180936086 -1.5555567504563337
Ni 2.543701765265774 1.0955711421815721 9.891981078684557 1.0586013330375057 -0.2759315626001506 0.4300848808485238
Ni 4.623258012705791 8.702259630135991 3.9045293427234884 0.0007962706490502416 -0.8699463814678373 -1.9434763107907174
Ni 7.568673280374999 7.659546023728577 13.691259938291473 0.3103558057162913 -0.13555807174468912 0.0800330420941912
Ni 2.6486158222765988 5.787160406785818 0.37936519680735326 -0.16011005005244036 0.5075141667712808 -2.062165631804526
Ni 6.438017701451193 1.490867104584614 3.293809472976869 0.04901705332865107 -1.8601741110269512 -0.15974418207258942
Ni 6.976544486858592 6.896433609408756 9.762964965425562 -1.5324682440679867 -0.8052869936162389 0.599741951159451
Ni 7.007868867124827 4.507346497280197 9.767641005584437 -1.945892633541694 -0.09698329679528458 -1.2489043617335587
Ni 9.055365685664205 1.6423248180740573 7.027835803619441 -0.08417843172113244 -1.018628392188994 -1.112031170721872
Ni 8.01879633194439 2.5403563516091814 1.7096128663336811 0.6796358965726167 -1.1616591181616445 0.8936910333829448
Ni 0.9534051973270585 4.459153693224384 6.975851844876171 -0.9037561309284305 -1.1972994930730734 2.8652047099268527
Ni 9.386165842248321 0.1075055746321286 13.1116147207494 -1.3635850758086063 -1.474310661890648 -2.4912485537510967
Ni 6.025089995522843 3.7045508804028824 2.7471151663971627 -0.2789821765010163 -0.6513211087883235 -0.1257058615409577
Ni 1.3634115561186655 8.11616200490189 10.590531721282366 0.2737777494819414 0.6873852015007322 0.17655148343791532
Ni 0.9111144568575106 6.916901886766838 12.731864094594004 -0.4704203472427769 0.5662085952886958 -0.36953540140024105
Ni 5.561632407829287 6.826839581651194 4.48304371621263 1.3849859100818858 -0.8775146807333984 0.6089225892174546
Ni 5.639811426688696 9.212439924616545 10.200244455663771 0.2833939324154668 -1.6925176160858206 -0.4456086875157358
Ni 5.566796595671012 8.172845563055139 1.58571476478425 0.5585405372204768 0.24226039559995055 -0.08689403088008261
P 4.811948766638042 5.630661013560383 10.144260136083254 0.4083372047587871 0.47880625731362697 0.011306683262070849
P 7.782619551489412 6.250222199060847 4.573288841116831 -0.43215641866557186 1.1052719976211673 -0.23453834436534446
P 1.7534679410764527 7.360682787939366 1.4628777719044872 0.4093833866351143 1.5447825426589654 0.576984088637645
P 1.6246365323461027 6.237038442143741 9.657163195833185 0.4342035310025877 -0.32683323454602425 -0.1341748182439173
P 2.73022506809657 3.472718425851252 13.612917889414433 0.37743794407676934 0.9381770316104616 0.37949302683358516
P 8.894305221425274 3.933414869315564 0.3438161716333719 0.3413288570590379 1.5512619797357219 -1.3203509477103197
P 1.5087532880218315 3.451100457039357 9.81380488693528 -0.9275599182162477 -0.5174486522761733 1.1427167727311869
P 0.774985334505569 8.550764221844782 4.758081010176595 0.9081694295047779 -1.7453612422494136 0.03457799508518561
Ni 1.3529418249285976 3.757728821992039 1.641049791404376 -1.006661449635105 -0.1250250334238492 0.6733621477487629
Ni 1.2930165138236094 4.019773660157853 4.435969505399178 1.8149862016364033 0.395602530800938 -1.3648785978090494
Ni 3.626993825772586 2.82435841180277 3.638733871782115 -0.3933918963028644 -0.008997832623236118 -0.0513636991839567
Ni 8.862594469440955 6.935165018221699 8.295412095732242 1.5591305838505212 1.0773439037523318 0.44093802151294387
Ni 3.732473304809877 4.404496230665974 1.7322467100531278 2.6745301568239936 -1.9617761375411698 -1.7926592560044288
Ni 7.164076125636587 2.80142112492912 13.299717435774122 0.27719680246581935 0.6941662289783076 -2.0579965880285007
Ni 8.68205521639026 5.361623789667269 2.79915378260299 -1.466117070336262 -1.8043798868754668 2.6380775704239148
Ni 8.76082792837746 3.0522894543717825 8.926889550440483 1.8445112076787138 2.0028235424007828 -0.007497593928625796
Ni 1.1555153006874428 4.284730421759968 12.267910820257246 -1.8399246167492957 -0.23642707674762506 1.3120971923419598
Ni 6.3928593289374165 0.6372127187966985 0.024824854072003542 -0.08540690481159485 -0.9735988627531813 0.6335884673952507
Ni 4.49586843014293 2.1919715700019617 7.247385407016133 -0.851440609354166 -0.8762689812517553 -0.5193605245869056
Ni 6.785158554600186 5.812434771368862 12.07969784793736 0.19740801517195034 -0.45984694260230485 -1.077141043712906
Ni 8.434061115582136 8.605129549689519 10.308764020463363 0.15791509928365063 0.8610673338106526 -0.2499791044004469
Ni 5.276084860763357 2.5994712244762344 0.85531295706555 -0.6293492325029226 -0.7478277230575056 0.2747159450254946
Ni 9.020252977820645 0.3807316333713135 3.3858611212556293 -3.476880436409412 -1.77998500297087 1.3691764538534548
Ni 2.4505484864054488 0.35392309035645725 3.2203649212190713 0.8206115397884512 -1.1270412709774589 -1.3759597953238756
Ni 1.7630329970241745 2.2060882732627376 8.026898829583654 -0.540579581866682 0.18867500617432667 -0.9317700996428534
Ni 3.3351135520102337 3.84896908966282 8.767433942386674 1.0803909181087714 0.9831913915376228 0.080582486839758
Ni 2.950777353220197 1.7299935032776594 1.081245232771004 0.38150311528507846 -0.26492055620162763 0.843686933550676
Ni 3.5650989612754067 9.006475527775748 11.385933502793588 -0.7064730713701187 0.08687500471668909 0.626606893871095
Ni 0.09155973111573443 6.187564014827938 1.0720514706206619 -0.17147149781184662 -0.16467375816372284 -2.4740203627982686
Ni 5.9020447388633315 5.8122934158622455 2.464782043551694 0.1684818190559034 1.9865944821364303 -0.15946778848275117
Ni 2.9572891302250004 4.794656276328613 6.21477966170185 2.5216850158640827 0.33812166297564994 -0.6592339358774969
Ni 1.8511728672498318 6.668964328161358 3.6656564415723087 -2.169519216090541 0.908327552349197 1.1070409165961321
P 6.60281937476524 0.5098231362338378 5.384206745404334 1.6344122273026562 0.6282287457452341 -0.4174980453224487
P 8.266187315924286 5.056842470001043 7.648197061287354 -0.6546627715670467 -2.042592337658289 0.08614712541172904
P 5.744876262906579 3.288419116324557 11.232050128810604 0.6119863157444428 0.6326867815165879 0.4176715947858355
P 2.396522411776592 0.5776162948371047 12.938256327434825 -0.5919155131364967 -0.8289398571484885 -1.0019231636191712
P 7.916332437048254 9.44480953009332 1.2066322789901298 1.4985546220396773 -0.5206879851490773 1.4640553027112269
P 4.407917033926095 6.624955647101397 6.899496312052116 -1.559277908061663 -1.6262271203887024 0.20906668245680124
P 7.768898643647162 3.2009389051297767 3.802851384444139 0.42513807836620976 0.288047114916762 1.3616611193130161
P 8.877238899926432 6.4594566199547065 11.096290415515956 -0.8132630698431801 -0.2357683601177036 0.37847384154045144
