# total energy = -340856.8841966051 ev
CRYSTAL
PRIMVEC
9.37888318423195 0.00000000000000 0.00000000000000
0.00000000000000 9.37888318423195 0.00000000000000
0.00000000000000 0.00000000000000 13.72694357216707
PRIMCOORD
 96 1
Ni 0.10803535748115123 7.535642038373392 10.554976581176545 2.1393059257319544 0.41921682778576835 -0.44987029100556714
Ni 3.362929934879027 4.259138513702613 3.685396578510283 2.402737041872249 -1.7488887957866974 -3.963940191981083
Ni 7.752819461572762 2.3554971782301983 12.159354630462655 0.40829940954231614 1.6828204434027147 -0.8474870240230565
Ni 7.103903900433481 0.9615418803440045 2.896055686188909 -0.35914814462864597 1.2330905346297538 -0.965182356554712
Ni 2.8956364501024945 2.8522028412392935 12.321730300272137 1.259018053128793 0.8152358772988347 -0.7736629389530547
Ni 6.171380285220711 5.4669886289776 11.71325648420263 0.5840592503168716 -0.018744370487038687 -1.8597105411269712
Ni 8.34949464236913 0.6187680784509036 10.788567988152959 -0.5470135104174837 -1.2423133387796024 -1.243895595665058
Ni 7.546793530694347 0.42494501271865937 13.281532397751938 -3.410407906608475 -1.120598857786225 0.8504491919751741
Ni 0.9830664176666228 1.9892236461778152 10.958699994505276 0.20069851299776403 0.8292895271784234 0.2971899577582946
Ni 6.834223488156979 7.887397058976793 6.556152726822171 -0.033454165893387545 -1.0468853301521583 0.09964695967037676
Ni 2.7148209577091347 3.7375412942428734 1.0258059891608156 -0.5139498950942955 -0.0941766805844249 0.420759746792856
Ni 1.3083636082974284 4.805055177727734 8.519792654957007 -0.5628785024741984 0.2829288198535902 -0.12831038904334033
Ni 8.817069493646612 6.55229425420582 3.6474552437456116 0.3614677939007581 -0.33191270595146066 -0.17070196663567377
Ni 4.160885331571131 5.476601984426701 5.396541960246598 3.2040838198938175 0.2756366570675511 -1.6471612994382085
Ni 7.189139192454377 2.4562545222201284 5.000368548026673 0.974711893311702 -0.3224158222046189 0.41305826438354015
Ni 1.818696788835833 7.3049402653617275 4.914149411140791 -0.1622000998122497 -0.4876084289862893 -1.0274989552057465
Ni 0.7539055951918243 1.7748411302212082 7.310860216541701 0.9419406124179519 -0.7185963369962141 0.20752196367750067
Ni 7.809261581663184 3.9712630676980596 3.3010827643053697 0.29913628285138805 0.6346801577975327 -1.2324883822693806
Ni 7.705587404946746 8.590766416933121 4.191137857753195 -0.17691940830029532 0.6382467921028686 1.7964878857218998
Ni 5.171281815363292 2.201195789109623 3.812480448105699 -1.2910581122834732 -0.5232711724952214 -0.4422621396410061
Ni 3.6718047007377606 0.9976974757159844 10.814168588185996 -1.125799428150558 1.8479138056023594 -0.02781342266784242
Ni 5.962859571367213 1.295251929353193 10.87088832322402 1.8136584839639152 -2.2528797798960687 0.3639964738598828
Ni 7.653694043288337 5.311608668270053 9.730221025269024 2.262292845679852 0.0748188448831034 -1.1226436561303954
Ni 6.947360958188677 7.5658139061585175 2.4140617396261135 1.95841364882684 -0.5377577961471707 -4.266953441289374
P 0.6171352148570616 3.6154751272477186 2.250600933011304 1.256161043295972 1.9704289281201615 1.9058983525369435
P 6.722642912763868 2.150380999038187 0.8160904055666205 -1.739989950635171 -1.2150707010135653 -0.05570757797494921
P 9.263917012687498 1.3933081549340103 4.189613789206387 -1.8095282638456254 0.4959238908305201 0.9995014415515562
P 4.218649874216014 4.451574442585177 11.698032680724602 -0.5259680026010942 1.2786509968683721 -0.5976776124312546
P 5.2585335673076585 8.654430277214574 2.8414358831363016 -0.7926289385325962 0.6424762568031839 0.7360001342949583
P 2.546535653491381 1.513751775107024 8.7922173285061 -1.3321949915330993 1.5121601286382538 2.051402222640435
P -0.0016319257055057135 0.3691115821586245 12.612343442330927 3.1013129698824784 0.03669092766313036 0.31543167757730195
P 0.11722291162548111 7.516424706358558 1.0358038788278794 0.18820140897201781 -0.03130343809897189 0.8116774705236149
Ni 3.6258294144826517 5.476386270109306 8.708963794540223 0.9562724556595918 1.1956185058262248 -1.7241149312761275
Ni 6.569926554931973 1.7286313718819746 7.8498074323383085 -0.2919122542991231 1.4518960416408737 -0.418538313661505
Ni 8.15531424118068 7.5419915424114805 8.55185811929352 -1.8029693796811852 0.18780160243043786 0.30457802269224965
Ni 1.062646243018439 0.08187952755290794 9.277478878033252 -0.7429243722186173 0.04929781779386349 -0.813994805802882
Ni 3.8232736670821126 6.6678045817288565 3.2888930295959113 -0.42388697956792804 -0.2208634179814132 -0.708814832129418
Ni 5.932359442664312 4.951150043903956 8.1996529122886 -0.1378090725623949 -1.370268401366053 -1.1741181698606038
Ni 3.221280659417804 7.939318557285296 8.013158506017747 1.5338625533123518 0.392515407235182 -1.3157363317564434
Ni 5.408070483678825 3.2363150094518596 12.991248454499258 -0.23959519006296157 2.1077361213454733 -0.4107468426415442
Ni 3.755501855886801 3.066435295062061 7.920528902351905 0.04455824622634907 1.4482389045042605 -0.2970560032835916
Ni 2.4824122279250447 5.753419726943948 6.509234862788881 -3.290486770070094 -0.40511098451200556 2.5717762760935194
Ni 7.747379709221076 7.1490163294190125 13.220597792529691 0.8419113297074919 -0.4218918035147702 0.6328847564600067
Ni 7.484658428401386 4.217543165978947 13.496385733653465 -1.6358132214152408 0.2765730528388914 1.9387323683478288
Ni 2.094267139865539 9.071415431621379 1.4160031769005776 0.04747439143187953 -1.6340728416853665 0.06760407230221906
Ni 9.08190102322342 7.650158204259742 5.8205265753086834 -0.24290779937596232 -1.1383289280761362 -0.09431706281703112
Ni 1.7161293203564625 9.189439299886228 11.469781609936206 -0.09357170001057433 -0.4553770797564093 0.11744670685595904
Ni 7.342268221154329 5.146005724694683 5.486961898991653 0.457096119330045 0.046839843171674174 0.3643312314914822
Ni 0.6495664556448099 8.938310318905648 3.522649504919548 0.013491092507899347 -0.8884256712189474 0.28652373629370004
Ni 0.19257942579804868 3.454402184337632 5.226409953894281 -1.1306657551039236 -1.3055439646044742 0.4502109621744375
Ni 3.6459189826504286 7.089000854766535 11.695630748694832 1.6622691016139244 0.08099412045587986 1.0564225802186322
Ni 3.7012356367370534 0.8725719169671752 7.299480817354976 2.1306006846484724 -1.9590463973148327 -1.4246441479034562
Ni 5.814804518567712 6.78264900853298 4.083985053196689 1.8857905260434746 -1.3119928055536114 2.0698946250176675
Ni 5.434153158316822 5.9825270897835665 -0.030501066591236387 -2.950768966251918 -0.15659329514843354 0.3482685216016647
Ni 4.871682765152519 8.39123067334327 5.559384698447655 -2.2304080811561136 0.06700989036164588 -0.2631002151634372
Ni 8.888386522753885 0.13083167138806034 1.4454472433365815 0.5099168626755025 -0.3469495456799251 0.2736211692994191
P 0.957115047395736 3.4659569686432814 13.115271056564346 -0.6322766905623627 -0.12923161530602903 -0.10210724828541125
P 5.640366666862535 4.388473315305623 3.8261661147118713 0.5688889703343363 0.4312220797767606 1.639176481460519
P 6.786119195378021 5.6088442398728535 1.3486477881266707 2.482777025944976 -0.27570530552195743 1.9882412737112338
P 8.319632277735048 0.6157208792456234 8.601055989872835 0.5476416309197859 -0.5488407934342096 -0.9478559494611224
P 7.1783159610511955 3.3867804352761595 9.431357279514065 -1.1352083801692836 -2.582628902537307 0.0920362372026544
P 6.1949587980002585 0.6421243116947019 5.878247975090088 -1.7530187587946715 1.1689515380579998 0.042801411436242415
P 2.345639971813609 3.7620295587088237 5.347852425145664 0.19996780547932658 -0.5916404050982392 3.5971252748357982
P 3.382831925379505 5.843710237098566 1.1759347130723128 0.36328839204926466 0.17855462991087315 0.5639262270124223
Ni 5.756786746071974 8.065155035393172 12.675569308759234 -0.5498080424434854 1.3623473467467635 -1.3673800240746645
Ni 3.226082647700671 9.07624555655434 3.7135229118335076 0.10281841541982292 0.311552911348186 0.2634239170514431
Ni 1.396600142995117 5.116518515395201 4.173389258873317 -2.1530448725846014 2.028635104147248 -1.9666666328642515
Ni 2.8399446406812707 3.9384275970372804 9.939625229935503 -1.140315876599178 -1.9013958366808996 2.837547610331216
Ni 8.633543503960773 3.435175473439432 7.610094428189576 -1.8851703759609728 0.17639618880697364 0.48760688632439253
Ni 0.8033285589718985 7.586738194945778 7.795091964675378 2.1864617574821503 -0.9722474909316094 -0.17394669882521654
Ni 5.514117517886602 6.916288717600514 9.427788614393693 0.6431827959519052 -1.141452818417099 0.7891139834008023
Ni 8.710515999737126 2.5358155898052144 1.0314698968249243 1.4938657012044403 -0.4282501416326302 -1.1373719634795056
Ni 2.411479733035736 7.118863219400617 9.873090493456031 -1.7903169810244974 -0.09996243402826654 0.4745245992191376
Ni 5.010246387986665 3.064634549455986 10.152680633895967 -0.04562576825891497 1.7404630336168478 -1.1075638789791378
Ni 8.94879591050769 5.160890012594899 12.241565232598346 1.3443822776279104 0.14710669581423697 -1.5184814428705913
Ni 8.200848719917635 0.547637689122594 6.188504250468482 2.425704192191384 0.10297062472697106 1.001940647120668
Ni 5.09587559310889 1.181017129967793 13.173707127258162 -0.8495518769718852 -3.0461460949023476 0.304035005704586
Ni 5.33401482062898 3.592778229504478 6.120185650372992 0.1609240613133035 -0.8412004196833964 -0.20389850799230047
Ni 6.098722075792246 8.978217467623619 8.613739991735628 0.20506398905531137 0.9125030238831253 -0.08015465527372001
Ni 4.341269395329702 8.045571926927103 0.8706614384257296 -0.345561921303779 -0.3820368763013614 0.21503858376951998
Ni 5.508837206552121 3.680452031200268 1.7458753868368182 -0.3637311360136381 0.8379741994366148 -0.049319672170734415
Ni 9.280161238675635 5.331454385470342 1.0177307705835719 -0.03720823361918108 -0.008408792888985519 0.29522023562643346
Ni 2.0959647177545997 5.365546626502027 12.281482698088018 1.86483037885204 -1.5360356497042706 2.593130059178947
Ni 1.974770786912388 1.3441252905680796 13.706051609165828 -1.1903492870074854 0.0940301277042316 -0.5821741174790167
Ni 3.0093835475529156 1.8065886504116497 5.272052289789934 -0.04774641414634358 -0.5832570661305504 -0.7355514767933138
Ni 1.887603444918307 7.020947677070274 2.4470332040956846 -2.500949068868312 -0.9440908259917353 -0.7950874273754178
Ni 0.9091036055620907 7.380712264067364 12.769969645604384 0.061576635161216524 0.12836001133435315 0.659104095167852
Ni 1.5571103529033052 1.6814743463228785 2.653116346162625 -2.4440271588702878 1.4476935735237517 0.6577750919437833
P 4.830865864748146 6.55983487643126 7.08157934435983 0.7610226244812248 0.6183474820757803 0.5827256191071126
P 9.081225743621141 5.426396821773987 7.274799347891706 -0.7552990917338863 2.5478871281807476 -1.13520529484549
P 3.425852863374647 1.2802269582025025 2.1333039282072397 3.064046372221536 0.5399234363399217 -0.8698949594046116
P 7.6055897505093775 7.025261963418163 10.807291053014458 -3.658088959003365 1.3137604389769957 1.9933305153086833
P 3.4092147242851807 9.025655859683663 12.671616109420897 1.1482490154033258 0.1188996372524017 2.019863271491889
P 1.0351192203422361 5.492799315998012 10.640014916646779 -0.8571736551832011 0.0854254167543561 -3.1815414158169273
P 4.527599671141668 8.649159344763458 10.086008965719365 -0.09682440261991712 -0.5471340951557481 -0.17669469388399894
P 2.5696264643359505 8.829852911673072 5.98751477995706 0.76472012793747 1.5988196749100272 0.7500422142103211
