# total energy = -340885.0557541508 ev
CRYSTAL
PRIMVEC
9.07133494024758 0.00000000000000 0.00000000000000
0.00000000000000 9.07133494024758 0.00000000000000
0.00000000000000 0.00000000000000 13.27681562964208
PRIMCOORD
 96 1
Ni 6.544687060859435 2.0683460440566384 11.371420188506736 -0.2006380920734738 1.707990514910439 2.500650820901603
Ni 5.05137294858071 0.7515065918820423 6.284885837957825 -1.331120784632314 -0.2908226207793701 -1.6519990871464838
Ni 2.249092395857789 2.1874073172004325 4.676598903263375 2.6944716329429275 -1.698780309166081 1.6246600330118988
Ni 3.452024000357009 5.082678125999319 4.949065524226955 0.20089597372055082 -1.835340082702407 0.5729199458706005
Ni 3.582705653759638 3.2198159645524496 2.6141256415483203 0.4454909309909489 -1.322489077099245 0.9447927371547664
Ni 5.396265108956105 4.96006088949763 2.7667953040917674 -3.3788383593323097 0.42337018783250957 1.6721405950913653
Ni 5.64327756363843 2.954116559570984 0.7249248586482699 -0.9643565182193069 -0.22565672560499847 -0.26400447214526146
Ni 5.362274816348882 7.937091641522802 12.81082607770648 0.6090624572294284 2.6462068843992683 -0.8990777516161549
Ni 2.5575903598253436 5.326443042717035 11.453935773946577 0.3150853499814767 0.8453442666484409 1.3536022535642815
Ni 0.9011790853095495 7.5919545550997976 11.481378376881024 0.634774774393868 0.18570461069209307 0.4611240095425155
Ni 0.5900377342948252 0.36304934470488953 5.143079610740496 0.4965558679875641 0.7569227433802383 -0.8898932569034093
Ni 8.306866474068363 2.5774202983466643 1.6872311355067304 0.7033581798902209 1.9693814606922535 -1.3558841076199228
Ni 1.3216028102338575 1.5392967098837453 2.5825800737496505 0.7594280263005952 -0.05003855261462995 -0.19922192845223755
Ni 1.8347863793226749 6.664111187407096 0.7150416390604479 0.4078121854932525 0.2474401400286771 -0.9391345104277246
Ni 7.462307033898189 4.115818946055839 3.7619724708065214 1.3276351400765587 0.41128317476098847 1.0382320253525346
Ni 7.600563252106537 4.38613566060151 12.793101596061097 0.43021497866848485 -1.016434984082101 0.2552295541661088
Ni 7.979899271843988 -0.24015452534924256 7.4370878151959365 0.7095650800318812 1.139709867584063 -1.468402009715697
Ni 7.147876416777412 1.0312203024543531 0.46000558848511824 -1.5868054240579705 -0.7483812815681304 -0.754156750599327
Ni 1.8439302851001185 7.060020536366163 9.37765412594737 0.4248570567906812 -1.3362362514820083 -1.234022302415404
Ni 9.061610625446407 5.080727788953534 1.503054911905529 0.22195305150116615 -0.07221765981483046 0.2671579301725786
Ni 6.996258121971669 1.9540925785140792 7.1348545152461424 -1.341372287156993 0.8494870851722208 0.17934318725043952
Ni 3.704651611464173 4.741614069034719 0.6016762572238529 1.6015635562037513 -1.340942655818742 0.09809966978791493
Ni 5.984223693246773 5.874959462007382 4.995136113782413 0.3461741009664812 -0.07446223287463305 1.0422807415006115
Ni 5.509420942951967 2.9993825217033674 9.411934701277689 0.10373938457219552 0.7864307801416843 -0.14172769089051074
P -0.01653341534719081 6.182169296391209 12.754293517384033 0.1340928000530723 -2.466007776906437 -1.066409773338331
P 3.927797383507159 6.448403910143379 12.83711389968312 -0.21864198485006217 0.4782676112013376 -0.7965262167044734
P 2.3030396256776857 8.702984463734653 1.4601311684951057 1.0281805546538034 0.4883671615291848 1.1933639054640932
P 6.453193575074421 8.1618430398779 6.123293610213293 -0.0005738702255990117 -2.4450861962624213 -0.06294214805017548
P 4.6491862357347475 1.364755151288717 12.758263133622336 2.4370769528047 -0.2280239402855944 -0.853304144925466
P 4.309682448406774 6.60264382079206 8.27704536707157 -0.8692287865755223 0.27132568839702303 -0.20559877851285882
P 4.540067145856903 1.6019252073911552 4.047131703837364 -1.2153632925533195 -0.7478341508154088 -0.4104259689670157
P 0.2690276778284336 5.875957308868017 3.6594491486774663 -0.34263703434750026 0.1584786850966045 0.13201740558128233
Ni 0.7557029914977618 7.928727870563672 2.770898268955991 0.8477670171573205 -1.1629590679199908 0.5694214457990386
Ni 1.8435674316962516 6.837183189716463 4.826188847541501 0.33358546566819325 0.08080951524889954 -0.6986222078671324
Ni 5.842865078435364 5.625171178785476 9.570380082877184 0.6613921198710803 0.38880479115281424 -0.4811274492476359
Ni 8.769268709286022 2.9688574791030726 10.306606010788887 1.370922232899968 -1.243978128076535 0.20237384381765794
Ni 2.4870970147891205 5.8631122983711315 7.0189346454463255 -0.4504048233527985 0.015104202631290118 0.889070761002114
Ni 1.0896759858172949 0.4471306425824145 9.214999644863019 -1.032904442492034 -0.21323983999788435 0.30659942399765255
Ni 1.4651476168035642 1.3534069110827827 11.478139003118002 0.10802258532858171 -0.09739415908045806 -0.43732742134355007
Ni 4.229845628220981 6.9809275656582965 1.8054614743556696 0.15006192178781896 1.524379296412265 -1.1936220442214864
Ni 5.965799811665436 8.019105582131797 8.530805987932307 -1.3751681526605155 0.5941881112207573 -1.2360115649312908
Ni 7.327797277084765 0.6772196145083919 5.05464316488306 0.2017611499343235 1.3860004673893291 -0.48474447717493285
Ni 0.9983639267342143 7.833787277441924 6.983685251527684 -0.9031377806181414 -0.47189153247166477 1.1242554807022056
Ni 5.316763928168888 4.713384074213882 7.354997675372131 -0.7831888761656189 0.4164132968987022 -0.5192337692010542
Ni 8.384816456554049 7.837851235565232 9.34900231404454 2.303287542924659 -2.240518173006922 0.12363689482707094
Ni 5.073026225456461 0.40468223713105667 10.644859768140536 -1.2239348362724147 -0.43800310725433594 -0.12197956172930606
Ni 8.37130016726001 7.4135486077535875 5.082285337189632 0.15086821973919823 -0.09583452790282204 0.9394330155047499
Ni 7.342266056563955 6.172426682497387 7.151862361418889 -0.224578147828839 1.046526661261159 0.1583640138956111
Ni 2.6550527841039666 5.376317243078527 2.706293127531017 -1.5322371018937868 0.7770184856888489 0.4439230722831968
Ni 3.5035038270306114 4.77212096896482 8.90902260491883 -0.5324525818841733 -1.3205566359632226 1.214601988907263
Ni 1.0263671381776347 3.826334500450905 4.020352215498484 -1.1174047763289594 1.4321628248780045 -1.2937420868735394
Ni 0.6892364121109507 0.5241235992154014 0.41481854696807574 -0.1439799772597972 0.7912379717223406 -0.49838315100429004
Ni 1.1235937077437441 3.718784751544785 8.255364876190528 0.5278109693471039 0.9852125357327097 0.6090478019414092
Ni 5.164211285848189 3.3725863189154692 5.062888101352423 0.6419520088685977 -0.22457403406378101 0.3789037299890184
Ni 4.267328384840422 7.252305626410278 6.135893694662567 0.3513469034166723 1.0374763781334324 0.0763962166725523
Ni 8.419078889214171 7.746847601875438 0.6021053313739254 -0.4468939819860626 0.4813578200908872 0.5350388545541108
P 0.2539982898402707 5.969673271751715 8.012505278715459 0.544852755320739 0.20519177288242726 1.6132448491964213
P 8.901329205623343 1.9034110293289839 8.090427140062346 0.20040180769295166 -0.3795801872307527 0.9790884251128429
P 2.1697635704374094 3.696750478594973 10.278193682132605 -1.4063836590313714 -1.6597170246160318 -0.5710003602503844
P 4.255980144634488 6.67548664161832 3.861296333046981 -0.37978381860112653 -0.12324454448465873 0.4496797722613159
P 7.140129496604856 4.302234882292408 10.631383392720924 -1.2682323726382094 0.028669600020550624 0.1687371295998191
P 6.741834386515365 8.111379202735124 10.463392245199202 -1.9650630358225574 -0.3968163486033811 1.7934740385962404
P 2.500622375418256 8.65248434125149 5.800228896347505 0.8936121005158932 1.5751362152501582 0.2093417904950588
P 6.8714093370362 4.394508502895736 1.668975073624682 2.9089070359108096 -0.8044902087465565 -1.457469421963593
Ni 2.9003961131285045 2.0541312619601566 0.5031670008750743 -1.6020916607930795 -0.10956267612219195 1.528974114871799
Ni 1.8370179277564558 1.5056057713347129 7.199061425060372 -0.5741653882419273 0.560528257074467 -1.311681702071096
Ni 7.462796885993409 1.117987622654002 9.555364301891666 -0.7306077596347934 -0.7960549334950097 -1.8864770105875381
Ni 3.357237619931904 1.8139676652758172 9.49378626498845 -1.518200678405379 -0.3351682367742808 0.8602882895527829
Ni 6.38947651735541 2.047028406579464 3.1178215012595305 -0.8492770260439437 -0.22390400457994986 -0.631797436933099
Ni 4.135059247795876 6.868279726427848 10.69930773565777 0.5239340028902009 1.6191110781692115 -0.706399537819706
Ni 6.960253992972985 6.40546928113084 11.734116658276367 1.0623122062301897 0.18949775918593814 -1.5620814389487292
Ni 7.748054089443295 4.080177670461023 8.495369724510676 -0.1426175496946318 0.3337631288966381 -0.682085900775006
Ni 3.1204122745631393 8.926520303186797 12.689768203707908 -0.6613666659497837 -1.0860979957958778 -0.3638159824179605
Ni 9.492789325261326 5.2280553422585525 10.510405346471202 -1.2867034348592035 1.0867572266464316 -0.5555410882725206
Ni 9.070736388553657 2.835635851873377 6.147325391151391 -0.3065372033011495 -0.7492639412834 -1.3631258767840009
Ni 3.4917383054102302 2.891633203425121 11.764573665863436 0.5269789603641117 0.8316567418590194 -0.8261967471857126
Ni 0.875663233949636 3.5778524894829196 12.401156420539275 1.6182327893293162 0.9294288531041864 1.1027605440532235
Ni 3.0813783196421682 8.919272306444558 8.016846819692725 2.1671167772966355 -1.7419784418201094 -0.04858150845312924
Ni 5.479966317893079 8.4664040444135 4.124297015837187 1.1735710391078822 0.20106978029425374 -0.7863392488691425
Ni 3.2446442087120357 8.780880018209759 3.6056379888840193 -1.5237596605503951 0.427869875475076 -0.025994881401864907
Ni 3.889126281990055 2.749802879188685 7.381671029090379 0.3289870476642334 0.9488131711680692 -0.926648719255888
Ni 5.107225158770908 4.6482246742145 11.800819092375692 0.5236702077058529 0.11433618625143534 0.022982576938102354
Ni 8.169100107955234 0.318451032835621 2.5772425001787695 -1.0943496942817088 -0.48774521167446966 0.18711100412131648
Ni 4.569158917511924 0.4779650177095056 1.538092943716417 0.5118387622885637 0.008168137633089158 0.4378388137623298
Ni 6.365256052647301 6.259502428090322 0.636223529806011 0.11042862366691306 -1.1371079111848417 1.731022199918922
Ni 8.209694332512834 9.118778179225622 11.550245231534412 0.5937615652063 0.31176965534468243 1.1341884235452016
Ni 0.25392844056002634 5.136298787755735 5.969323118216983 -0.272807158038556 0.9387547584908027 -0.22341343809677652
Ni 7.313854635041183 6.630710531581157 3.2260534145649196 -0.01734749013951206 0.3634940803021675 -2.4673326663654476
P 8.570606470668947 2.1017285572123843 3.7367469021697013 0.573685106171399 -0.014546273245291078 2.2437199677736714
P 1.9322760176065878 3.9117683343913434 1.1819577706222093 -1.969146718973628 -0.9521242378191731 0.783539060416186
P 5.11332109595587 1.1587723452486305 8.304223087021194 0.5048736438246402 0.16262921692986831 1.8479102060579338
P 8.500113125632724 2.0626129602755428 12.409826802624673 0.2190163374703454 -0.5376657506539966 0.2906115332098286
P 6.532912467903957 8.303401224061435 1.5143405598992963 -1.032682042068583 -0.8762018754592458 1.2578129770770983
P 2.2124351307321453 3.7624813727054445 6.379576062230905 -0.09446592969006956 -0.5166611233778714 -1.4233336566221486
P 7.023408627916003 4.088287444037446 6.326920590528775 0.8086093731212526 -0.01981343518150136 -1.6757218846847204
P 2.693361032217204 8.680850406098779 10.475182259424344 0.4358945455517654 1.1963998640769395 0.1035565791374281
