# total energy = -340858.78068828926 ev
CRYSTAL
PRIMVEC
9.37884557864519 0.00000000000000 0.00000000000000

0.00000000000000 9.37884557864519 0.00000000000000

0.00000000000000 0.00000000000000 13.72688853258997

PRIMCOORD
 96 1
Ni 2.44441795797796 5.741588712028643 10.137870156145437 0.2138103677893737 0.21281046576994964 0.15018456340861233
Ni 8.432914164363483 1.0691790416010738 0.41430863715400235 0.7088001768413986 0.300975650052972 -1.1322894067502758
Ni 2.6328858641962034 7.357920238370505 13.244072603689357 -1.2795807077714931 1.0007180875674766 0.7934177529824787
Ni 0.6001410877043025 7.913091636264644 8.713595820306951 -1.2563675028798234 -2.043323559397358 0.7943942579631351
Ni 2.674509181827284 6.835162131538334 8.127430150719384 -0.1691384788032958 0.9344422471583778 -0.4200071848975477
Ni 7.347415931081904 9.353044588615946 6.442385448556805 -0.9268762618856617 -0.6581540725497569 0.9782358473045605
Ni 2.5218966030771846 2.7263366836815774 2.9438414964761677 0.41021796672126776 -1.6036844592014963 -1.4689342280700832
Ni 8.044264173531046 0.3517010899447829 8.759539972195048 1.053736805856353 1.2713498352212687 -1.2441691610414185
Ni 1.7917534580614947 3.5619637073355643 10.740261228955575 2.137897475420202 -2.4248675552227015 0.24502150328485545
Ni 8.801371500202743 3.7901228889514496 8.837631993809161 -0.09245995500363431 2.066490227321809 1.4282742884568755
Ni 2.925881006781819 1.993886342600713 7.576309476323413 0.7219583114899115 0.06218444394854451 0.3254402108532395
Ni 5.130950820112375 4.137402790989227 5.242353688330883 0.1995173482054693 0.30668889838766533 0.02624787795293544
Ni 0.4377707577907557 8.58148446057663 6.559476586749006 -1.2281679005171557 -0.15017787854039297 -0.6849717069632333
Ni 4.510727747795258 8.266102013082184 0.6582083356649401 0.9314746798896216 1.17753002375563 0.5480715193683529
Ni 5.26727234371935 2.6205526819778915 11.256611708341698 0.9599085097502823 -0.5687539874183689 -2.0781594361296207
Ni 5.461104949731415 4.4640304745899515 0.6258803920996919 -0.8151597726452605 -1.4013419828424059 -0.013805024203892355
Ni 0.9265108530457087 4.267984460970646 2.577388419982956 -1.9637031793605535 -0.17100047171269905 -0.33133189374732613
Ni 2.197735555920122 3.9779624125015363 4.796243260860642 -1.0587579132200282 1.2437117617890259 0.050217501394655445
Ni 9.202748584776813 4.1881235890399 11.413276886359125 -1.2946753973210865 0.5725288810797688 1.0283949846574547
Ni 0.04255745067210267 0.11679382878055079 10.372147158872354 2.050540388860772 0.3946082852084688 2.205656071022414
Ni 5.720589476297235 7.630300677902241 6.576758048007913 0.014304332437814076 -0.33306173195423927 1.131574125850806
Ni 6.13391521041209 4.8700500878317525 10.40060257700951 0.42001772642050894 1.8845911064187348 -1.6617895908743447
Ni 1.1367723832340613 1.546524777101633 6.1176485402680285 2.0460702689045602 -0.08276226809989617 -1.7160987458398704
Ni 1.8875865043783902 5.356202559532308 12.401118825701571 0.7221061499216854 -1.0099786869337959 0.18070895724971459
P 5.7481257675466395 1.1935144002840925 4.7471290590943775 0.9841771524896599 0.3595122128362841 -0.7571543997750702
P 3.445168940670434 3.7835295603586943 6.444184311179977 -0.30651252071080115 -0.13389173978585975 1.7511217988822745
P 3.5929701715285236 3.9283764547918643 1.5253042006095008 -0.2802235051072851 -1.121940973636416 -0.39003120736074764
P 0.048502701020534854 6.527095183762735 13.129398394058114 -0.3773127313528147 -0.6253177427460263 3.202663799617839
P 2.4611779554107542 8.600204636780244 11.28402419882663 0.1348232504611936 0.4875071275217346 -0.4628985849444351
P 4.530470218190351 6.288703681386258 9.612528177297188 -0.506710954143695 -0.08621397409392248 -0.6221468012172123
P 7.5828624758792555 3.0632060668886876 10.51523645760384 -0.5966239743557595 -0.8953355109649033 -0.45084705309653966
P 6.218793764842302 6.209883861338578 12.594228322702966 -0.42310433576563267 -0.9573433201262673 -0.5726880323654523
Ni 7.371875960911074 6.534307516177854 8.265975398663974 0.41292662390168244 -0.48487740320837136 0.06561635244822893
Ni 6.315499043817983 4.141173086998171 7.883132789146806 1.0610240835463856 -0.16094283036638088 0.5051461807597365
Ni 0.6256853121071894 8.332297906691956 3.3481804205517927 -1.0417271829899866 -0.47456522264908585 0.16321285734748017
Ni 3.6736094876601215 1.9295568393038265 4.684423971888907 1.218782602647514 1.002250465051603 2.6187963535967995
Ni 4.490844594713264 5.5708843397430865 7.34343273527345 0.6058899730387178 -0.849739310392343 1.7551381191305193
Ni 7.065572236144634 0.6673714680050857 2.1897269594971434 -0.02950366588607177 3.4312338422148905 0.04932121483263119
Ni 1.4616556015172146 0.3334489181462597 13.026281736098069 0.03727096853631646 -0.09566046421880299 -0.24476310741714621
Ni 7.519996072526139 5.321594618554686 0.5063329341942007 1.3135341818988022 4.242225085304759 -1.9365788123399357
Ni 1.3368981947734933 2.343079529180342 0.8608992615288653 -1.416300146814135 -0.23291032184361826 -0.022618251620148144
Ni 6.678751120241909 3.960198878568849 12.311522711837284 1.8214252723935276 0.20609294454045798 2.7027415862612036
Ni 1.1779924104960258 6.537899614116725 1.6677341664817134 1.3422888854339916 -0.970508910973948 -1.2523013032302497
Ni 1.904787307563474 3.918547424400388 8.437794915714365 -0.4713695985299237 0.7298737096822462 -0.8783346055315325
Ni 3.509048259369238 1.213069293763318 10.414275058407117 -0.7975580004030974 2.6583797723163762 -0.0798731194775592
Ni 1.8496678308357 0.513337056232707 4.2397147439801985 1.1134085106853728 0.4296948444989568 0.5005847866412992
Ni 5.60928133442124 6.579748024046847 4.337875619823015 0.2200100688421824 0.06713227487212309 1.1128199851717544
Ni 3.5112241515933054 1.56992499735615 0.7473889666605816 0.541341656843687 0.7689033127808822 -0.9115113493938174
Ni 6.061050957443215 3.0326966815227783 2.9027565245936278 -0.8157536974755177 -0.41644672123979887 0.9769328122224206
Ni 9.053174752063773 2.167638839769122 7.433755709686727 -2.451824029206887 -0.7692486119354429 0.8647866916437688
Ni 8.37472780506127 0.9483795077821645 4.810807670493203 1.3785635514953096 0.28052046752241366 -1.7462873536081087
Ni 3.9956509156678766 6.064324174625109 1.1410022426868818 -1.5804427150647362 0.45826648548906235 0.03301193614964637
Ni 8.422137870546873 2.859188034344997 3.4139186264868466 0.2693425965287232 0.4907891407071161 -0.3758718851412301
Ni 4.397909611746527 0.19527882403340624 7.420523096156828 0.24071387704843705 -1.029185084658918 0.7387812965845212
Ni 4.6297921951423895 8.761952211333108 9.954040089172025 1.3276222845607524 -0.5592396201700305 -1.8914258699523812
Ni 4.293766908056685 7.299790152143052 11.599880278033643 0.4980285958783487 -0.8627534632638237 0.9033403835472508
P 0.24277798855404797 3.6447695368454363 5.890606379186136 -0.7745229729605048 0.6418417085429785 0.01852659804927777
P 6.41111637668163 8.902044030949028 12.827379863934674 -1.587796584326646 1.4384414587978644 0.08261108723401256
P 8.49437374084759 7.8093334652523305 4.907102156023134 -0.19461194048405192 0.017044099966480323 -0.34064082985307786
P 6.434610385394082 5.654609296140711 6.200847343416643 1.4352918574252895 -0.9196656030698355 0.33315223478551653
P 8.014767703510824 4.84848812135274 2.53148553501635 0.2081832514105834 -1.582682145918216 0.9672646930050374
P 0.43124964631060914 1.2946089790910815 2.784100994923088 -0.7178987967085572 0.4327351739871773 -0.5126316905035042
P 1.1849327563831373 1.7871015505479715 9.269027012229568 -0.5531340214929248 1.5234092191895119 -0.3925863696824336
P 0.23260663029111264 2.1106623515742564 12.500981962055889 0.06413642546859277 0.6091650442455637 0.5301542727682999
Ni 0.45527074615664875 5.677503058722385 6.909086194081862 0.5788203705154353 0.03935484764853867 0.72579439740655
Ni 6.842018067813305 7.4440274215996505 10.70354117190528 -0.02315638351180528 -0.9252513246877291 -0.2779462790373342
Ni 4.321265683922914 4.995107617640862 12.132826625051177 -0.0772585646728476 -0.9419043598633778 -0.00531884110975213
Ni 8.681528608654759 5.479102954808938 4.81650438142811 -1.010340441148589 -0.12891562672750703 -0.7722262065065281
Ni 7.19774830991093 3.103497588417106 5.497179742191125 2.0321971104668934 0.19527477087903145 -0.40040046641021365
Ni 0.17924193561128257 8.322956576281737 1.0196137173521473 0.1114750626535564 2.1153427300481376 -1.8627966362514627
Ni 7.183361160463864 8.20639628076144 0.9976803485797172 -1.266786127109986 -0.7644712451514577 -1.2291284646582121
Ni 6.617282164912008 8.688815971836226 3.792204054833004 0.18492530932390733 -0.8377044907149961 1.994224230767546
Ni 4.159808853589644 3.979772529739661 9.458567858406576 -1.346278980429991 0.9789102476637657 0.2666812476464762
Ni 4.571934095442944 4.98169586815631 3.1796688224127316 -1.6549118899179047 -0.5684428839358533 -0.7194756542773738
Ni 4.435790769906044 8.730101651018744 5.078001608301192 -0.9855778894919284 1.0322182150582868 -0.06453571778954047
Ni 3.0559187037072206 7.722372807055985 3.5257923127641835 -0.09199535666238995 -0.947075362541356 -1.095607735058526
Ni 6.871514537833527 0.4611597234303206 10.89972599244233 -0.2104411942068247 1.3145446254411877 0.19871182158503842
Ni 7.400012498291256 3.273414137656018 0.9884393718194866 1.172190870930904 -3.451987529822474 0.4514787731432676
Ni 3.1740640241666 6.319841449420324 5.76626820684938 -1.1150894979322215 0.8177712421261787 -2.138181582319524
Ni 8.361250403656163 6.902924292395603 2.419213247792794 -1.0909093011415922 -0.3683143845089463 1.9741344019962068
Ni 0.4944199242674322 4.537832612138166 0.2526351554829046 -0.9711809973403083 -0.4385540946617995 -0.0677889346195155
Ni 4.142645565787734 0.2542258077294642 12.487954745248864 0.4726361239471731 -0.20807397952622878 -0.18232540980721504
Ni 3.8325434084749688 0.5789636539028199 2.8732985078411577 1.2527731006603455 -0.7197142526507411 -0.4722509726936125
Ni 5.5832175219614 2.151525982696072 6.732777961434754 -0.6635703584693217 -0.6090429168454027 -0.7822848762941108
Ni 5.906243728777461 1.7891555177767247 13.318129845843153 0.5386759370860658 -0.7473854933137645 1.0200335000666367
Ni 0.7525923503067564 7.104653886565705 11.342445967158257 1.0985974138144692 1.356156644555019 -2.694465719405656
Ni 8.439676312180518 8.354825894287687 12.39520171189052 0.161244934987832 0.6917771599208409 0.5317514420520907
Ni 2.3395718408536132 9.440933752545838 8.920404997358755 -0.3097150868084988 -1.9608160876207452 -0.8712766702434865
P 3.460906643911749 2.4968832213462036 12.224769326132972 -1.320765409539919 0.44020525711197733 1.1380988143432011
P 8.886878437301112 6.000463613617892 9.957402405388958 -1.0123091348391857 0.16933516819513417 -1.315264791436664
P 2.3660483225283633 9.005473942358574 1.579841251013505 0.29973740677049665 -0.8760751200733944 -1.195723149724889
P 6.461096245914624 8.564555643919554 8.530094950820889 -2.2439364546598517 -1.2372775761279078 -0.1745491082959058
P 2.4666833378914763 8.86178064595799 6.3222621295196 2.0397648955118224 -0.05689568474577943 0.2756716240705446
P 2.153598707616412 5.753255996195625 3.2716115234945273 2.3746096875084133 0.3230915081154048 2.2923410712154846
P 5.587747504479609 7.327073214556033 2.3379774370687363 -0.33291903572878795 -0.277697910471954 -0.5070984193901008
P 5.186839362195207 2.354990663337952 8.75956717084785 -0.40183385642263053 -1.4364537389438745 0.7909073278557992
