# total energy = -340872.7953114021 ev
CRYSTAL
PRIMVEC
9.21404662566320 0.00000000000000 0.00000000000000
0.00000000000000 9.21404662566320 0.00000000000000
0.00000000000000 0.00000000000000 13.48568860676463
PRIMCOORD
 96 1
Ni 2.6998723457109284 5.8271382513716246 7.070937819353502 0.21425773973943746 0.7318570586608621 0.490105227266214
Ni 6.279013533619261 8.743761833565433 7.988126149674593 -1.224768902137936 -1.1319070837101926 -0.699711327166253
Ni 8.338481985890741 2.597393717409509 9.278504566945207 -0.39352533655693517 0.58571966873843 0.7829219956574774
Ni 9.250350125600322 3.158584450670275 2.4045796530597223 -1.4125751325540639 -0.8300559730308027 0.8410294413231709
Ni 0.7412958628851302 7.5288252671259235 7.301273325006025 0.8412086472135126 -1.0316862538142169 -0.7494606306752383
Ni 1.775058470273647 5.860281177643897 0.6336546041721586 -0.7216258678511572 -0.5708869746009716 -0.8755878960243307
Ni 5.24949123055949 4.116578108566953 10.914804099716136 -0.04736974753321519 -0.2115799357969582 -0.7444451797385179
Ni 6.104296778552589 7.578092775265438 5.3839048236001545 0.8264672272382799 1.8633283403852168 -0.7444408088631438
Ni 4.0805327575585775 7.6725643969139234 4.171622824038332 0.6321267952480598 0.5693147450178453 -1.9623016710273364
Ni 3.8923727082380166 2.441409119449185 11.8299294049629 -0.5388772544635946 -0.6313346383640676 -2.3062857063210345
Ni 7.334639231210403 0.3198250922063694 10.08888643119171 1.73748029683944 1.1547953011622756 -0.04811253923651069
Ni 5.346266363903296 1.633945343818312 13.321865095574058 1.2500770418854212 -0.6161162787524163 0.9854097393451803
Ni 3.5343517065045202 1.0354561491869165 7.467565677100569 0.061859970729590236 0.9272403300932999 0.10348767357270564
Ni 5.392548520885676 2.847260238024316 5.44363303905046 -1.1405110233291196 0.2250653718779027 -0.1010114441180712
Ni 0.8672306900776591 4.633937621289159 5.183385973331859 0.14315542447597282 0.9494605749440809 0.5013334918818656
Ni 3.4907508371354936 1.3311625525386017 4.970852006060773 0.1337351596033374 -0.5105354700961078 -0.7496670902590895
Ni 1.8194886038529892 6.025756243788941 2.935429451674404 -0.38630105089435407 -0.31137447678879276 1.3639506866781412
Ni 3.2351716075162913 7.39354463228314 12.680390529898625 1.221457835486832 0.60825744482963 0.3598662537415931
Ni 8.028936084273571 7.068270352810321 8.663341633258403 -1.1189081003473633 0.2018727358115233 -0.0015467756618295942
Ni 3.2002872264023576 3.641253077260955 4.533645486288939 -0.533217742184972 0.8856632779824618 -1.456714803185756
Ni 9.022062902547278 5.117592150885437 9.894571398621254 0.10558697930389557 -0.17498259628889865 0.7533620226121736
Ni 0.6867652912241466 4.809842988390616 7.767352060367006 -0.28341527257170546 0.26304467933515346 -0.4010663821289867
Ni 0.1893901245658623 7.98969345903209 13.441361146875826 0.9851899100248904 -1.7080496502831488 -1.41405043154801
Ni 5.126280997000187 1.162278289084483 10.06848284599924 1.9871267004908166 0.7394690666801652 -0.9443024277819092
P 9.009126380866356 5.325792751955286 13.021173892913698 -0.03526396540861669 2.361664183091339 0.40616128015339087
P 2.077380559214293 6.621379869871358 5.098386391774533 0.9709215730313343 -0.004704347454204801 0.1425350172831545
P 6.764123882606981 5.664795961132216 10.251847905374822 0.0599558117283419 -0.24199120109896388 -1.199054013870335
P 1.1056211154263795 9.115216915506037 1.6991162967023201 -0.0949608670486171 -0.894095210799899 0.10988457823798495
P 8.006905298419525 6.4798521113108665 6.382654974624478 1.0001624721743227 0.9106669991156511 0.39497389607800365
P 8.701285077903723 -0.1298729107868489 11.709974494131423 0.9286382388820911 -0.3301152477314057 0.6370332314107416
P 1.9825772318816817 3.8348494141824725 2.1725312561105588 1.005703199486894 1.027026129334386 -0.6720495995849264
P 8.515880028570765 3.3354572926837656 4.465745332748315 -1.1870379632460655 -0.0015339201460231647 0.5928236267730629
Ni 1.035078373268884 1.129190647092899 8.225797879374374 -0.9675747680462885 1.2607864578831254 -0.953349625585842
Ni 1.1927767839305266 6.249279804656063 11.589965220423936 -0.3728919765772997 0.6327623719495297 -0.40376732599991755
Ni 4.748615647528997 2.7526504056741117 2.0043647669007014 -0.5486700721843003 -0.9729566011834921 0.2054116022027172
Ni 0.14722848930407179 7.4081120402443466 4.396725672523766 -0.949872722780835 -1.5630980531387015 1.0342128768908125
Ni 7.603412975820401 4.517905130172474 1.058760316306135 0.07952833454363079 1.1494566625581817 0.17213458531714224
Ni 6.605780488670648 5.028501532557221 5.522376282843296 1.3500181357574492 -1.6397094711458535 -1.8564778931222867
Ni 8.536602419781868 8.873044123953601 6.058350934277727 -0.5545386151499353 0.47908187957251686 0.7806303714098234
Ni 0.7636288694736015 0.9570353970314248 13.272979048971287 1.6419175345407657 1.6217266614151875 -0.5766904686566261
Ni 7.787610985025011 1.5907867486947869 12.521650931950697 -1.0874205712620433 1.3575625237636104 0.18569432627944793
Ni 5.580634857831987 6.106397581218722 12.081383505838122 -0.49096217594987057 1.4456562313787489 -0.15501360936613948
Ni 5.866454588987356 1.8360738880592968 7.581964517722933 0.8410548952444675 0.9918040729072984 0.5831835325801377
Ni 7.3788390136202135 1.53748348806507 5.220471590221842 -0.26517483830427885 0.03540511897217128 0.3501695952791195
Ni 8.105790448476244 5.383822818583801 3.3972337907335493 1.1477705331050103 -1.04682876588261 0.4878686246262114
Ni 5.968850290867744 0.7142323646791484 3.2304558583736314 0.7800750131269856 -1.1056916016570892 0.9103674655973611
Ni 2.207077481707619 8.591324643615902 8.914674108716113 0.7912312868541211 -3.3939983549022004 -1.4704560640312483
Ni 3.3062579784338824 7.679474931999885 1.5866321350011066 0.02278408777405108 -0.9166214169268729 1.0939637716972
Ni 4.59440936059746 5.463911313206705 9.075719982573395 1.2892380283555989 -1.5656226193327683 -0.33287069898935573
Ni 2.054944355301871 1.65276042734569 2.613971630378392 1.3042797531800698 -0.16718341195945402 -0.7879137924451141
Ni 4.350872890121393 5.8460639034603785 5.411267778326528 -0.2658389542508389 -1.5101315282439993 -0.24238200877947932
Ni 7.876959596663104 4.016273995305916 11.79995058235532 -0.8655266551335868 0.23483299278762784 -0.3136365333500921
Ni 2.4189729155367634 3.352208429732136 6.722238668748628 -0.2965096438618184 -0.7884089869139776 0.19935948247136634
Ni 8.122209879840488 0.4500776217206071 1.3540981577865694 -1.0630038329805758 0.8664795059651593 -0.11636658641790282
Ni 3.9813343299112947 3.272304216044858 8.585272857689956 0.22906549417623132 -1.0777935896952406 0.10411785095753681
Ni 7.350938879966491 6.804020705169932 0.1847029389682241 -0.29893239437069813 -0.1030863243692289 0.3713971371993281
P 5.00155044572197 4.496067839300836 3.680784102166689 0.5455407825266991 -0.4280243987750693 0.8451020687306477
P 5.560207316117884 4.062482439914046 7.263216547585296 -0.26210725512254857 0.11599506201109701 0.38582462547856783
P 5.291792919332356 6.220817614148683 0.7436436020050008 0.029630164161607037 0.7318999960836556 0.3776246061662787
P 7.989205114552681 0.748927857834066 8.011551020806646 0.8112424398687254 1.169651906559134 -0.6182317824335224
P 4.361911318165369 9.345899790722216 11.787962186088194 -1.3835517487385205 -0.7136706175598225 0.08978832170874214
P 4.300822188005469 7.376342006942486 8.356137020928355 -0.4943305782014713 1.8611328753957945 -1.1079803976912659
P 1.4701288060938982 0.747152311019313 6.109745044414362 0.473043900908553 -1.019681773154173 0.34217243600625585
P 7.2644650509241595 7.955776552830191 3.5670726294342088 1.2585997346444517 1.505812589153671 -0.763502453480285
Ni 3.2704429785950393 0.3352079433077198 0.23324069460266178 -0.5940672693721769 1.1109029706546996 0.11849443139418303
Ni 5.9378910936826355 6.358420188780349 7.218524735077366 -1.0437143886233446 0.49293009830951884 2.0849574328880607
Ni 2.806709218139894 4.162878693642895 10.494333974517824 -0.9605939658530811 0.44821347212843454 0.32785730493516435
Ni 8.944867618613696 7.352901471930904 2.0679896027348104 -0.34649446042037746 -0.28577323128092075 1.0632588864141754
Ni 6.048561009572615 6.339116760773564 2.9524487174841108 -1.6343104116174694 -0.10277033579070688 -0.9212332046672714
Ni 0.6962290386732013 1.2061832219972919 10.587047556040439 -0.5061733364726702 1.9791426538440753 -0.019352179274366672
Ni 5.606885677111859 8.686763740176422 1.1704981402180648 0.19057299452798793 -1.1562387184770215 0.18394880434325092
Ni 1.8794167641184476 8.663728623223218 11.258203330612416 0.34786742950850413 -0.5689529908030523 0.6043072019326302
Ni 7.440425702306303 4.733854744585383 8.165409016769852 -0.25448701957312947 -0.7617903558851847 -0.10475497032090346
Ni 8.681345880669028 2.8128089171091024 6.987650207688136 0.15414611915952162 -0.2960769271997739 -1.5528126120522934
Ni 3.014181909514022 2.781831291830432 0.2873474201117064 -1.289611609644934 1.1885253464248693 2.14722723746156
Ni 3.4858121080607263 6.9783504702717885 10.308190880037683 -1.3508753415514219 0.12711611162492303 1.2243588111837107
Ni 8.021362137819356 7.1516298340405795 11.261830900830208 0.2913273283299305 -0.8073515894547515 0.09342848956449071
Ni 6.3514175132265756 8.838906080628952 12.352891058128126 0.8973895652804544 -0.8951596475086713 0.8431747698009479
Ni 3.088327343962999 8.469220095670352 6.11113452266898 -0.6491580396987335 -2.149364595519537 1.1230087527792982
Ni 3.064610387547979 1.1007929549129876 9.713673860973698 -1.857202687103453 2.760225539410285 1.798186099359929
Ni 0.5365431581208362 3.4237186468016665 0.1091237988400798 -0.34814485153960684 -0.024550435645854494 0.7326350744774672
Ni 6.549362880228858 2.9499784315420485 3.394549738906162 2.351920987661646 1.6753840417293275 -0.22941670686806293
Ni 3.8882724574203458 4.999523355430089 1.9026960533113568 -0.4480594630490735 0.8021636174959088 -0.171042380694228
Ni 2.006294188296702 8.620781951175662 3.824406213560567 -0.019078099677373596 1.141653107353363 -0.8139480117253465
Ni 5.341622484325529 4.0264002327185455 13.300179836474312 -0.2931772370544757 0.2743678176574565 0.8646671353467689
Ni 1.1695666000884768 2.176717197563295 4.666830846893658 -0.45426122098441124 1.3243235592048224 0.5693931636642646
Ni 5.682726496168591 8.024439629444304 10.254153259879498 -1.082985161198509 -2.139432681117806 -0.4204391302286436
Ni 9.005477618340969 0.5346929775271547 3.7533502489973545 -0.7331752632516534 -0.4040758583792718 -1.0801595188242556
P 4.038811553732932 0.533019706631674 2.405482629644288 -0.9386174615819901 -0.46217250541168786 0.04168143889918628
P 1.6255605612473454 2.829974686262631 11.936021782411938 0.7220896948614531 -1.4219789423664673 -0.7768881307585717
P 0.777056499847964 7.102601891117377 9.490904009133288 0.5786738176352421 -0.516080311173737 0.8271267151991497
P 2.9621870435272473 5.356374173222362 12.330841844180517 1.8749402135925322 -0.9693179759896402 -0.2426982544683175
P 1.6862903435827756 3.1862818752948083 8.830712028826358 -0.2678953225592354 -0.023812014817933186 -0.14840407446942183
P 5.254310177026101 0.4025414329712948 6.02047014515052 -0.24863390322646212 0.17797587458926767 -0.4903836777385812
P 6.620347896631855 2.538313249447928 10.747689854648701 1.1881324818618249 -1.0044747263964313 -0.005979614622202605
P 7.024098212540855 2.5457581992472043 1.1245863879162923 -0.6912102316737774 -1.7645866661379288 0.11434775621566112
