# total energy = -381169.10273164517 ev
CRYSTAL
PRIMVEC
9.29922092669176 0.00000000000000 0.00000000000000

0.00000000000000 9.29922092669176 0.00000000000000

0.00000000000000 0.00000000000000 13.61034980586678

PRIMCOORD
 96 1
Ni 4.212491330371341 2.552915148825027 9.81548495192085 1.0826380622717355 -0.1463363933071157 0.3424244041160619
Ni 9.037001593481437 7.883600610932842 1.529640025965859 0.4659965071434684 -0.3617290179819448 0.24409976280153442
Ni 8.739017354859248 1.144157556846733 7.183692880413972 -0.4760225239209028 -2.530853055516596 0.3508157135035507
Ni 5.623666719816923 5.948786085398901 9.764514061622013 0.43404566526848476 0.7012179936187665 0.6203490858868413
Ni 8.162856218404578 2.7000753215935984 10.56237978645015 2.1307845185245045 -0.705531790502772 -0.47471614640465337
Ni 9.05869667613983 3.3701399919893156 0.654317369506851 -0.6666975912443938 -0.9621785367313815 -0.48114030476344244
Ni 3.417463727800959 3.0470664550335034 11.98059189644764 -0.7057606186841264 1.6698338013350595 -0.8763407150299553
Ni 8.069984897997642 3.1104127486764424 6.62396718720424 0.5339145111416805 0.7260211687053754 -0.39438742744691435
Ni 1.9571326560012123 0.33582183906313817 6.6920867710008665 -0.6544051470302858 -0.008502895264688583 0.6248243480493755
Ni 2.337972953983145 3.4949541366275314 1.2277901011623193 -0.27615396302360184 0.6295022131410192 -0.4561962332235949
Ni 8.497349198782809 8.53459257900007 11.059838825578296 -0.3159348424659656 -0.1857820008972478 -0.44354152057406193
Ni 3.0757731503470316 6.040020742904901 9.311112871880464 0.5532875163516536 -0.6794428067252041 0.5655161972073616
Ni 0.46064528292238244 1.0703682379893165 1.0257933519135582 -1.0989134023929914 -0.9804146001234341 1.582591643086939
Ni 1.0410198964248545 2.143312360203397 8.423826767568897 -0.1784546139978991 1.559065792050857 -0.01831499625910394
Ni 6.106872842875408 0.6439803554120931 13.128638387528296 0.8167420295307161 -2.0222438559089237 0.7295872887900791
Ni 4.116235093510205 6.845138000290696 2.573186520744029 1.010552557159395 1.3443408828670138 0.620852250775505
Ni 2.1898642606697147 1.6350355372533434 13.286641452015552 -0.36715893074826444 -1.3601156292027674 -0.7690858611053335
Ni 3.38517683239164 5.912212249095659 6.792476511608962 0.646617532665067 0.7135541465866163 -0.9237212611964478
Ni 7.93448594839822 6.065900475025909 10.563332956605523 -0.2499014570849761 0.22519366992565087 -0.902317084489059
Ni 1.2087127492233163 1.4546027516464808 10.90578328041744 -0.6025650224305429 0.420537860590037 1.0271282021298893
Ni 6.861988188793485 4.257927324314295 8.44098940989823 0.8257552887729199 1.578886683431526 -3.029379931187602
Ni 6.36089036447707 5.779326380605113 3.571954476505927 -1.6478488124235362 -0.3741111936963815 -0.07256450163128793
Ni 3.626910083015275 1.5344458633931446 5.45464686817776 1.0689721347488685 0.3553146298151687 0.9436200570029039
Ni 7.975253733385103 6.152029860187521 7.944946642132652 0.3039704710152378 0.921891921297193 -0.17656305340214107
P 7.193700702084337 2.6263603965044067 4.566340639319418 -0.7324563828077579 -0.7068476811007182 1.3756504916135728
Ni 6.551161725931589 2.0897767447450297 1.3197817152600015 0.6593707185656773 0.9372272661026827 -0.38081457385848605
P 5.738791076143931 4.155784680542415 0.4277688168998858 -0.330943657169972 -1.6900267313431667 -0.28837133102540013
Ni 4.501855191100545 4.347134751636185 8.142582056719267 -1.277189324721181 0.41216377759372885 0.4862974234843496
P 2.8057795670192136 8.08495664385277 12.698592191398646 -0.08546269775019474 0.5265470150330158 0.2376501505214488
P 4.119991978805529 4.616942350543442 10.562189152419073 -0.7394171303963072 0.13927074470958595 0.8400886746764564
P 5.499475622987584 6.252303360532767 5.799696324267013 -1.481250583543591 -1.578203284211256 -2.3256165454391624
Ni 2.782066553397738 0.950147908538947 9.32112999277186 -0.2886402684160706 -1.9712521953524051 -0.1400788424331781
Ni 7.365633999671581 5.001874305777709 5.508843658251221 -0.3006684032251983 0.8908085696288272 1.1273521173496586
Ni 7.859971290300618 0.8670891261607903 3.0968721529375287 0.12558553391300953 0.5311516036845627 0.11326994977045007
Ni 7.781206888193205 3.724003249768934 2.9476066365282105 -1.7304339315156196 -0.13975642609675287 -2.5582219344478525
Ni 5.698571945197703 2.785079501010819 7.018190924089714 -0.7359255723032809 -2.206579354167632 -0.4213022495598873
Ni 2.0918597702553083 0.5181237680966347 3.966056393595934 -0.34852048971147076 0.1882224920179404 -0.7009670539502251
Ni 8.445654829087992 1.362019707091416 12.56670877893492 -0.30973308453062787 0.39628053070456914 0.10448680426118133
Ni 1.9837191289203495 3.5086704876438755 5.388391778197254 0.006730633855614214 -0.3050593332040423 0.37005656401103365
Ni 2.303426347864015 5.825655099766758 1.9237000965612394 -0.5184498398471782 -2.212467951737925 -1.3742767511944978
Ni 0.0570339824091125 1.5340273984468833 4.8871498159549045 -0.1258894383066735 0.41529949500923313 1.0068712516530658
Ni 9.138028330729952 8.45264784330107 4.340449541639134 0.595329166803736 0.7540155970357724 0.4374930003871369
Ni 6.366414101767719 8.02694810307992 2.789768168253152 1.2084691365366476 0.4038984522611432 -1.0285585068185126
Ni 2.0778086472819552 8.344730383270784 10.58389818390901 -0.03622684354251826 -0.03472146264158536 0.19602296189896562
Ni 2.255516761127605 8.423643572914646 1.5988076319723448 0.9651808138928151 1.2724597804559958 -2.8216047138487146
Ni 9.08361858849495 7.897028686097317 6.905633152766441 3.0832185742746128 0.20732141763092035 -1.2562034664981334
Ni 5.921195296608737 6.020269197441366 1.2088587469934562 -1.0350330587992627 0.8477346212574884 -0.18173277052853862
Ni 2.74963087045197 7.863021434797812 5.187257996659894 1.1286654368444433 0.378554831290032 0.539164189576394
Ni 1.6152839917898079 4.042724751283629 10.112217515392665 -0.39560098813904127 -0.002956254414846522 0.6227648944171855
Ni 8.036228725665895 5.692564648413596 1.5369892003443109 1.8229383666039443 -0.1229576093718592 0.46734093698650475
Ni 6.911655328304192 0.5696674904107984 5.389086430008048 -0.018374388742129648 0.8812949737114371 0.2733455470405292
Ni 4.554107514057044 4.416088475559025 2.5435294450414365 1.1569082337402206 0.40418230205014904 -1.5856923934994498
Ni 3.3217003496543085 5.349720967552192 4.447195299819889 -0.26333495688206265 0.9651584452953119 -0.5827508159180931
Ni 6.23713633103605 3.6784742636157 10.2806319877429 -2.0267070338866 0.3605208566064565 2.622971825130728
Ni 3.7425272980567694 5.2298540085008876 13.34150499623672 -0.5972857763094745 -0.06577318974106736 0.9246059777942464
Ni 6.178923207400583 2.7663229721972833 12.310085615601205 -0.24368992895762548 0.7202945506342434 1.6133556637426731
P 1.9222512779250724 7.386352664122031 7.3246142057948385 -0.7352650559011467 0.6479848453262389 -1.1160526331764393
Ni 5.019198754552928 7.673363821931143 13.590845939583387 -1.8512593250358245 -0.043625449999434546 0.2573846528358987
P 7.626151676771835 0.058159188153504106 1.1493316434267289 -0.8693393440114577 0.8183628529635907 -1.2998469142196967
Ni 5.4286155587539975 1.9037272296372372 3.3703036582794086 -0.142130068535252 0.3747457419565869 0.7172521642634937
P 6.956589164311633 2.1259228168809816 8.630145794751487 0.6431005206507441 -2.052366643436233 0.8093776187458448
P 3.321895633295897 2.336540873944829 7.8009491344357125 0.0033645455968587218 0.3880673987661574 -1.8453956671661962
P 0.49810347514538933 4.519412120401466 2.2508113552874223 1.067099600316504 1.7410513020201501 0.37994296988681014
Ni 0.2746292450102907 0.05677825383084168 9.14034383676593 0.2813766448751219 -0.7497084850199863 -0.31666503576377075
Ni 3.2286616432688695 3.0583185124774195 3.5725803140811134 -0.6526382849378501 -1.9928988270879033 -0.08925481780277532
Ni 8.202071033479779 6.734179694984244 12.934718941664483 -0.3020197750467702 1.3226479712746124 0.03194904210277079
Ni 7.144582216614284 7.545732013321434 5.403798727596493 -0.49708860056258264 -0.030758364228779287 0.40749928223852405
Ni 3.576963966873727 8.134270412964414 8.435504729335896 0.11107191367786677 0.47238081340325744 0.12081202378376613
Ni 1.5912548046533788 7.33122688186787 3.2590524275105737 -1.063676176457252 -0.2851582234047412 2.759063400781384
Ni 5.767218794826619 5.360331378745174 12.175247840616874 0.7967326762883247 0.03659348285331762 -0.1812090368145847
Ni 5.574380848368365 6.818505031266419 7.712998961796812 -0.07174277706094095 0.16077519444026506 1.0475795280057056
Ni 0.7486003116658398 5.559204519650619 0.01470299836741795 0.8905488882095374 -0.4890060806647643 0.289292814398405
Ni 0.9333907122464373 6.688185747779608 9.087235985474853 -1.912706119487396 0.11035046213080996 -0.8414865834652476
Ni 6.431759727931685 0.9556344489454845 10.817805210115456 0.23400998266570022 -0.747518676457519 -1.4837805490542961
Ni 4.284653285548853 2.4371212485839995 0.3999269491419645 1.1679758044082917 -0.24021919680020568 1.0543273882525004
Ni 5.149815613112635 0.6699103033266516 8.430876507030247 0.8015159566095809 0.18574780522520268 0.3887672530466595
Ni 8.059151305499988 4.508243755946801 12.362593667135975 0.574592448477017 -1.0829098278758833 -0.059769663859464806
Ni 4.1597275502582995 0.7940316559982795 11.832647799346406 -0.8680445364594341 -0.9309468324106096 -0.21874071521145555
Ni 1.1065050109042405 6.240474751385112 5.358666818181157 -0.802711776689895 -0.8334272034958807 0.5333151869947848
Ni 7.249914493198778 8.512069865670181 7.772380997515502 -1.4072593767681054 1.7788241498935495 0.028777843463640762
Ni 4.530664177845381 8.997517100996422 3.716537835127632 -0.7456849656828899 0.31835964985737425 1.2408964038274177
Ni 0.7923308284722529 2.5741452704320187 2.8745054600268682 0.46881597887013454 -1.583007390468119 0.5804854169226841
Ni 0.9076895251691683 6.36768809504856 11.328996408935692 -0.04113070860203884 -0.05158738515898858 1.3297457586616583
Ni 4.62997985842474 0.11263774462411401 1.3848799821446216 -0.5013525180452592 1.0643927429083024 0.8121176433848271
Ni 9.197757227392987 4.0352667760191485 4.590580918773183 2.0256037735200922 0.7064782135764414 0.6395241161533953
Ni 6.327747940733172 7.717051562320828 11.838868048292055 1.0153921446398837 0.9346718466706806 -1.6586515594659952
Ni 1.9130543483283509 4.271234509605406 7.541399506244474 -0.5561378413162551 0.02547911810771096 0.8505247824081159
Ni 4.124027840731693 7.063018748977434 11.366520625628 -0.9318107230728015 -0.3655396499772866 -0.09803179266445698
P 2.6972297599590216 1.3042064499601544 1.9272114824214235 0.1693534230275793 0.4702377989183256 0.20040643567864194
Ni 0.6832946721522948 8.841969030860568 12.813750024921356 1.1770363719486634 -1.2037352213960881 0.09523314687339729
P 8.978202618921204 4.290762873764268 8.342572963992282 2.4722018215322907 -0.1129249077262055 0.6826500008085921
Ni 5.151973032391138 3.9532662449939817 5.220712874230334 -0.43596525088870075 0.42659203720391686 -1.498274371795097
P 8.247869697042827 6.643819164254878 3.78468438666524 1.213240589783362 -0.42481463358852 -0.6645774595775974
P 0.8651214109912592 3.2682298287431366 12.361423825130649 0.037265569219677754 0.09552779529568063 -1.0599403635639035
P 6.4617962118522225 8.067520604425216 9.620789021101194 -0.2190947561167646 0.15695093559816842 1.542892010504472
Ni 4.981164940548285 8.688104119730784 6.337591166191342 -0.3078628640911085 -0.13999399602885568 -0.714277397905886
