# total energy = -340869.39516966697 ev
CRYSTAL
PRIMVEC
9.23482743907940 0.00000000000000 0.00000000000000
0.00000000000000 9.23482743907940 0.00000000000000
0.00000000000000 0.00000000000000 13.51610342775835
PRIMCOORD
 96 1
Ni 1.5624127721285828 7.235127243018858 10.171570616187653 -0.1673291935086989 1.009720291066087 0.137079393485222
Ni 7.151071842474405 4.631192147861876 1.1245212592988154 -2.270066061867368 -0.8054852256699739 -0.23902749048494965
Ni 6.170000700720889 3.234507591309073 12.834527341311643 -0.22051863304748476 -1.2095376870104784 -0.059369085986936465
Ni 1.5879932444981866 0.40649494605641745 12.909352531699627 1.889343790612372 1.073653599384938 0.6031478915172064
Ni 0.24564826033427348 7.9832221548300035 12.120268837717909 0.6617818991103313 -2.922621814393741 3.647474930932944
Ni 6.331471660786782 4.550396641449723 4.198250502609764 -2.0066159195636795 1.0144130685560657 -0.19725863407827962
Ni 8.954569023152041 0.7523549377693034 7.712383131849591 0.5602099545030997 -1.2055352507193045 -0.588213124584245
Ni 1.661271601268153 3.0921619591411766 11.431001624494796 -0.03772348269270277 -0.6800349317832481 0.10111891623021294
Ni 5.027144614764091 7.768964920372538 12.155478464795015 -1.4577555857454443 -1.74208334282909 1.4572151398609419
Ni 8.021768325108244 1.0203745678925176 2.7365647652382146 0.39732671258089636 -1.167664700925776 1.1101069571159654
Ni 2.612662007210872 8.940227335935438 6.588126912102041 0.27190984303526716 0.40052053692784567 0.6483219169506834
Ni 1.667994555739298 2.87422926331075 0.4336167111474968 0.233153805312992 -2.0824940589492327 0.1325550232523072
Ni 4.2423689678438965 3.341114440780087 2.8089704308027916 1.8578295220541745 1.543146549717439 0.6818688996681934
Ni 2.739086796647651 0.7225689249242059 10.57139062887629 -0.933576813834289 1.3037310797654513 -0.9288290147366584
Ni 3.1528163066226056 5.693132674648107 12.438532394202603 0.8711044063316804 1.000858984020715 0.06336406607894247
Ni 7.69636994084277 3.402248999295169 9.06910304860936 -1.928737719028962 -0.8746455867157195 -2.4441716548679517
Ni 0.9463020159515093 5.50715248221076 11.837647098240609 -1.8006227338258796 -0.41421731768864795 0.1764005596823478
Ni 0.49430522749093575 2.129172609770218 3.6595119022645513 1.7829787954918714 0.4205291188392886 0.2762737764309178
Ni 4.4133056261693 4.127663174593771 0.5400508693429464 -0.9672762629692631 1.340062310096318 0.5790222021135963
Ni 2.805300510326373 6.250195943340976 7.2784348903923215 0.8681237264368017 3.017480608646855 -0.23557578449092334
Ni 4.952139345238487 0.41394375797458444 10.765738498575045 1.7295741546184857 0.08357499380917864 0.1732231903956307
Ni 4.833222470616325 0.26095775748024075 5.070106879586427 -0.6900866595922954 -0.8201474556678392 -1.0545374473807774
Ni 6.156286981779061 8.558690434870389 6.725816344209016 0.12572257371150605 0.03334926488440708 1.630974919486333
Ni 8.326083598030827 9.134731274220128 0.3442115749915956 -0.5725790175914138 1.2233023448947384 0.3536981772576683
P 9.02500305303037 3.8627713805686015 10.351402260428724 2.7310787426429997 1.7911027101505865 3.79176575456494
P 3.240334767505904 2.934745088378625 9.599893232864856 -0.6297958331220379 -0.16236696440741716 0.814314651036146
P 8.434297307499065 7.794702384810836 6.208865472550303 0.45728380986081896 -0.042801411436242415 0.07310314774357733
P 2.5664047559114693 2.3056963387756255 2.4596067455097512 -2.5094437366028846 -1.5012900186929692 -1.6457441073757075
P 4.466193483664146 3.4372489957864323 5.5545105249565365 0.7223077244095303 0.003980839024618951 0.6470348227081438
P 8.426678574753605 7.584046733105769 10.49601134883409 -0.2938827477619326 -0.927836568916402 -1.7111665986455755
P 1.338338915963937 4.843787113356695 7.767907532615744 -1.1157849813373493 -0.3975066898021864 -0.393271054454284
P 7.228755211995383 4.22029772995099 6.791706838922779 -1.2139664122057932 1.8640248522316092 1.197184307651448
Ni 9.159646839004676 3.0942952043099052 7.058284912462277 2.724069915425334 0.755502465993944 0.27633676845836924
Ni 7.555344889017419 6.027599659587571 12.431463133697575 0.22632161288250696 1.625796203498871 0.7982455133884253
Ni 2.2652847333281936 4.924222461493609 9.900910748862103 -0.9144874013030057 -0.9063927972203293 -0.9065460349687419
Ni 5.491508684306749 2.09000770604477 1.2950331155559873 0.33712921715539357 0.1686491978717031 -0.7684639112506185
Ni 3.823080091671649 6.460731542287629 10.39526215049089 2.0034794308172272 1.4405088828498547 -1.5640017958998935
Ni 4.91773037771172 7.6145031944324675 3.2377554801655317 -0.06997128698281498 -0.20133486103018228 0.8263494707134931
Ni 8.694968785324628 7.889414776371362 3.4490668046280866 -0.36322102914643895 1.2964083208517931 -0.064412819058431
Ni 8.034198403017806 5.8582975657421015 9.392880720636255 1.1717316719062982 -1.157455621603258 0.5702711953938437
Ni 1.640410125786949 6.343079839042591 5.20128021735983 -0.1297232102304669 1.4625959445568812 0.12867651413350742
Ni 4.431867629585511 4.010584030658088 11.214946369109402 -1.9100802518287752 -0.30507655959522295 -0.5862858256545451
Ni 7.87625514708375 0.4986455964489552 5.422323203115919 0.5582227488697419 0.4774227467025391 -0.8413287177311445
Ni 6.156554791778599 2.1944166665540634 4.02378429318701 -2.2412681637990692 -1.5847508555217866 -0.46030382763406535
Ni 1.1718165052171148 8.835107293703235 4.726121557870304 0.01599971786236599 0.3227022430967862 -0.5862292613849969
Ni 2.603242483089213 2.2194522840970223 7.630935646610977 -2.140418956290475 -1.1637609949959957 -0.7445693640212081
Ni 3.6888888122482864 2.2187412023741127 12.648937782080518 0.5144939405232236 -1.186693435422453 0.22142057603646384
Ni 8.404912086170517 3.78566980518455 12.801155444921015 1.6032669120481036 -0.38229681483096745 -1.9898389572156572
Ni 7.482897666728776 1.9528612817989266 11.038844671723954 0.05163237946431108 -0.5462025844804141 0.41658581792082444
Ni 6.15476323522997 9.192735226188896 1.52372438550576 -0.10274488186941014 -0.6403126734929618 -1.041604284258877
Ni 7.0486945440305675 8.561987268312969 11.885263716158354 1.5431576054610328 0.8201690529343939 -0.383145793094824
Ni 6.08138329535673 6.907355508067829 1.180766900098205 2.1422457250865685 -1.0919863362558548 -0.5073043647533199
Ni 6.453999352988914 7.621327732006885 9.696749951387195 -1.731781960903082 0.7508909353638616 -0.7890088252815056
Ni 3.57490333554864 4.289485058107333 7.774759774672872 0.9785001567095405 -1.4912724865559672 -0.26976631432970316
Ni 1.4144523647979712 7.180457063802954 0.6477188005017822 -0.47784337917972547 -0.6777672187949941 -0.477372610190894
Ni 3.900772696020197 6.684648406383581 0.9952031983842758 -1.1068537402859906 0.1632498812330027 0.07778795481375636
P 1.1186331332400212 1.5264523535700132 5.781269868978612 -0.23544671511222676 0.19725811985764738 0.29391154411733894
P 2.9165986522030756 8.30838043357865 11.900321102511652 0.5336869685119068 -1.5026483324930766 -0.08060922631263535
P 0.7659975485388398 5.092813473616169 3.743054769878855 -0.42976914938031785 -0.3561042155959996 -0.5891145533525919
P 4.849355714381559 6.78965763068494 8.207842712786809 0.4292798684487252 0.1647730027457485 0.40013512856396893
P 7.73525779974111 3.350820244556424 2.9732857177603234 0.3400746729369627 -0.16195584501192753 -1.9236687891464872
P 4.984174962079698 5.420225050291958 2.622407520745761 0.186246342128176 0.41147266506397523 -0.7873522635146891
P 9.110148163228112 1.5023586884392202 12.547769322565625 -0.7188189945299814 1.5630664285698177 -0.7389741293216177
P 1.7132267411784026 9.125736552166702 8.707006383062454 -0.11080888982446722 0.11243434124303217 -0.27038286486777946
Ni 5.747885967312144 4.759768652122523 8.57052117247064 0.4290705806513965 0.49476766573888986 -0.05118809283804087
Ni 3.179985169334293 2.119355988063038 4.472802849756176 -0.5885023736898897 -1.7567008356319487 1.756473807222807
Ni 3.7605141348831777 9.09002547395253 0.6121998067010709 0.0358990278894543 -0.025898722143632816 -1.818009047623127
Ni 4.610062862381135 1.545199053537629 6.986339141310698 1.4586055924505652 0.7515180274248993 -0.45761496794799256
Ni 0.9446120425061528 0.1775672645208461 1.7674601130502339 0.5474760518761991 0.8641873674968731 1.1043407440561497
Ni 2.5873124055305246 5.33057334423993 2.4051905240520295 -0.9441021388456451 -0.04230724540864327 0.4407202490751829
Ni 0.7804352779621752 2.187352023462819 9.273007117877816 0.20759935388265535 0.5168359583928389 0.28274215776408085
Ni 0.14922003781119406 4.386921723801084 1.4036605452993725 0.982497707904708 0.9650221768277638 1.7513071754202034
Ni 7.160186617286246 6.41133444961434 7.304670112036656 -0.20821667575168012 -0.04570135869185678 0.4877691229338696
Ni 7.856446441945554 3.1350023242395855 5.061740125807777 2.391501578167746 -1.1963512702271912 1.0230820570849735
Ni 1.76292858316151 3.7541605735148424 5.275402637369718 -1.1890575647792554 0.6635654733733153 0.9260383393653987
Ni 5.373570701407034 2.512611885314739 9.57342898749678 -0.022122285820336093 1.015115236829413 0.05435877725653864
Ni 3.6252146761513844 5.162924284529537 4.5066475693184005 0.7701366709673511 0.48171674609220266 0.09652564043257571
Ni 0.6715437321502807 7.22936471061502 7.889444327819587 -0.9531519077527392 0.07238658129252695 -0.9040119556929785
Ni 7.057753909876987 2.2182794609956002 7.206813261688458 -1.8220469651379263 -2.5084217230962733 -0.7887591711645447
Ni 4.163041799015414 8.93271018629325 8.51284782732889 -0.011341393154748209 -0.7764731547083402 0.21536922763606134
Ni 6.596372689639521 4.485429629492985 10.901886637960544 1.319405553077915 0.026635600309657354 -0.6857247830791738
Ni 8.008654869958482 5.852331867131717 2.8730638280713836 0.49775451628135564 -0.8381138103382726 -0.14284252122124433
Ni 8.427629761993341 2.2209760306461144 1.0646823470918396 0.053499257469720764 1.4929588731194545 -1.6514650690198847
Ni 8.728925246300452 5.310432185309207 5.783337546871592 1.718048156256757 0.5108113494653138 -0.3174515362208081
Ni 3.9837383869113596 0.5909061412895789 2.7371465593751405 -0.1136263046686043 0.6850203008129816 0.5542563080228261
Ni 6.995566581018895 6.677297483637658 4.832561256962295 -0.3082811825754497 2.0895296256397757 0.16745260646044063
Ni 0.36827291822589275 0.2332541982522354 10.57900012679418 -0.8793129102844017 1.7831649433607482 -1.4476403516883134
Ni 5.068267301934433 6.0652223471087865 6.167209012346402 -0.2555270308018696 -0.007370581432458274 0.13469829484755513
P 8.349336893852728 7.196248618948088 1.015673117176501 -0.0790411104945671 -1.8754292374138088 0.5423783256383176
P 2.5891409013894346 8.091371220505248 2.234819960656682 0.6576100271208287 0.015509151379192643 0.45447050878173983
P 1.9481422849105268 4.928590534934338 0.4288533870867597 0.10983984104297857 0.9023425384103556 -1.1711158926991703
P 5.411110275480117 5.450681511618655 12.561028687990998 0.45975412577818237 0.9213177939612779 0.2855166351854244
P 6.159029725567427 0.8738058490767434 8.596255866460668 -0.134849989934071 -2.3323973158064217 -0.15639480598438227
P 6.032060081304004 1.014833671350365 12.684795694053056 -1.1339562529297373 0.6868336998726365 0.7807686967599005
P 3.5703320959013642 7.516881832187311 5.163381408494265 0.12218602131315731 -0.19918953255240532 0.2658520668769615
P 6.534406996643116 0.03767624952112273 3.611421537692453 -2.138016003275937 -1.8789552482891962 1.8305776283167567
