# total energy = -340860.4404627029 ev
CRYSTAL
PRIMVEC
9.36840033773834 0.00000000000000 0.00000000000000
0.00000000000000 9.36840033773834 0.00000000000000
0.00000000000000 0.00000000000000 13.71160086669819
PRIMCOORD
 96 1
Ni 4.9026712787385645 5.875626498591415 10.029542430799632 0.8711812823162028 -0.3222016493112838 -0.647283191273524
Ni 8.272250679832146 8.963619889929884 2.382239939321112 0.25124614403832857 -1.2476056975267933 -0.8904036208809246
Ni 4.666119169535498 1.3028353334868452 4.451868537400071 0.04302998250728073 0.2464034712340466 -0.18921982293420317
Ni 1.9191730250654808 3.965119243863076 2.850751767868578 -0.250085290961008 0.25043213277746545 0.614921744223683
Ni 3.45886962496742 0.83208164673216 0.15888432282139903 1.5937029225087522 -0.4422896504448318 0.904508692823739
Ni 2.577003361858388 0.1556859509369663 8.068838350078384 -1.400796137641265 0.4199254238170187 0.5951538175681363
Ni 7.303932818159712 0.8539681036636532 4.047390662183848 -1.3664852801745369 0.2023231930853806 1.9066781681257616
Ni 6.7155879068701365 3.4478523861387944 13.84597485563804 -1.5736429185340832 0.1338212915592405 -1.5237846002510596
Ni 8.761121916051694 2.008191565328749 5.840593365428449 -4.6081527147490835 1.9714658540251078 -1.3869222078726502
Ni 8.773638098938637 4.542409442722567 3.116194150115621 0.058173523016938525 0.24362205183416752 0.2789284404449454
Ni 5.630652197460682 7.44688523932128 6.347867887323979 -0.8341190873565829 -1.1267988159493498 0.03616050908095708
Ni 2.0316594082417665 1.3737447558455784 12.369523389756656 -0.7916709454947011 1.0653869885007716 -0.2842066581247492
Ni 7.928289860450341 8.025402698628518 4.688777582657024 -0.2738363706340187 -0.9967645022363671 -1.201403230828802
Ni 4.582281354673785 3.62071810966414 7.362869424852643 -0.7660290765568807 -0.5849653070709087 1.0779067182343371
Ni 2.786696267216497 5.864122102943836 9.028115705399095 0.13084343987783917 -0.7613563536715598 -1.9352482664539703
Ni 3.5525255234111057 5.491559557249279 1.692491462486428 0.5559923168773263 0.08825902954840929 0.4523323793928145
Ni 4.697943625573629 0.5564483185686375 2.228464205218463 -0.002972452364762623 -0.4588012749466098 1.2617225965441494
Ni 2.7947062495281254 7.257512394353725 6.383353514224548 -0.07499805077344504 -1.7447912286785565 1.144701150151067
Ni 7.289149482384566 1.0071124075817366 8.744408689801466 -0.20144207603200795 -0.5758659158728018 0.7321666194814809
Ni 8.072047964043254 7.15423514873572 6.828967098601157 0.3734581334934149 -0.23787640759964196 0.8473101321255601
Ni 2.5783805167119667 6.023047646726838 11.28248072710523 0.940415176912361 0.1929479225180677 0.1884173816375658
Ni 1.4908966024033743 7.476892225688702 9.898336110015046 0.5461817585448077 2.090839345590135 0.08531640198031758
Ni 8.80600592219791 4.048170113094172 0.8855030761305221 0.7610617052492764 -0.1871364580426132 -0.19480991542747095
Ni 5.95762810698169 5.836775742279925 0.11774955050104957 -1.6289815432053882 0.07047985118811732 -0.9396649290098977
P 3.4648560328003213 2.2514046071909597 5.956086068281696 0.19639834296051337 0.5874621053508334 0.4373310208879758
P 0.6355466596859607 6.9144415730065445 7.839594529999646 1.3324500449666987 -0.2824619075195006 -0.8116021372009893
P 3.196545046361675 9.366301842796236 11.062369223701786 -0.9654674918952985 -0.33252668538637575 -0.42568880866335723
P 8.372670563338984 2.047154742444613 13.619431945384385 0.3308654956338689 -0.0031699130875493795 0.21730732519903864
P 7.092356864328344 8.190670649458273 0.7315399740205834 -1.073253535733042 -0.050119542364210456 -1.0964801103611503
P 7.1663672272077195 8.52945074343852 10.733701381074955 0.28313450810649304 1.472353281053961 0.747844435228054
P 5.846621931062992 2.5004260572791464 3.075800418264102 0.2004241762904548 -2.1361614665657016 -0.6866305827228949
P 4.763306954916591 2.4747004298782898 12.960534547789962 0.3119164653351918 0.420959778618804 -0.9281890671598142
Ni 6.627131470628737 5.379194963277731 8.065300842100756 -2.0706723837239567 0.3372919679855029 0.23701405959934665
Ni 0.08777629037493904 9.347087253648693 5.933119434788179 1.1358946076030307 -1.302856133359666 0.7160699710299345
Ni 7.248218941192163 6.291667790377512 1.8347909061425918 2.7728794807288697 1.3992470479865902 0.9089034794573251
Ni 3.9601165180684443 9.36492468794266 6.18002456323403 0.2709783323599333 -0.03773736664977372 -0.21471102522677216
Ni 7.703748040514535 1.9158659797368198 2.1694086198409037 -0.2308056167957896 0.9660331345907816 -4.255490949175729
Ni 5.806487703901568 4.171964155510383 11.354645515112804 1.115146576422402 0.23114500241307934 2.3287790023275443
Ni 1.164229850094395 8.654031731485349 3.2295620997662047 0.2948877919876792 -0.40628649287734553 -0.6379130629125336
Ni 1.5383662870501837 2.636043020955328 0.8226448570450213 0.30567305552864127 0.6091565596051316 -0.900729428286965
Ni 1.1308502395957605 0.3559420666079361 0.9043597923841431 -2.2225896135529593 0.8170119953626509 0.006918581496704213
Ni 4.436846307415631 2.750712241416537 1.4334111609269016 -0.793630383213917 1.1891637513398163 -0.5844695983814128
Ni 6.202649250114243 1.0402484396708949 14.17820643776352 0.40264632502159686 -0.7169143213081008 -0.5947869211470207
Ni 8.239423804955015 8.591151028238974 12.479668609681857 0.9843144493984725 -0.6750405638924504 1.3350733415221587
Ni 9.14125412924075 1.4100847808593882 11.746495723477747 2.387047913271766 -0.4472518795461136 -0.13267843620404893
Ni 7.009633889110004 1.5551450921029637 11.699656532175467 -3.037749643308536 0.044907659145967824 -0.28053666547232975
Ni 1.0475370551544587 4.977468587248556 10.071828579524775 -2.7533954038623287 -1.7362649363751002 0.36526659882155804
Ni 4.894773717231309 0.94111202701399 10.075202140496023 -0.23258122063897366 -1.7217382035138349 -0.22747552398129212
Ni 1.6278157737302186 1.6673504232683152 10.19812679535841 1.580259909629969 -0.11138481693259526 -1.6368550324161937
Ni 9.125711953036081 2.7115898014944775 9.508364265923179 -0.7502623006409272 -0.37295908236980924 0.039451006906770766
Ni 3.9641355618248055 7.93234637780816 9.046352233548589 -0.341670813779489 0.5977884269775059 0.027986457910596965
Ni 3.8987628640814793 4.6634210702305285 13.011911792228794 1.8800253414249235 -0.3108283744773357 2.3127448316828167
Ni 2.2287705519103813 4.608540980895416 7.055071567717758 0.3622368108562987 0.22442439585979415 -0.23377344117486193
Ni 7.464048148789004 5.639008810585796 12.093577157020961 0.6706815155928062 1.329613346848852 -0.9137731488448004
Ni 1.5536929900464695 8.35140429451162 12.53105990672124 -0.7274085359712053 0.9007260858528553 -1.2547803608983616
Ni 4.299468084470927 3.9501485400806406 3.7307762034659535 -1.392896166067898 -0.5456863069656279 -0.6867136293550044
P 2.5308077796611483 8.312375538593205 1.0592925239318054 1.6384041220708685 -1.7368745449346408 0.9210275164143688
P 0.22670685726003667 6.583315462124073 11.844121949995898 0.8688744885598971 0.21872708836470073 -1.6619813951701765
P 5.305849756824234 0.2726476189673633 7.825141898757366 -0.030177037804012544 -0.11927784652742683 1.476752181452605
P 2.122354892170277 8.841474685977822 5.140986520890225 -0.12763367469128986 0.16598013567997222 -0.41576974977743236
P 2.293777882039493 3.5369271368042496 8.877562701021827 -0.22673401782957725 -0.6107868961197028 1.294770528138054
P 5.986998042124328 8.101324215182247 3.9792158758915055 -1.1605509726991303 2.5389170634716534 1.0830584376386057
P 4.538783871781515 6.514101720231311 11.984775365708023 1.3214027860136015 0.8963135586074563 1.8509860167697798
P 7.930697539344011 4.146744421729209 6.35848041125686 -0.060630469197863315 0.828716942504405 -2.6698224669356794
Ni 4.737684379919744 7.929254805687882 0.9328191190113542 0.02212305715128448 -0.8153659751187958 0.001400994112584684
Ni 8.701744994541635 4.639381754895278 8.22938743764455 3.0002264495520974 0.6851941073866844 -0.452411312259866
Ni 6.845293409916333 0.021417100073232883 6.287605651979475 0.2760444340289311 1.3185712301020773 0.4608288468995999
Ni 5.443509031779872 6.324400981250998 3.223501681570424 -1.4651140829930445 -1.3412185351879482 -0.5018430845284325
Ni -0.28675174571608475 6.272537516833249 0.13247761271404526 0.39405138426373426 0.7309705422908508 0.6491066176355079
Ni 2.6005086783728637 6.543368602969941 13.384922147460774 0.12343686300112289 0.5051366676780398 3.021935044873783
Ni 1.3219562386307449 2.3924177694770807 6.449923493534456 3.412626768636665 1.0967140807488274 3.5315611157817433
Ni 6.713751700398699 2.8197479837023747 7.427766207857454 0.4786291083058144 -0.6834799529090552 -0.562355797201509
Ni 6.895611088273943 5.222620887986213 4.490083179326812 2.1051971569737034 2.0506838564171717 1.3090308947118101
Ni 1.3736229666408402 1.7790311240132561 4.348099450762931 3.4767066298357094 -1.526646238069571 -0.368541670028404
Ni 8.852491924806447 3.8345237427822543 11.958572886728616 -0.2055427284639428 -0.781695579449544 0.04367507229044737
Ni 6.107335144806046 4.381038746444436 2.221732072716549 0.726670115143284 -0.29438488420933173 -0.6826332886380437
Ni 5.681916084255105 8.607864254489202 12.536639725978322 0.11081608891331883 -0.49356901744509835 -1.0139921789685633
Ni 1.8157458850416448 4.0414342332321125 12.435982821942263 -2.141636373637344 -0.45010786093766997 0.7132571841714876
Ni 3.748990247454571 7.735019760931162 3.323925312437408 -1.8271881430192336 1.7527148544010072 0.21583254042572508
Ni 9.13774097910407 9.026435014373709 9.728559148089866 0.0665792305821305 2.5463868894861372 0.265345302443872
Ni 0.5740299955326532 7.0928627579480255 5.168258871191258 1.1884063043485018 -0.28560868067859846 0.36982285073367277
Ni 0.7533261890681766 4.793426362088387 5.288646563234943 -0.8178051806879076 -1.0191950633257416 -0.44496436906351755
Ni 8.697482372375797 6.8434572034448955 9.488770256560874 -2.591820339228588 -1.7118656815951292 0.8010912103673364
Ni 4.483753888040571 5.135335501790372 5.662315517012544 -0.018227835861936346 1.769204624525914 -0.19509710765058658
Ni 3.6171206439241805 3.611171709692737 11.145955028593693 -0.4084603606002127 -2.35760698230283 -3.152258350582094
Ni 6.312156481974626 7.9941122414111625 9.053714859395033 -0.20327527258600475 -1.1810470357699532 -2.4941574998677756
Ni 5.7867484843336126 2.883490579782282 9.584943444182494 0.5906867829357183 0.6393765348319376 -1.1588219058231655
Ni 6.199257889182302 3.2893296835714643 4.93901505111252 0.02308310707170863 -1.8106132693796884 2.7312129542280186
P 0.005318440886914092 1.1501210391454915 7.900268038120151 0.048466323031503625 -0.43152598417042454 0.5436103982732058
P -0.21876901163121454 2.3577734249292415 3.4318764529972503 -1.142711116304232 2.0009134698622635 0.9080820119972942
P 9.038604566447166 6.811295484993643 3.162594900280844 0.23078941884587348 0.1946862453654131 0.016629895247197164
P 1.5656283321108142 4.949419596557308 0.7987292045945822 -0.13147901657930908 -0.8737205037982888 0.13598410353851417
P 3.01558502492142 5.770719151309991 4.0237654301447074 -0.13434785348667186 -0.5731194634759162 0.24260260943071765
P 7.670068641204237 4.324313082237523 10.064699226847406 -1.0520727878903688 0.2905187163857061 0.7826643711207166
P 4.459086889880901 5.889154468717721 7.798267705471824 1.1289811683126492 0.9181303973722317 -1.5799428926101822
P 2.682529023563867 1.7763798667101087 2.4873805597716108 -0.06434648459686983 -0.27749582176347687 -0.12636714927404044
