# total energy = -340867.4096958052 ev
CRYSTAL
PRIMVEC
9.21475336384145 0.00000000000000 0.00000000000000

0.00000000000000 9.21475336384145 0.00000000000000

0.00000000000000 0.00000000000000 13.48672298952129

PRIMCOORD
 96 1
Ni 7.232696671480997 1.388082782737612 4.095957812004147 0.23919744040391067 -0.2868073289723899 -0.7066098540582992
Ni 8.103831797855431 4.294987267080587 9.866994660609151 -0.8395901377734831 -0.7514491218601769 1.1100704474510752
Ni 6.64959630165915 0.5484455258637237 11.870028607717973 3.226511552769715 -0.4754504534675167 0.4119758299526388
Ni 0.35121202619236724 9.012922492795996 4.093679003529662 0.6091395903242671 -0.7524323117090526 0.335538475629506
Ni 4.800729783512613 0.7409546215525953 7.78525105581125 -2.0972573333013362 1.8034149518590359 0.40202360383593344
Ni 3.311312359473291 3.749566023227886 11.140909415217658 0.21759888829752846 -1.4975593480059433 -0.7222231351155239
Ni 4.273231234697815 3.297158498507626 7.75416416430489 -0.5620068985025225 -0.7670163801708145 -0.9137019292872329
Ni 0.9043911707918088 6.096563671636111 0.3086122219968776 1.1018143780898702 1.4802316553607733 -0.2038332019720038
Ni 6.778989866554903 5.498305032746219 11.924016003958625 1.8215695112808756 0.0021818381426672103 0.6052770220450673
Ni 7.981653384741003 7.058270607536279 10.561263656382808 1.0862471197792325 -0.35204881457970333 0.3520634698677227
Ni 7.508162504623971 7.059662035274441 5.85465336239058 2.1022463018754958 1.739270298860327 0.6395503414056405
Ni 7.16896743812257 0.9679361090855783 7.76063752845097 1.9629071658218193 -0.8895888382891131 1.4963460444241328
Ni 4.539961481776043 5.582260649450763 12.33393153709622 0.706851280645144 0.09975520311346692 0.8415228360198217
Ni 5.288816832750488 8.598424462875702 3.6385420689018297 0.5726515227005622 -1.164376774203124 -0.24021662569704433
Ni 1.7156119716462184 6.615040977035943 3.2808880087243737 0.06161005950231325 0.8788262004559704 -0.7537931966123211
Ni 8.020659435175679 2.7269219241988463 12.171119748126195 0.08239408612720003 0.12440591178261157 1.3746189650252647
Ni 5.264526743228682 7.722147504197334 11.519913137160316 0.747560585439048 -0.3621118552426602 0.683647588835171
Ni 8.69733562407717 6.3931220749290905 4.095122033885927 0.33588737432849247 -0.23231613990304503 -0.311087027455361
Ni 5.901349124398073 4.016148834254388 3.719098363138773 -0.1789654921960466 0.8406810568448165 1.7372249862955242
Ni 1.9600885896671003 0.8475407507217084 6.380757719041246 -0.29526600126270436 -0.8366163998571398 0.6970018986548899
Ni 3.46712462188764 8.296420140422104 2.4405707030619004 -0.7985100799037216 -0.6668986515116063 -2.1128811558815226
Ni 4.724109110381422 3.3676329312325026 1.8236208587144842 -1.8734970533881026 0.36947755157911205 -1.0214257524284733
Ni 5.599658103554393 8.242228176659683 0.7476233384672127 -0.06555156064856452 -0.5349642925624335 -0.13475614466868405
Ni 0.19062191422678285 5.574059519073522 6.815785297689018 -0.4537976510844313 -0.618464981490251 -1.3150094808927482
P 8.241979378322396 7.484434515049368 8.123133941452293 1.487998958011018 1.8308239399996082 1.8259910373873394
P 9.477005109862283 5.709000365415454 11.566010861682997 -0.4868558670909809 -0.7136438780869451 -0.32954934792560664
P 8.236367593603587 0.12712028527320765 5.741216985668162 -0.3908878989340881 0.6212006352538592 0.3953263943214159
P 3.8567059590662938 8.94964478234598 12.98285841811229 0.39686262846028425 0.5275227486827238 0.6273931372178163
P 8.386365346728004 2.027826240681819 10.319919132985774 0.9386825104919704 0.7646147127078573 -2.2872412880950734
P 8.2489365170132 3.3269221514497485 3.525752567856359 0.5089485852249622 1.0710272175056845 0.6188794433198503
P 3.177320632714344 3.13557780056951 -0.17690759699032443 0.8374818331812287 0.12416114276165713 1.076798829882139
P 6.300919254081141 6.3350783443153365 4.03834256741572 0.6713746850050889 0.5352465996895427 -1.509261209823904
Ni 3.1360846119973167 7.258958718194633 0.38987436633145794 -0.1543039848936246 -0.2136422176426256 -0.44332323391566875
Ni 0.5615949787270081 8.103398704453486 6.825900332312723 0.2500950611530209 0.8512205229235598 -0.9097624850235106
Ni 0.503425005993963 2.1767827266909237 4.590475837523232 0.20473771606414415 -0.1000663065959825 1.145880772281465
Ni 4.5801470206245245 0.6433353687543737 11.26068554216428 -2.583194031012158 2.62838296884397 -2.7033522232620086
Ni 2.1865872241306814 1.0723853369799923 12.706920789603794 -0.1961466319610235 0.768007026218858 -0.22918993556923753
Ni 6.1019174432644 -0.2995596484209206 5.686609436534938 -0.05809227615704189 0.9252628946519549 0.9786814194824113
Ni 8.106955599201369 -0.03015251552854886 9.754299150046656 1.8705084030734238 0.8225146703484352 -0.4066546748500416
Ni 3.9347641337018104 6.367910510083999 4.062214307140755 0.9095141164581304 0.08675699108158608 -1.411229674269763
Ni 3.149676373015778 5.31903200860102 5.948804182071955 0.42372422873781856 -2.4940361437985628 0.3738270867970594
Ni 7.613367342283478 4.640116634663946 5.365908379771879 -0.2576247938711627 -0.9456998223500681 0.019460936938089063
Ni 7.083565105160467 5.94768090365287 7.8322656482806 -1.1107209365508808 -4.275557638018617 0.07909690343316701
Ni 8.43259576369724 4.62718833587825 0.16562136723072335 -2.3543347393094614 0.7549478790420546 0.37058029772498763
Ni 6.269837891426722 3.4834070908500956 8.750887162489908 -1.0933418218424849 0.3564279174840055 1.5826402369366872
Ni 7.2458369095910475 5.859449641448281 1.975427467898511 -3.7340393463877493 -1.511428392678552 0.6353216480362736
Ni 0.41857279379986223 1.7634549704312026 8.229153363297584 0.49602930606013285 -0.12430281054584398 0.690629676579959
Ni 5.969169708191888 8.076390262727987 7.888653487738411 0.4001531262860979 -2.19382231161228 0.6786097693009474
Ni 2.3484904384319476 4.091304361621554 8.715875707581674 -1.2228439172010812 0.12114703852568168 -0.017523610706060143
Ni 2.7449091225093794 7.689002036818754 11.435459923781197 -0.022427218655264602 0.13883828515785765 0.6681772611137138
Ni 5.63314451680259 3.6801236428650888 11.165347862266513 0.9630421702832576 -1.2521105273756823 0.11356922617842377
Ni 2.339966791691557 1.4467254723115028 10.37352872434388 0.23182043121354912 0.1962674738096039 -1.122482705072499
Ni 3.6438820184002694 7.873260242462927 9.225781449524304 1.020385998310049 -0.7453067564078648 0.22683711906634482
Ni 9.178714332961526 1.546207948213408 2.2366924448343317 -0.7680257952719354 0.18716962527339379 -0.5510583699108187
Ni 1.1030888947518658 4.659578193491737 4.6513144027925115 0.5671398488537136 -0.8019167915924253 1.0499526562235724
Ni 4.658877872246039 1.65152336291171 3.5710956040892694 -0.030049511087212766 0.5524295392267324 0.3075471326229026
P 7.2649575225492224 7.499832367701469 12.603045640835786 -0.004824160861520724 1.8146013074931588 0.6133554281778275
P 1.910209130417655 0.8148901155917325 2.8275719093353535 0.006181189110047419 -1.1725246001212386 0.1481374510715965
P 3.287151276496745 5.647786759689596 9.87363020441213 0.7978961004688065 1.2068814803345538 0.12586861237106708
P 5.589466586478855 4.18891624261719 6.403064793667342 1.1651663599839546 0.8904655844671115 -0.17857494162584728
P 2.3278217469306535 0.19912068113344522 8.516622334001676 0.04800301024183991 1.0975923695887224 -1.3530180989260376
P 5.08840516468912 5.967686132921398 1.0892547857233803 1.298853697068492 0.828962739966624 -0.5375474799085774
P 0.7870007434571729 3.4119374647760705 6.552510583073111 0.39073183297219805 -0.5839558919697878 0.375957759986817
P 6.085201880900001 9.094454629400298 9.767623683221364 -2.480704459686663 -0.3322865443511116 0.3922585540293696
Ni 2.3544892427865367 5.484860707779483 12.239241654350723 -1.2329480955146184 0.15132947564633292 -1.2248267519590648
Ni 5.288531175400269 1.5679271215832475 13.616330315006216 1.1440640307877006 0.7790771679900905 -0.35014208447529377
Ni 3.649696527690201 7.9660804517774775 6.784186065902911 0.43832063849475483 0.947589326063297 -1.0193871247318895
Ni 0.3947600284955178 4.773048664801116 2.504322973303409 -0.6609655738566229 -1.4872340548205354 -1.5608151706417959
Ni 2.070840708772787 6.505975157771869 7.714108553476991 1.0677200075093225 -0.2187260599234362 1.5367614721267018
Ni 3.4433966323130383 1.179276474481113 1.3771292055697173 -0.5184076737553329 0.40720977602256314 -0.1671345609993896
Ni 5.422283318575164 6.423899350726827 5.936693231898014 -0.9475939540489874 -0.09257591175620832 -0.16433308699485247
Ni 4.489400130787366 5.690607717962675 7.790834274795037 -0.2278143953779496 -0.006017924059305765 2.8023803184014637
Ni 6.3631925564287775 2.150999847145395 6.230461407912084 -1.3183951095355295 1.7667646476258538 -2.014389907082143
Ni 1.9901563294659068 2.940335609071773 2.7841455417748775 1.6213011438419949 1.166188887711198 -0.09331818923887154
Ni 7.919509088938628 9.281836636390409 0.6822713870644802 -1.3421567307315014 -1.3526879692801286 -0.18367626740815463
Ni 1.018055151919078 3.553826235055575 10.811145648650085 -1.116062146258136 -0.003518811786535875 -0.18373283167770293
Ni 9.577538067632732 8.463124241157688 12.28316746153642 -0.9739207648689744 -0.33224360692831817 -0.8492374310552602
Ni 3.2503475520847216 5.183768645895939 1.11971323105926 -2.532072529745994 -2.6013851000988875 0.722747125939794
Ni 7.645379395014417 8.22888521397851 3.0220640199199362 -0.8730792706698641 -0.014571727166587807 -1.0198182987320372
Ni 1.2033730541850294 8.591144807821745 0.9950975157147425 0.04907464603946387 0.45808136606144984 1.3228246060617928
Ni 2.756022114908203 8.699731459917711 4.454785831743469 -0.02149082288392428 0.9683260443900163 0.7681229829714319
Ni 1.1602203647955682 8.310085619466427 9.812251654603404 -0.9247754134925751 -0.8145928443981971 0.05235254545978725
Ni 1.0704686683075584 3.688398491268193 13.244676280242082 1.671843889786553 -2.4499895471013096 0.24682667481439427
Ni 5.910582307137394 6.226565410245233 9.840141948213287 -1.6930349220418714 -0.9565856160246364 -0.6316244016903444
Ni 7.952516335018715 3.4161762512631837 7.5177154393004715 2.4450928811306407 0.42923770235688014 -1.4779122631989774
Ni 6.945279303395009 2.9910351813589426 1.9106237943131335 1.1533716813418717 -1.2170841318991685 -1.362214420713325
Ni 0.2935820379987674 5.847433603232638 9.08870278043235 0.6321584198169435 0.6118549323729011 1.2658731283774136
Ni 3.006580470062769 2.779105071756505 6.057318959092704 -0.8741012841764753 0.4900977710670462 -1.5605110091378156
P 6.260742929985892 0.6622366705856063 2.094393618035965 -0.005671853573796683 0.7404527707496732 0.18094806984371414
P 0.13217365594610544 1.3551031809172234 -0.027928074098137613 0.9346872732896483 0.9736777956202328 -0.7700556812177705
P 8.998086740091098 6.744664910762517 1.8723890187240473 2.2044291405938488 3.0711557295728076 1.0810010408889448
P 4.469966216219275 2.528638864134267 9.651287423656566 -0.5496928570218598 -1.2037347071754558 1.6283408242975956
P 3.7295976529722887 3.6887855109039727 4.18018249950309 -0.7490819071795809 0.6550425235039686 -0.9798121906527446
P 6.480883384718805 3.794073281342577 13.368444238289177 -1.395935467114854 -0.3584480332378278 -0.27755598557745104
P 2.094660845879718 7.014998126354792 5.472507409595518 -1.7168988731436625 -0.659166058754039 -0.12374976625585138
P 4.176319674947877 0.7086550685207912 5.5079906598692725 -0.3346226486834559 0.760161047811878 1.0237356315085724
