# total energy = -340862.30654022325 ev
CRYSTAL
PRIMVEC
9.29039747024824 0.00000000000000 0.00000000000000
0.00000000000000 9.29039747024824 0.00000000000000
0.00000000000000 0.00000000000000 13.59743578547845
PRIMCOORD
 96 1
Ni 5.332474501502814 7.773117674298584 0.5433795576935087 -0.5028450434303856 -0.47558363661127123 0.4002857952092203
Ni 9.13694803130002 9.034827981680403 9.587959669658275 -0.645485733053469 0.878197822843352 -0.5527596688726415
Ni 0.6718694716544941 1.9910158036690784 0.9552479641501677 -0.6327544015297296 -0.05329742587155983 -1.6734577712408922
Ni 8.889944232242819 9.207267050183836 13.337249167183323 -0.2385909171681633 2.4970708168598286 0.4878483129112372
Ni 7.007124398176185 4.1713977801362505 3.2506980172706967 -1.516431245209782 -0.5943729735380537 1.6022875788539694
Ni 4.854910907011657 0.3582154316969929 8.799499425195707 1.6711252664529734 0.0896422830491811 1.1518459887259647
Ni 3.675559973708978 4.1139088002375805 11.37292281753055 -0.892669791207282 -0.4081873094444841 0.7275784858901663
Ni 3.3179632824873004 3.8322239472111255 3.1855797629226417 0.5281189875058259 0.9844692298087818 -2.2886906189470904
Ni 6.251880111992821 8.728244863280898 6.849654018168671 -2.072622308361476 0.09338580925201337 -0.7969126535096147
Ni 8.91650547877325 7.669223158751262 2.4982436374647685 1.8827404263632415 0.9093379958915824 -0.5500173302408141
Ni 4.520623823185869 9.201497713319407 4.711184741105969 1.0727434288658428 -2.2202547947721953 1.0754682839961738
Ni 5.310539872940958 5.755624237676821 2.4757803852836124 -0.2487704288043264 -0.023616353867359326 0.42125416993077136
Ni 1.6906200900227266 1.5503350873611348 10.671730064160773 -0.8188948142076606 0.1532788860632199 -0.2844449993878005
Ni 2.9948060948991677 0.8144464153860604 6.297951193330492 0.0551229091160728 -0.7187166646241622 0.2589676810523024
Ni 8.499515276159812 8.99740626044061 6.805380628752525 0.5911608943586593 -0.20339122933857876 2.011367575316052
Ni 5.012485339471476 1.0259943413202355 13.542393222101959 0.9174161449140265 -0.14607054124023877 0.24964434676884747
Ni 0.5392973570200317 0.8371874504532819 5.451144465277488 0.8908011134296594 0.9901940481077012 -1.5227512738905389
Ni 8.516154378131132 4.055267811045529 5.5310019353025375 1.3200881809672362 -2.7355473199373144 -1.4583903911159657
Ni 3.834946033686612 2.6400708461158855 5.012136949564204 0.7360153038036098 0.0031179768036914044 1.6569867701690626
Ni 4.057646152812508 6.451902370754681 12.452899013682918 -0.14851206080219587 -0.26792411891464185 0.11513888465838881
Ni 3.8295854743133844 5.604831795411902 9.567319193471967 1.5548355560195934 -1.9640451360810045 -1.3336687478651483
Ni 4.605064246311115 7.531102818713522 8.117233998708212 1.34876420874569 -0.9615455311330731 0.5541544923376392
Ni 2.3368508516212474 4.506205126223565 5.2653485922491186 -1.3684514027619723 -0.6129677058211056 0.46648990184011924
Ni 2.577472147577223 7.942964721891911 13.588869364771819 0.6124827957648871 -1.9480050518990064 -1.3427802232481134
P 8.610247524287198 1.359268771815552 11.249865928043507 0.712379923772857 -0.6098067915946207 0.04154002822531556
P 4.554496612570251 7.847561629684501 10.790381447140394 -1.5373970488281716 0.8977171238232022 0.6216572631753036
P 1.0652091092827902 5.91780670731016 4.147544684485017 0.6203318594956607 1.0507980349430033 1.1860887119589185
P 5.548773536732428 3.366449867182059 10.676203390570148 -1.4426297858475992 0.09580675998868016 -3.0519408472072533
P 7.730093843349854 4.080082462840835 7.697154738916963 0.749163925370426 -0.18624222836311793 -0.1409311631311444
P 7.3541207458192615 8.25133159661665 1.0959491766209806 0.06676049335500116 1.2278567970346401 -0.4018917062437594
P 7.603214884320095 7.652268183264017 5.4183066261776425 0.10834705854753597 -2.040999539249872 -0.3481119414191424
P 2.4469234815241974 2.909575987984105 12.813910855035616 -0.7186706418775751 0.025610501479252666 -1.917749852558891
Ni 3.1246579811376494 1.0606289433018523 3.4132966967132563 -0.8097082626123862 -0.236628908345786 -1.4751015332230595
Ni 8.349995618356127 2.1517489712881646 8.730002606493056 3.265634486913105 -2.2014199214538794 -1.0136653917567637
Ni 0.5471709689243826 5.743881175202368 6.4808094426607425 0.10451020129994905 0.5813873599116632 0.021408547582763133
Ni 8.14241097600708 5.115785269577054 11.962412476231345 0.2904073876188224 0.7130800351636751 1.2965795563223348
Ni 7.134532909864998 5.5391393944966625 6.196841009922088 -2.041743359394432 2.2742852421550377 -0.21604748465000856
Ni 6.587700111410607 7.855040399693943 3.249310960919877 -0.33450514926898517 -0.14492434345093752 0.03069151554658585
Ni 6.885290125003726 7.207601886416879 12.29136129763797 0.9136944730880652 1.0113722248472132 0.9887334044017746
Ni 1.3242068115476815 8.10727469255899 6.712591854409284 0.9366467110088643 0.5745914200357525 -0.6393958181056472
Ni 5.013395798429147 0.15429399309294375 2.2914802662571314 1.8589173558017147 0.9550506674373488 -1.1452871045615243
Ni 1.5652554657899107 4.1755877494210445 0.9263306728068254 -0.3308724376124043 -0.009413837114732175 0.16078522174259408
Ni 7.262331618249955 0.3556020428725753 4.751283954913118 -0.3319096206276671 -3.529561825963528 -0.5999152435125217
Ni 6.623691111431203 0.22723754927820788 11.552707803358784 -0.19386914878075642 0.08039608186056477 -0.26450120927602194
Ni -0.22062185719904764 3.350005863558813 2.754650247859308 1.3239430359369522 0.2898710554993782 -0.5162379197975238
Ni 1.6016924048918155 5.523475784265705 12.374387722259568 0.2736630782809481 -0.4308757521809354 0.09095020322732723
Ni 4.1392065527043025 4.190433804669603 0.3557553344317751 -0.4075545609564916 2.1339055806519895 0.6741512193089616
Ni 6.265704223513381 2.719503744973939 8.621426659631748 -3.0305641813036903 -0.49535207748745014 0.8573821716495814
Ni 7.467584370819659 1.9132365955708766 6.273394814586444 0.1648323952287742 1.9448641922771797 1.4086169192372642
Ni 1.2303645061248512 8.361859455998434 11.303833847279346 -0.5984461151661629 1.5023444280994127 2.1847157213253214
Ni 2.680010265085566 6.604506440537416 7.747805057195818 -2.2525519642430045 -0.7544575696691974 0.5841132434832587
Ni 0.6176126210555561 0.7677147867842012 2.958081153473918 -0.8654461796046387 0.4716171957643555 -0.4435608038477715
Ni 4.138249641758995 5.5229369412091245 6.575611446148139 2.3944748018634567 1.1455336733546915 -2.5214024516266575
Ni 0.3012374236623212 3.2599819115196853 11.965744012784619 1.0027873113916792 -0.2872747555271117 0.6630335121292452
Ni 1.0226776694030044 2.8030894515266773 6.884000617826943 1.063659978507336 -0.3856161090121875 -0.22902255675343783
Ni 5.684041724729301 1.6506620902579912 3.856300941442767 0.2762694055555435 3.005762548878978 -0.18284888641085284
P 8.134244716580621 1.986175506557377 4.032442233360809 0.6462372665075128 2.270329342831084 0.274049000865457
P 8.903870538136179 6.975044655514563 10.72626934284454 -0.38327769068699796 0.8397392617568377 1.4335445357168795
P 1.4852651430802217 0.7837407225187208 7.80445232707852 -0.7843091058129912 0.1349083539758322 0.8851408298200885
P 1.6790814162938725 2.507543325389554 3.7723231801143786 -0.4007977018486323 1.4413298360892532 1.1092872894281476
P 4.978844810025275 2.336581430092957 1.8809199477723106 1.9660266852874078 0.9055954981300145 0.18247916177625992
P 3.8164860137999512 7.73878036503784 6.155015640254374 -1.0425391373683206 0.3050130533471392 -0.3821471766269806
P 5.997685545249523 5.484233145110569 13.60287463904416 -1.4712009126170726 0.697839821175153 -0.7667343301540214
P 1.745749308949474 4.594268804384441 10.289179365180882 0.4781768512597442 0.14203648038018118 1.1248226660595855
Ni 7.576439958646539 6.090914684435554 1.472180547202832 -0.2370045465176499 -1.363446236237897 -0.8911037322717428
Ni 3.146927064010486 2.27826560481436 1.0217941525981622 -2.179736265832859 -2.8310558319592856 1.4191512431096849
Ni 8.249074030017526 5.984381695990489 3.9121594565754036 -0.16177792467316654 0.5492884224945895 1.1998793379851076
Ni 2.3700547323836667 6.746203583623151 10.466476382551315 -0.5487749731932807 -0.37270402893620974 1.671520445008863
Ni 5.651051523110009 3.211504617222454 12.668527282211063 0.15492696318960414 -0.3578037147856096 -1.0793876736552377
Ni 5.465624478863472 3.7412059226365817 6.678897440657427 0.4717046132718392 -2.141609634164466 -0.871655393739144
Ni 3.4218670884321516 6.495427883169882 4.295552794611018 0.7369982365421694 -0.10146138717129624 -0.5806743930050386
Ni 2.5989329658651883 8.620011732088345 9.28075316558469 0.03160168606568106 1.9534354788859585 -0.7655210265722106
Ni 3.4027753215136367 0.46316626544316536 11.885464758711832 0.44914266881092324 -0.871369744177925 -0.33784501227549557
Ni -0.05223247297774845 7.1349788489463055 13.155110923661434 0.3314151974897518 -2.565515639895788 0.22216645306355284
Ni 7.550556911135598 6.945259641042175 8.070255245532127 1.109131994797206 1.2000909397752815 -2.3639804899293413
Ni 6.369561577470595 7.60302907636955 9.783490950255457 0.12151522049837782 0.12767738344503174 1.5544946277404066
Ni 8.073290418404282 5.413616833505883 9.60025179462659 -1.2015443843923566 -0.925329229113516 0.37486041315758023
Ni 7.574990656632286 3.2287661758280994 10.591518629989936 0.9144190099589155 0.02165794458940786 1.3008571006517662
Ni 6.686326971559975 3.646062961559935 0.994068819257567 -0.2481770181947016 -0.05436700478665475 2.0538450277539724
Ni 5.75884800561878 5.252716438731306 8.495787039632125 1.4473778420555459 0.023275682698488946 0.05241168083249684
Ni 7.367759049389274 1.2196062257882867 2.096030741158189 0.20035269962257107 -0.39630367063302074 -0.8247268475084054
Ni 0.5400303693849323 4.2278741067044505 8.640191404557303 0.20688844385855984 0.22831113250871002 -0.5864156663641901
Ni 3.780783016102699 2.1925988492155164 8.316287269007978 -1.2858714258762112 1.6904111112657791 -0.9621402272942784
Ni 0.728101460767727 6.858125002634026 8.801919573751556 -1.5949753614632725 -0.34666929543534486 0.06511524444209431
Ni 5.797672576885191 5.602425582452342 11.160367812504422 0.06429763363680539 -1.8509034843583025 -1.275491625303784
Ni 2.9346414805126466 6.028074435561183 1.7384461274532967 2.7771336280195333 -0.05136318496332445 0.43073125618327107
Ni 7.453082060279611 1.8734458229616315 13.120342539955425 1.0255937677632339 0.027528030216939683 0.10866227579510963
Ni 1.7188164465179538 8.253682067191047 3.768950765811984 0.794114007718555 -1.4971474572795056 0.6065291492846134
P 5.375498332451545 4.869199538408579 4.766118861684644 -0.5069500667376946 0.0216088365190273 -1.3265275088346766
P 8.629645874324112 4.142857678932516 0.3736003300021317 1.5403023954004247 -0.6417897722591205 -0.3060857175860277
P 5.318613228392145 1.4314087086147085 6.327172280672976 -1.2229009956912615 0.6606282451218622 0.2580045458080847
P 3.867778298547941 7.854891753333508 2.418194785250658 -1.0712529603632455 -2.310770224454949 0.878465474682442
P 2.9817437959758433 4.268826179004603 7.680511920786633 -1.6429349200616867 -1.5176358070408442 0.806854852323991
P 7.084782831106533 0.07083463594657662 8.742607817858039 0.5460565458208531 1.0175670408040152 -0.1906853517361361
P 1.0519052600237573 6.228449729429077 1.300520943051938 -3.1652997571470842 1.2093155436973433 -1.2999854966800901
P 1.7804489437137818 0.11391328024071802 0.9923370891584861 -2.1900314771112797 2.7952115685671663 1.7199538579199025
