# total energy = -340892.6860465989 ev
CRYSTAL
PRIMVEC
9.06904245591353 0.00000000000000 0.00000000000000
0.00000000000000 9.06904245591353 0.00000000000000
0.00000000000000 0.00000000000000 13.27346034709337
PRIMCOORD
 96 1
Ni 6.43995405334033 1.8313207547990449 11.61825923590488 -0.25437723346814256 0.1784407300408282 -1.7188482835605496
Ni 4.638252790274469 0.33081417201435737 6.032999830868189 0.4412920624182529 -0.5183074007320428 0.4540815008734373
Ni 3.065680877679799 1.7969128087991362 4.9368510037818485 -0.5756257748375377 -0.48735003311858005 -0.26938861927531027
Ni 3.6513142759254786 4.4995055140877 5.040038565612888 -0.5342135304393381 0.08715216963747571 -0.7224043978883945
Ni 5.354961055029554 4.499033923894765 2.64696682822345 -1.157735357627206 0.17165327480534956 -0.646389732924977
Ni 7.355655241429626 6.05052938248211 2.722134677360415 -0.07464940918477465 0.9030578193098253 -0.7115995939634068
Ni 4.994702423795927 4.4598647307546475 11.715367818768144 1.3680096872388634 0.7603569658727679 -1.0141490162614017
Ni 5.468650567695568 8.044693858518468 12.693635421896651 0.22927298220134706 -0.16647970102421006 -0.7575873735474307
Ni 2.0597789961495194 6.421507621562835 0.1843790687785306 -0.565667120962929 0.5212708542357409 1.4028612477004099
Ni 2.737798726999593 1.3353076312953522 0.578817106149335 -0.5788944182864804 0.3929643218471426 -0.7009176887695283
Ni 0.5658492827478406 0.15589864874212744 4.873549996326719 -0.27051424823932124 -0.17878834318823403 0.3156862167902692
Ni 8.895097942970615 2.1865007224164477 1.2739709783746398 0.245902363227912 0.691291478533674 0.16521883203391546
Ni 7.120268251859875 1.0198409993483764 4.891416009405217 -0.6569294561140364 -1.3115734586280057 -0.440474451612964
Ni 0.5358960502627329 7.536700530305793 2.6238580018654196 0.5465694809015296 -1.1597971252522412 0.22774111893785293
Ni 7.467694188420367 3.7129202793986944 3.7860158523993968 0.9527217621938561 1.5246106956967806 0.10966552024864339
Ni 7.554303541161307 3.6999968943038417 12.615189114014571 1.1893362723619387 0.649940683501029 -0.6092329213690217
Ni 8.016017547171153 8.57988524420445 7.248928032438922 -1.531909286240723 1.1460309247060843 -0.4802057087643149
Ni 7.030076627461063 0.7480780816274313 0.3959171981490292 0.03096096715788861 -0.609187412843067 0.00273411110171142
Ni 1.8727300013556036 6.4646309170898695 9.05532705934979 0.40412033846396206 0.3025697340129692 1.2075008590861074
Ni -0.1194129851806533 4.766761117849247 1.4811187844297575 1.1538018269007548 0.11697285254333402 -0.9376931499955077
Ni 6.354215328647884 2.1048067905326366 6.845787342200034 -0.5773985504672443 0.4402343105776999 1.1212035812497594
Ni 3.5731209943199924 4.1548456353896155 0.2647325962293455 -1.3250936046016275 0.9661370071584975 0.9838380239826864
Ni 5.945056422023772 5.784470892287245 4.678522965134246 -0.10714918158469287 -0.660747544308546 0.5812822017923667
Ni 5.382014007828111 2.984748745338422 9.47054771376155 -0.18625225566544698 -0.7096380993616618 -0.16327276405113816
P 0.29393219130997444 5.576200338811255 12.541189357509339 -1.0932096671399947 -1.2066325975485412 0.5611787461742722
P 4.019716907029404 6.271886563812046 12.525381110099628 0.11769276142849408 -0.2824408244735781 0.309089537409358
P 2.084446790856887 8.391058717144857 1.4258620173810372 1.903389984292793 0.14522593385175633 0.26869262164955016
P 6.309105912885221 7.69808413575344 5.938095025252679 -0.2938922608436293 0.8065578899088625 0.08664360543217335
P 4.638615551961342 1.0172925984980932 12.537300552226059 -0.5810644293546058 -0.40545268412214047 0.31297061763131906
P 3.979749638178166 6.153036766150263 8.193719987102785 -1.2545890708231617 1.089267651773111 0.07924654163715385
P 4.9366786919805845 0.968501151613668 3.873805994431109 -0.3860534536599222 -0.05367872047037852 -0.25681746747851897
P 0.30635677908537634 5.668323669192666 3.7003088693545525 -0.5493863815250345 -0.2728341546217495 -0.6821707471793284
Ni 1.5834729012852056 0.9712400023495595 2.9237186260431174 -0.377487309257466 1.378351949705136 -1.0731650897842937
Ni 2.0095365025176024 6.657765239181081 4.834406196504682 -0.6061110879105884 -0.6617721289183183 -0.5962023134373088
Ni 5.735289476589431 5.404722889426364 9.252770083376834 0.679444863607733 1.1452092001357372 1.3460856334722624
Ni 8.74083353562785 2.323787882813553 10.153360433399435 -0.43430946045283264 -0.18805228498866322 0.13859994389480645
Ni 2.4060078191433303 5.220430883452684 6.915445748217614 -1.1292084538321068 0.38015971388330655 0.8501362887204456
Ni 0.3905047937808834 8.880995582393425 9.256446673073293 0.0623425667929636 -0.050085346692165356 0.3674407236547414
Ni 1.4311946141780711 1.0805038224357222 11.511753311543169 0.6152295052720889 0.5103236111956179 -0.7750119967817813
Ni 4.085077493961756 7.005263728078947 1.5804973485486293 -0.4175862341608808 0.07140262011270283 -0.02422159155152603
Ni 5.615859260228651 7.909157023260525 8.099265912883215 -0.3082387593732885 -0.22610589732727512 0.34538091564122453
Ni 5.302124815336494 3.0226936177853427 4.495481580076061 0.4476907668557451 -0.8013737746047618 1.239828881794852
Ni 0.8388664490011494 7.430347872756786 6.9379043242519245 0.48955886784444075 -0.9225799485031532 -0.14543882119351081
Ni 5.357427834500291 4.879262585990752 7.116445650584451 -0.7824663961772976 -0.7079856513599032 -1.0018707131146811
Ni 7.981654946382103 6.617253827799533 9.289138756294294 -0.44727681924677803 1.8404352378371271 1.0693480300310487
Ni 4.444211563966075 0.3130669633883106 10.218373676016606 0.4982975332690192 0.36696738356274866 0.7997640069154807
Ni 8.073433653160984 7.304406084116635 4.815571609722234 0.8009497996934658 0.16603181485351406 -0.20292894499017952
Ni 7.40116369504785 6.1147744772273285 7.051764334910769 0.012228423745391844 -0.07673277407636463 -0.971700617289204
Ni 2.1416905850454544 5.3014718443001225 2.2888883947279317 0.871345575808209 0.9033177578394314 0.6333246722109028
Ni 2.3207950988968507 5.1755209866178 11.445824095666644 0.10158068635797989 -0.5085505784555951 -0.25462637336447114
Ni 1.2066904752145124 3.5727219564644326 3.596775777016767 -0.6877875791454735 -0.9725292838380862 1.1884263589531598
Ni 3.679691308881123 2.486132806731415 2.57260884455243 0.8446040460483069 0.31426645362460714 0.26031905287387425
Ni 0.9555233522657847 3.2353989328833554 7.990994246010651 0.2536760936360599 0.8175673536454888 1.0379121801192706
Ni 3.722061873907895 3.238437062010917 7.125259852671249 -0.06826433159403726 -1.9965145694636193 0.23251617172899308
Ni 4.185689447815997 6.893251988214721 5.969512908048536 -0.3116912366982632 0.4821528051883568 0.486890062763026
Ni 0.846855368250311 7.215964784856985 11.371850639383709 -0.11437115325442884 0.6221033495737867 -1.0511898710647833
P 0.22254976037553004 5.5756289891544295 8.041818972149999 1.0444499812377883 -1.418939384209195 -0.9499675964874866
P 8.341015742440717 1.5568099173000365 8.108822869523886 0.6300547432103795 0.18094729851276578 -0.7712926389486652
P 1.7215581373934319 3.2182130979677446 10.491926822662268 0.17921000410668492 0.030398409786199263 -0.9643025250529199
P 3.8045901576715138 6.1020687491446 3.6051111336768926 1.0744221021198463 0.479757822593619 -0.048835533445464284
P 6.9296913996611185 4.1066436762463585 10.497779982479965 0.22152470571449592 -0.6926623907392716 0.28407064676751725
P 6.418342525844868 7.802214877970349 10.433974736280083 -1.1344637886937754 0.4041455352749426 -0.7854239361437247
P 2.470461501858499 8.535709939785484 5.851286153583957 0.3991380547580223 0.6185637118516444 -0.11388855719105548
P 6.9823281204263985 3.9917570500136637 1.348689909924099 -1.0430968096440036 0.02424987368630017 1.4328002013516872
Ni 5.344150756760737 2.7423241790433344 0.38370663976888236 0.4837075512699863 -0.2184684353866754 0.6806792502354665
Ni 1.2830971555121484 0.8274585008532092 7.1657839607118365 -0.061624714790332574 1.0725729647262496 -0.3743989001401294
Ni 6.832770545970812 0.6769377941189747 9.36032438901361 -0.47661722008210816 0.025081882669292288 -0.05442639726968046
Ni 2.789047884312583 1.8359187591801607 9.034660526048631 -0.30294794328799435 -0.5641105751090866 0.44492940206052406
Ni 6.443191701395672 1.8195763451865299 2.542093331452669 0.27941566449400906 1.2143433359292377 -0.19146079644957995
Ni 4.206901937455898 6.980668485708954 10.366319681678258 -0.3796202964400688 -0.14307726293986972 0.24205650711926052
Ni 7.830446806251245 7.211520954192791 0.1574367582944692 0.9659107500803044 0.06404900796110904 0.9837827452647188
Ni 7.534877652829255 3.9106072606601625 8.245261167573709 0.5840767338183683 -0.15019227671809618 0.041229438963432216
Ni 2.960062812546711 8.399882895178042 12.38405822593606 0.9168037081410082 -0.03827215610732118 -0.17755627055334583
Ni -0.021386615249600643 4.742918605979516 10.338100450056404 0.665764280796847 0.2852731517160506 0.3691368804102417
Ni 8.683363015384987 2.4984848421694426 6.135948876890108 -0.2229033312295774 -0.1668183153105514 -1.1799460893962903
Ni 3.6514956567689154 2.642727957912339 11.381832934102238 -0.43182346080618533 -0.9039057691324175 0.2838166217751822
Ni 1.122366521100872 3.2053622652102667 12.708342687586702 -0.09869025218406229 1.0006396689210573 -0.17895392223182083
Ni 3.0263121656119014 8.427362092958676 8.121791599829598 0.9587810810140585 0.053458634039772454 -0.09507862357340399
Ni 5.672722154646001 7.894710039080805 3.644414548641153 -0.39869505368333275 0.6715078681488434 0.2634216030585979
Ni 3.137698141566271 8.37027247248703 3.430445915968605 0.5054462284986585 0.040567122789084975 0.8764638708713808
Ni 3.3929100573236335 4.347834852806077 9.40394104043479 -0.3177713814540721 0.08641786257461247 -0.46848662055517387
Ni 7.03041218202142 6.0976521256069205 11.606618213373125 0.19706991510624125 -0.8095077165658059 -1.0489095596710387
Ni 0.5364111718580926 8.778778408074771 0.07407684336369393 -0.23647695614895398 0.502248033276335 0.4642337588160908
Ni 4.759397055605724 0.37884472626056637 1.5256650126735507 -0.018854156592025596 -0.44579534960524514 0.39514667421044203
Ni 5.843564771078864 5.83455921220224 0.49035766880534176 0.2613474941383886 -1.132820082442765 0.2463296805733177
Ni 8.098210276374415 8.774135058482795 11.428475924896158 -0.6638639784503406 -0.027110997284179116 -0.4311534313223543
Ni 0.15981375424770483 4.848482256859573 5.72582593108313 -0.12407629635733469 0.3516572355682395 0.25913017477209566
Ni 8.250388804017659 9.273186311114051 2.485787276224668 -0.928070282193763 -0.6177630703272199 0.09094711790353369
P 8.613186767059396 1.9890586052936186 3.6184380911483913 1.124947621673224 -1.8382870811458727 0.4036673100869435
P 1.9772688504702445 3.239906246842753 1.5387525474317132 -0.8851680835135982 -0.2285142496584516 -0.5133960794733545
P 4.7842099549878405 1.2738648705812294 8.246083729698693 -0.024617798548680184 -0.5780122727918432 -1.15606748300648
P 8.575160273232928 1.6097549854991577 12.320452498663956 -0.45844260605561044 0.06325248020174268 1.1490445147214277
P 6.4886548098030365 7.986905921799591 1.6604962764505258 0.07572155920303088 -0.502491773856025 -0.6965329294382714
P 1.7884151162841349 3.1931099892361297 5.924582152416656 0.29860509293826637 0.5526892206460223 0.19171019345622464
P 6.866797592199504 4.173464378968374 5.876506252959588 1.226520851832036 -1.253061578435042 -0.07801086945783983
P 2.3208041679390226 8.618891194585474 10.255964855818824 0.09428980912352149 -0.7488453656887426 -0.8026066185705983
