# total energy = -340893.3016788523 ev
CRYSTAL
PRIMVEC
9.07605122432783 0.00000000000000 0.00000000000000

0.00000000000000 9.07605122432783 0.00000000000000

0.00000000000000 0.00000000000000 13.28371838812415

PRIMCOORD
 96 1
Ni 6.295058299061093 2.020093002862244 11.55889385420866 1.517677201801741 0.7057397927485201 -0.30852312338292676
Ni 4.231654380235355 0.424891702947311 6.104957685454604 1.1269780218396912 0.10409111148465945 -0.17393307197846172
Ni 2.8339606592491675 1.8412040352091719 4.795860745119976 -0.4844917377341785 -0.44221071757778035 0.1918832286989792
Ni 3.4171150960652596 4.3401222672176925 4.82544322615338 -0.21055457985623738 -0.16950923187915323 0.4724754299995927
Ni 5.055805202545716 4.838306713411357 2.5698412183064097 -0.624597319640234 -0.6087680659174612 -0.15320201007869744
Ni 7.183667236453752 6.001411740996787 2.4255002392566567 0.7444343811052405 1.3598698317405484 0.25604716497139773
Ni 5.216914186046967 4.520617695919704 11.560527543410974 0.4607020915137485 0.49160058086481784 0.052555148388896585
Ni 5.849587557795336 7.923174805982145 12.344027640342269 -1.9866389622211205 -0.4310529011887479 0.20554555667742022
Ni 1.6862395383188347 6.7141358836584 0.37980641898908496 1.0195375342668247 -0.9601913310980238 -1.1710104774695573
Ni 2.790613439081178 1.5606269907633543 0.5273094942504223 -0.3910727612513845 0.4739730975910417 -0.7042261843174711
Ni 0.38946152217474395 0.3993153908800174 5.318707545032751 1.129276588065881 -0.3238859789922422 -1.7588327943732869
Ni 8.660685644263271 2.2602090113974884 1.4076229209157904 -0.5117624005246735 0.1777097654120746 -0.3079461678335341
Ni 6.957237913013426 0.6251447873410508 4.662757732571898 -1.3615438770088615 -0.3818468717777424 0.7142041214657894
Ni 0.722464560727839 7.405349785156253 2.2908034721312145 0.6034394546156963 -0.49311984572282175 1.2625088398908708
Ni 7.583957395224482 4.026599157191933 3.656091152579336 0.08076143561978348 -1.289609809872721 0.49326022795542795
Ni 7.74193514108797 3.944043396168476 12.752993596382384 0.21266417000007246 -1.1380548484791433 -0.6626846134302588
Ni 8.002535797009973 8.712446363823162 6.840969160090053 -1.4750395696368728 -0.1425995519725028 1.2380630481436805
Ni 6.910033371117757 0.5790801974665506 0.1851341984314625 -0.3935675026487802 0.8618157819409029 1.7789917858196653
Ni 2.1459869080025666 6.376543086051924 9.45553625073018 -0.051937055188923456 0.43869036312934767 -1.0133206068228355
Ni 0.134334632685597 4.837998127673143 1.3892911128556342 -0.6542105145209766 0.36640328352916257 0.07159056775379283
Ni 6.5327510019462425 1.7377552044983797 6.900931907050659 -0.46240827557157776 0.28801523323756206 0.6104961043521616
Ni 3.11098896770552 4.273240846485298 0.6073811400812542 1.199579804466818 0.7556204796290471 -1.1646012315091039
Ni 5.911413618051689 5.619963464359378 4.79337662992735 0.28102903172771604 0.2449507979479201 0.19849019249253558
Ni 5.39782711310068 2.75214005836675 9.471039053655002 0.7786236253924397 -0.9280592264501694 -0.588075056344484
P 0.09800773806198362 5.6416279983922495 12.548543745948928 1.1515431127735651 -0.5250789151279215 0.35582062291730976
P 4.173249991252732 5.984221700168023 12.893455471181761 -0.6961218100427818 0.3097621379963504 -1.183790145732729
P 2.4669614560010893 8.615904408017697 1.3430368335126435 -0.7362510739634996 -0.4520423589562215 1.3544592022479383
P 6.211622161078613 7.749840381616933 5.628908820347144 0.2525898025504166 -0.050877246465841415 1.4229988989905493
P 4.7129392192362225 1.1071693245085203 12.627116935739197 -0.42812338624677876 -0.6789884927966049 0.8808985096039669
P 4.015235941184747 6.043606302672034 8.207783432337223 -0.44181373924967776 0.6082916405016751 0.7595635234371951
P 4.7282777456357 1.1618979127859441 3.923970801502746 0.18582211010656383 -0.6932853690352512 -0.41329480587437856
P 0.008750220888601046 5.693642847383612 3.5482141165251684 0.8454401687963568 -0.02681712019284414 0.24813510921317267
Ni 1.4533480664782548 1.0968498543805882 2.742875225379421 -0.22888654539620581 -0.23960547447560668 -0.28496050557163827
Ni 1.7666442752259153 6.50798245842898 4.741264667188962 1.0300402335703616 -0.07831503096181996 -1.2575432683554795
Ni 6.121660342338012 5.431390350157051 9.138174878684103 -0.6546638000083114 0.9059927335684332 0.20525013692418848
Ni 8.761275518870018 2.41885838504415 10.119736193662705 -0.2904582954614159 -0.8201865364358907 0.9076811770144497
Ni 2.3485099127824065 5.053763091042827 7.00495615940271 0.03965926626283492 1.1003156820571567 0.3846915403153891
Ni 0.5483214602074811 0.020094377188427253 9.224067903705837 0.5378650111489962 0.13958339085399835 -0.03238510119892487
Ni 1.5006252167829153 1.1149202721683744 11.434836941815826 -0.3228444251016053 0.24314228398427157 0.36946701005615074
Ni 4.233315297591038 7.054878071004889 1.5518440960907072 -0.8941430333186988 -0.9085144715490224 -0.44555906522472294
Ni 5.511831391268627 7.642162111082379 7.9722898566394065 0.7444755187558211 0.6914285183321704 0.2719530375683768
Ni 5.360814976617209 2.909137590708853 4.944119855439938 0.302645324445911 0.716654896999127 0.2484073890379528
Ni 0.7160142111940472 7.142961147162833 6.620631682164122 -0.6366822758292261 0.20836477129377018 2.4599016640086986
Ni 5.084939326653597 4.679965925502909 6.9348845067002465 -0.38292107867852765 -0.030066737478393384 -0.03825492971614057
Ni 8.16926285615695 7.256611459336945 9.039451040188439 -0.02389274745719756 -0.4106110883946283 -0.5703812386091467
Ni 4.675600344912289 0.2959237392913061 10.605468297714308 -0.25989533507289436 -0.24602397640744084 -1.0296458263454205
Ni 8.184156656051353 7.403806856465181 4.682949223507352 -0.0056800811039127985 -0.5460642591303371 -0.5117184346606154
Ni 7.418174245394395 6.135446863995293 6.902937714349052 -0.6206416774265957 0.16764929585227903 0.563247969998475
Ni 2.310925985078126 5.227197351970404 2.6462624763751887 -0.42054403123762407 1.0199352839258755 0.2823364376852299
Ni 2.403637847309284 5.176598366954378 11.553407381304234 0.7275111229873407 0.29669682017196003 0.754956363682487
Ni 1.0006800166712047 3.3441890252843143 3.8084154261977163 -0.4838037105282184 0.5252439799508761 0.17081869471919614
Ni 3.432925577123182 3.0531109896880855 2.7167725023469385 0.44529706981258793 -1.422977815944627 0.06608840698864102
Ni 1.2114622279738398 3.468748750909416 8.40304105819234 -0.36391856943409584 -0.1806711620332437 -0.14693751722622436
Ni 3.701622070647748 2.8629132623345708 7.338935781056741 -0.12312601662892343 -0.8450020528176738 -0.6903435127981078
Ni 3.99656650402278 7.03030012456123 6.094317830721996 0.12393642834536076 -0.7180625759799311 -0.6651950385569383
Ni 0.5991636833936291 7.270216459971747 11.206915515570723 1.431325930799006 0.6928716785366004 0.03405837513628973
P 0.36948513365092805 5.592281508431328 8.275969081616129 -0.02351685217501756 0.013938978678595348 -0.8597067060176999
P 8.817828393423357 1.5308847712301672 7.800212465354859 -1.5901967091277063 0.34100849760514174 0.8599735865258417
P 1.8769455245352906 3.125891843651048 10.500167952574229 -0.9575924600225961 0.7857779770490337 -0.4896683968391115
P 3.915971170042096 6.205777184154789 3.9123471028283023 -0.33503299674799714 0.8539214667944907 -0.7475014500663385
P 7.0824148101149556 4.070672461449838 10.532208228252001 0.25624256881165547 -0.6447210869733025 -0.19893319356722514
P 6.386190928396684 7.723701354379954 10.20905542798373 -1.8304107637215894 0.7784184513601691 -1.808643290137511
P 2.2263916449096475 8.461203116609955 5.931339180689211 0.700734883334761 0.6052798502585447 -0.7376734082323232
P 6.763772807255289 3.953418956979517 1.5338181509534283 0.4530468889613358 -0.7156771064668901 -0.29162686184822034
Ni 4.9866184648278375 2.713784666316934 0.7587143089168988 0.7516985188668215 0.5574629878855819 -0.3264786794200829
Ni 1.763068311083079 1.2752850194774625 7.15736030227098 0.020685553373809534 0.5080013908203445 -0.9383883762903195
Ni 7.008354232943517 0.5104489140774588 9.105563719390634 -0.46196681715878507 0.402302568528933 -0.14258721067732863
Ni 2.8222979335548906 1.497457674940656 9.279222158780975 0.4867805337683553 0.12826436629675328 0.6713407464433598
Ni 6.36498019692001 1.8409045255220817 2.56458164668008 0.6729433150437896 0.5412940914352032 0.20328864232244342
Ni 4.343090135935224 6.773620322724775 10.54705937070612 -0.030450088959741106 0.14742782659908157 0.1969490732576608
Ni 8.072693672198113 7.347008928531497 0.1288100403664481 1.2564793458673393 0.5396691542372706 0.46210385695728157
Ni 7.545683687634781 3.5884437131320803 8.384988792506801 0.7065144661310155 -0.08871514324922142 -1.121412611936772
Ni 3.1037008986529875 8.379981535101718 12.521937302079065 1.0741719337822533 -0.177854518520055 -0.3324798913088403
Ni 9.333447933826129 4.8307191346717335 10.44618360048897 -0.3329084942058267 -0.5990328409075684 -0.4243826882574239
Ni 8.47534360426107 2.5101906875044677 5.696125147366012 0.2665274956774313 0.8964631968114432 0.4105154433570285
Ni 3.6756373362798764 2.847511203577226 11.461032240569773 0.36949066420523463 -1.3086951086389462 1.2943846055535448
Ni 1.1901244317814312 3.3320271167782196 12.730703722427073 -1.0683015910444054 -0.2675363965579199 -0.47282921379458565
Ni 3.0621235084541687 8.478356853234223 8.029516174186142 0.18878479227931358 -0.9256215635429541 0.9762488987815187
Ni 5.6733124928659615 7.695157173595128 3.447722263270559 -0.2911974876202856 0.6178677142258843 0.5162834283234786
Ni 3.149117458477238 8.438159022806243 3.692076787680689 -0.22487151069954173 -0.225285972529141 0.8432673295147542
Ni 3.7245481757868477 4.195540772813155 9.405722344136375 -1.4444136172208994 1.401274105718948 -0.106773543412829
Ni 7.460904294085956 6.285056490722499 11.203050025397031 -0.4199369937812445 -2.3352671811550487 0.8482632400674487
Ni 0.5881471725393775 0.07580680940768734 0.28228606487245755 -0.03346779274014237 -0.04219540242112733 0.2503578278961043
Ni 4.4327342928864875 0.35150366116415654 1.8902727980057 1.0409319407822006 0.8233489933242724 -0.7137078985556611
Ni 6.387597716320896 5.755178474003998 0.1513440600969934 -1.8161264858884336 -0.40040458017527175 0.33728065513159333
Ni 7.867593068899071 8.795800817345528 11.333655308675796 0.9689837325786732 0.9917724483384145 -0.3467276594771061
Ni 0.07687415301986399 5.019110727851582 5.7403863258821834 -0.034622475169875856 -1.4044419619239683 -0.4260701032621759
Ni 8.069589662713721 8.736470671148261 2.5575277397465457 -1.2397998283291294 1.2527399334295652 -0.40169527396223725
P 8.510204716628165 1.680603310570861 3.617036904592975 -0.141996114060549 -0.3527180727325861 -0.6050296819209515
P 1.5594289520149929 3.2301756710652434 1.6535303576732279 0.6746577266317348 -1.12232458222808 0.024915789405073222
P 4.865471334425342 0.9817836782311389 8.223591190579809 -0.130179323931279 0.01844483696874888 -0.07876805933883854
P 8.530480614839071 1.5402421799389605 12.32600169520499 0.041140221683735594 1.3381301260706115 0.3956392975761444
P 6.302001478170916 7.784846710802011 1.3287302541259596 0.6172537347909692 0.5763194584704526 0.3569053713410563
P 1.657876878556488 3.2728966437056797 5.9540147868172895 0.5667937783682045 -0.013454325732692958 0.643526038223937
P 6.95936170897643 4.07710738169672 6.17051309511779 0.7271028318053284 -0.42618220336000795 -0.7236830074905021
P 2.4349502236869145 8.521704073402212 10.395599137154742 0.21540496597000322 -0.7813145419610414 -1.006957640719285
