# total energy = -340867.8017673561 ev
CRYSTAL
PRIMVEC
9.24306061566369 0.00000000000000 0.00000000000000

0.00000000000000 9.24306061566369 0.00000000000000

0.00000000000000 0.00000000000000 13.52815351390474

PRIMCOORD
 96 1
Ni 1.9475405784829634 6.608963882271776 1.4572932706019788 0.11781386038739064 -0.38279766572678586 0.769948466215945
Ni 4.369056056820356 1.2275616231745343 10.899741383945246 -2.0283365990702227 0.6650433434704225 0.959106068453645
Ni 8.663215594334165 6.844172043050957 11.369750086535152 1.099991980169151 -1.4502903877166506 1.039093087801249
Ni 5.422145669822067 3.439361301617289 2.520268336818345 -1.9702957449764067 0.2280077423356783 -2.3449846655531292
Ni 3.5390107369676387 5.911094327701501 11.008873275072046 0.37509772597936686 -0.25803231372222657 -0.6830132976852817
Ni 1.7721257761381952 8.315436199612686 7.823832010448941 -0.8136736750180373 -1.2868132209641903 0.19446641604512316
Ni 6.837322935213594 5.293870476074534 0.8144587469159493 -0.4021634718479074 0.44597378416463834 -0.6701292426337621
Ni 5.739977548493539 8.770721631117388 10.567043891056729 0.8351601270265875 -1.0658783263148934 -0.5993606565606323
Ni 0.7650222377821632 3.7316730902226896 7.034653034025823 -1.0782466180722592 -0.08066399080997076 0.6530429765754366
Ni 5.609881471825681 0.9006502861648145 4.193903757394051 2.363390421753827 -0.8709928204544806 -2.1033639604197067
Ni 4.068342326212037 8.595741252616556 4.2145878782016775 -1.1484534181046482 -1.5992248807682456 0.4816159588482802
Ni 8.147914970942827 7.798924735294633 9.493043702264915 -0.7719243589953931 -0.5146448642787911 -1.6850071666413882
Ni 4.797601314271764 6.5062827230743885 5.965997182820464 -2.104161002399705 1.2058931482793553 0.9087286444423576
Ni 8.144439580191344 7.089427410603707 1.9195100731825765 -0.23009033589631986 0.5871661713769695 0.04212392575324358
Ni 6.862621191827444 7.264712810101345 5.115197494900251 1.201241508439957 1.6209224203463375 -0.3577728615476741
Ni 5.290921939772079 1.7310588582955455 6.139901669078019 -1.2209384726482522 0.1689001375402446 3.2208574398077303
Ni 7.3035891226033005 0.389353756586088 5.881432422221229 1.1679516360385758 0.09106744553148187 1.4934903201428924
Ni 5.543830561426496 3.569457378285147 13.563732841540252 0.4425968972726055 0.726971962654419 -1.7653191734285791
Ni 4.118088477872884 4.537196570544335 4.72469390158681 -0.3539527164706356 -1.0242994744318423 1.0184450725335945
Ni 7.759484596101614 8.97437398331795 11.822145213018606 0.16715950070005403 0.3254443246182976 -0.4716727315926393
Ni 5.437285802936238 4.351161491674425 6.95077873004663 0.8748875275231965 -0.4581312454627787 0.6687033088205129
Ni 3.7255264549840303 2.727146517136639 1.0624685465004586 -1.5364768510067472 -0.37356534849524053 -0.866206969030063
Ni 8.799338146454062 3.107193436095952 9.431625413792972 1.0387243916079207 -0.9795021156114939 -2.775545714707123
Ni 4.25596721148954 0.7284040049626211 8.383775691793963 -0.08377476852481056 0.11246288048812243 0.9855308383040768
P 8.177908702295381 3.6002367697809885 0.19671451098231074 -0.5016091141407555 0.28065519332806504 -0.43096574079158034
P 5.067101229540307 1.3412697535594713 13.461297547752412 -1.0390558068054103 -0.7278919033655271 -0.2562610807544167
P 2.063892224173549 2.043640678597757 8.520152428077864 0.6532088127293396 0.6823841487417152 0.03926100238315174
P 7.26102482895815 7.2056866256892 12.975907468169043 -0.48015840046614733 -0.6428637220495896 1.0372804600725425
P 2.9589255024668857 8.446549012936563 10.11525695795478 0.0745607061257103 0.7262515395486266 -0.2024707744068384
P 1.7160758572100323 7.26527663679241 12.967492585881411 1.1198360114782713 -1.8687554249380591 -0.7885213441221259
P 8.84695839419778 2.204987542847429 5.334772867440119 1.0705999001602788 -0.2541008398783043 -0.5458945663216921
P 6.201631448689123 8.092151586890452 2.9404384571423114 0.4408161512230989 1.8431158699930836 0.4178279178580417
Ni 1.8637060196639599 2.889020235835339 5.19654289752411 0.7624580713761707 -1.0490306586299354 -1.2197711918130283
Ni 7.780484829578656 0.7962037024101575 8.99906312224424 0.019329553566547353 -0.5367959464545335 -1.446148083413503
Ni 0.9291863868750581 0.17521792515592086 9.658573975701078 -0.33552999098907377 0.6503212067688993 0.5056076937771874
Ni 9.182342844776338 6.417669501972096 6.416903252255879 0.1867453932517816 0.9972069890904246 1.2136180277274389
Ni 2.7167295879427016 4.061178954317359 2.7717156306062485 0.9090780573619763 -0.14546196112196239 1.814511833103146
Ni 0.3427715045375619 2.5823354881380367 3.2349334566399994 -0.6208478799001308 0.27721711418079353 0.06256316744420193
Ni 5.840810095589074 8.162500520426441 7.495706135288304 0.7811980709878352 -0.009761964482770285 0.9282492309737884
Ni 6.435129643274092 2.0755292373547096 10.216122780068149 -1.2173643821437485 -0.4806991034609657 0.9522044562378054
Ni 0.441345047644634 2.3314788259166748 12.558550011158045 -0.9994626178938205 0.9233754478212549 2.240080571248871
Ni 2.7471947153812284 -0.2277684213752772 1.2306719130359007 0.2164650318034014 -1.4277384705580636 -0.8977870578291893
Ni 3.5795045850587144 8.149523263471439 12.245535615624 0.0021733535022349666 0.29405963965942905 -0.23380455152311347
Ni 1.569656535682818 4.188539085074475 0.9605046487985893 -1.6866007363807534 -0.7662422210089513 -1.8817711204714365
Ni -0.24203323665922075 5.844803097729076 0.029892981993003196 0.7152425900326328 -0.8619325100244252 0.18687471974079428
Ni 6.09700924678479 3.1740484927594417 4.526574445407092 2.786000848602176 0.5956904067978966 2.4489148259798923
Ni 6.226689385729731 6.012472215367082 3.0759500429625457 -2.3567086388582767 0.2615256715874657 0.17991834302761917
Ni 1.3684905667592469 6.848941462273737 9.884913419921624 0.1371552410284799 1.3794714080215598 0.3713112623537412
Ni 0.7849853998700665 8.782580477750772 2.414491676656405 -1.1669705030722288 -0.06533790197586166 -0.5468445889397873
Ni 3.5771660907498712 6.270658624572289 3.485122769892593 -0.3650241437934488 1.750199287068005 -1.0190940189715028
Ni 2.3687560889505272 1.0712244977208822 3.340533574346212 1.6019039702623057 0.8483195472266809 0.8076570365103123
Ni 6.581964902524223 4.12964230350946 9.273576473533007 -1.146407848429529 0.6457767819313266 -2.29523099116877
Ni 6.706126934345135 8.996788405052909 0.835969197333103 0.8489111580640928 -0.03935484764853867 -0.669637390599008
Ni 2.687382870825796 1.1795346807684106 12.822970864676748 2.15429288605909 2.298806367224854 0.3363280614103369
Ni 0.7590050053906338 0.19956229792521424 4.929605158628735 -0.5744060434978236 1.1887287206849269 2.0447412656804915
Ni 7.0872552913840305 5.915207489628123 7.865065303380757 0.6525282417225471 0.948926813927798 -0.10464415577465203
P 1.854638577304374 1.667669949323029 1.3128020514969962 -2.21430063407129 0.9515467680491483 0.3502192175701323
P 2.419823998264198 3.509664019850733 12.464988979765145 0.7154009699873679 -0.6881033106136795 0.4300465714114206
P 6.215616199239636 5.26986624793198 5.1752357944381595 1.3359513732517379 -1.1402647116462685 -0.45970527481811796
P 4.023439538258043 2.4072626790321117 4.346081505618535 -1.5425667659545692 -0.2889755402683023 -0.2962137098879544
P 8.45070839016573 1.612498121143246 10.972549895882752 0.9391283397801374 -0.64133288722736 -0.5544967061684063
P 5.025276380735898 3.599192303943442 11.108589260458064 0.5817398581550756 0.5768689032160194 1.3167375193274484
P 4.366421784575216 5.690166695409128 1.4219034405241173 -0.11257163815184483 -2.6860620687229937 0.1635041633356539
P 9.217669822042735 5.171566299415983 9.548616679270799 -1.459088702734571 1.2784723051986626 0.8190696492226281
Ni 1.6039298040511603 5.236350910525399 4.636477207780366 0.08577200146049745 -0.4595391815538989 0.3730930368445123
Ni 1.0699397123100949 4.95690546214889 11.724241791798455 0.06952777168749316 0.4744767767003376 -0.7037721274991879
Ni 7.707538596039563 3.9118850409717645 11.165867582127909 1.2849481427309934 -0.013786255150814967 3.9509890311370532
Ni 9.189312112400321 7.00639699804901 4.029211829546077 -0.3808649674804473 -0.24032692602266353 0.012715133573823263
Ni 6.512706650128325 5.77902023608466 10.912133555170012 -0.5550268676402635 0.9855367518413479 1.1401225296414494
Ni 3.2333242398053366 3.7531262336646862 7.057935379142601 -0.412565898128154 -0.999101120789344 -0.6104007164248778
Ni 5.170087409734501 6.452793131907291 12.860241657568244 0.11163112861544647 -0.4907924831412258 0.13310858176293203
Ni 1.1848679266822544 9.169735310241705 12.02077858336264 -0.38634321698619917 -0.061254990155739666 -3.1669162097045844
Ni 6.987420994823495 1.7747323192018072 12.712690061128646 0.9426831470109314 0.861392321250239 0.038586859134262574
Ni 8.765979941076138 1.4711994551381629 1.1219735214469833 -0.1980209661656009 0.34973456462422997 0.7250027547431901
Ni 4.662717332260109 7.69568899246669 1.3680071546946124 0.1425149626784965 0.19908308888152812 0.08116509881610537
Ni 2.0457388533333596 4.82270546661492 9.07204725233142 -0.1224531589316149 -1.349898322350133 0.4600315478092851
Ni 0.3392129262414962 1.3461870617503986 7.398831466702834 -0.3699367506037177 -1.1485493202525638 -0.3723132212556942
Ni 7.531513751701184 4.322628163882335 2.804778058047878 2.5051811046717885 -2.1586493632555728 -0.3737648661005563
Ni 8.068396921381648 9.331701459545497 3.680564511442778 -1.766396208542842 0.09281425301925951 -1.4004436393978525
Ni 9.330777153494571 8.299519649415737 0.07669984041190432 -2.80438423620537 0.08573780578845235 2.971177611815257
Ni 3.609470587229741 6.640880170210257 8.219381390494387 0.26712450583148184 0.06700629081722008 0.11559422702825253
Ni 1.5264452278020197 2.3928619907586817 10.645249426025591 1.8457947023768275 0.3472146264158536 -1.2284563782918518
Ni 2.2864743642970797 7.130346439478208 5.787235468265292 1.6654235880825061 0.520423418633781 1.9402714307001745
Ni 7.750860820646473 2.831158677047361 6.954282774285691 -2.3130873026239 0.9637682498160048 1.0018190339411392
Ni 4.842069678381822 0.6318574650252301 2.0253810125617107 -0.4787504643750271 1.4487176439128922 0.09240390495471829
Ni 2.560873101635531 0.8386376689021269 6.686289477880157 0.06350290564965193 2.29899919996195 -1.5626293410323993
Ni 3.9156007512964877 3.4299795952003884 9.265675505409687 0.3645819140497076 -1.2054012962446015 0.6170899555195953
Ni 8.349866600009685 4.783773695749909 4.9914560223325095 -0.03330581324098135 -1.3061036937626862 0.38670471409067597
P 5.285246700619392 6.875589205721938 9.71949129029342 -0.722445278428659 0.35309036847034025 -1.6997257037984856
P 8.676710462677686 8.441169551720172 7.448073871565925 -0.24347061385796778 -0.21767936382647673 -0.24384085271319295
P 1.8560897378043282 7.959744745095278 4.041116891482007 1.5809337957685419 -0.13695212387873834 -3.492175929115902
P 3.916220036350608 8.53169608634788 6.627022973894771 0.9913615860532411 -0.853734547594665 -0.26314186703465003
P 1.96310589238056 5.462232823250735 7.053633658781591 -0.1423313859127807 0.8695717717372378 -0.4997095831251974
P 7.1556262099710395 2.0431692825117844 2.7551982814761975 0.53778839227479 -0.1704008904554872 -0.07450337052521362
P 0.30686036584697846 4.974282415906301 2.935284526602347 0.9527729271467656 0.22265033467850684 -0.7822103143024335
P 5.629522975407862 2.4614362566768944 8.163564396691058 0.6902627801588435 -0.23927945859475566 -0.4959120637559781
