# total energy = -381175.6272175358 ev
CRYSTAL
PRIMVEC
9.16973774963165 0.00000000000000 0.00000000000000

0.00000000000000 9.16973774963165 0.00000000000000

0.00000000000000 0.00000000000000 13.42083808788596

PRIMCOORD
 96 1
Ni 4.054555416348768 0.0635957989504989 10.852143421922749 1.609170936237364 0.6966365448956713 0.9171670050176979
Ni 1.8452721691328033 5.751250325281015 1.1302985497353137 1.2238762151203373 0.8213882700534756 -0.3054761090264868
Ni 3.851940891792113 8.886007690886258 3.8103634670435254 -0.49558219122038516 1.0558127145487752 -0.9170255943438272
Ni 8.729727851004874 7.141455920818005 13.122077148335066 -0.4753794910202651 0.5345619149176923 -0.3225094103596897
Ni 4.773233609783227 4.461700940644569 4.195044967884453 0.49725469382680165 -0.6849619367712203 0.880829089818612
Ni 5.917470160845754 3.7494782425616613 11.292735564535006 -0.28906835709242473 0.21574409447697684 -0.3306479803064241
Ni 1.787493651788873 8.498788006645743 0.2896701804779061 -0.7566766888077033 0.37205662516019794 0.6773193326242981
Ni 4.476115768332977 7.3476741522967615 12.653663104520902 -0.22072354996943921 -0.13035570160814322 -0.8241576052684968
Ni 0.8012296741899692 1.5379575793431706 1.7199071829846877 -1.2024167596949809 -0.5828328341089382 -0.5498013575752659
Ni 6.9630495038296685 8.349559695067404 6.238770434598721 -0.6977776004786499 -1.198006289332111 -0.8117741440024794
Ni 3.824505036548018 0.31735636956162744 13.35617688431088 0.8238835256715036 1.2455981801784612 -0.049824893941927094
Ni 3.468022313129096 5.755945230991235 10.573003768237063 2.6336732707086323 1.7240172293559988 -1.1822549400351252
Ni 6.870361795003697 8.75859418533255 10.94548493304782 -0.09399001849491555 -0.931281590042209 -0.4634277179750277
Ni 7.480039316216716 5.969178311822175 9.079331437189799 0.23511452858378862 -0.42952180925620226 1.8542055521483423
Ni 7.295764267090605 4.714189668634589 4.718203262832564 -1.6639991969311534 -0.31289656986027403 -0.42602947983222755
Ni 8.982051523716018 2.949959641429362 4.529747730282061 -2.2502986494324535 -0.9298106619236374 0.4993851099062432
Ni 0.7140291364128166 6.310292554830301 8.626632489872069 0.05655398513564454 0.9267793312964813 -1.4858232905159379
Ni 1.9193453103967724 1.8955039923370647 12.975387020156315 0.006828592886059207 -1.2754201486359003 -0.6756540291067332
Ni 6.527560320255961 8.267288808285981 8.489015817162578 -1.0239294926869336 0.39929772026433813 0.9953401110850149
Ni 1.38130178021546 1.3029188622253132 4.311121926700769 2.289075513090335 -0.6702876225884973 0.19762990137476932
Ni 5.632355506064796 2.8866792814562685 2.722752797294118 0.33574853475778305 0.747128382997636 -0.17092616683133788
Ni 0.7046824227596395 2.556412838165309 10.99859146902582 1.1073381361215768 0.457264012366477 -0.5747109763327521
Ni 0.25758160031708255 3.388355631858811 0.4101357757647517 -0.8190007436579055 1.4024580987247202 -1.2054997694956788
Ni 0.796256925426977 1.1650151767253343 8.846882254002734 0.9912325166745445 -0.05264976498523191 1.8103438177683853
P 0.7282458977665746 6.673716769699684 2.725758637317185 1.6083870068834878 -0.7877906366036884 1.5481933681127271
Ni 2.658994693986059 4.49020965520135 12.177115503353294 0.48755495004053456 -0.6290137035403748 1.3049407838028364
P 2.788746482657161 1.7185188846945956 9.878716160151455 -0.14221311516736154 -0.15890497400074569 0.3519505984389422
Ni 6.325046662814174 2.4440468722023634 5.153816237865429 2.1351829047025164 1.005557417937649 -1.5154732521718868
P 7.9500433925507075 0.910538449598643 5.638160867012335 0.7473366423536999 1.0727064049803203 0.28243028295061684
P 0.7948768799008286 5.384910133818175 12.572251422163403 -1.3664392574279498 -0.8448611563644353 0.2508224262373487
P 3.0865612241737717 0.4962872955472772 5.868314864849267 -0.6002204334577662 0.41747361984241654 -0.13209171046264348
Ni 7.04057046647458 3.9139191490096374 0.12997002842872526 -0.30656985631129785 -0.05365198099750115 0.6968712866142966
Ni 7.755681631937798 1.6256294416388881 7.974138712345129 -1.0471529819912482 -0.020914638665480108 -1.5548206436212577
Ni 8.878726919140332 6.593096435707012 11.003892494399018 0.35159912863679443 -0.6984257755856101 -1.564334239538648
Ni 8.122049332613784 4.1987587116591385 11.33303839574117 1.7460371852705157 0.6608784134594554 -0.23872564297381466
Ni 8.547314258634964 0.5189723096810891 3.556320468510767 -1.4716308010656398 1.1210513719426114 0.37235950111259747
Ni 2.534313770271503 3.5436359703292304 0.8711214150557739 1.3096374179475576 -0.3982919047076431 0.7688495767248115
Ni 2.3335973814219098 4.145042388123074 7.591684540795241 -1.0454822791570444 0.43082278745581293 0.4232884267519807
Ni 0.03889986133572777 8.022832770534539 5.141308715621797 -0.09403526991055418 0.1719324966086652 1.031171004740695
Ni 5.476442455692023 1.1319124235732017 6.666519442566967 -0.1178629684577712 -1.1503277523092255 1.0069902937294335
Ni 6.63113250774996 5.309855830618672 2.5149977177742824 -1.1387678153857677 0.002499369383086018 -0.44589536551821923
Ni 1.418824346946354 8.730177168152922 2.7499566581740167 2.2005138646998423 -1.328071713393345 0.86920436109549
Ni 2.302722874534588 7.5977145603168035 4.896270399525435 0.08473250445238956 -0.5408184373503654 -0.11060474423346113
Ni 7.163738383466116 3.905510499524733 6.793896269169813 -2.2498062831770675 -2.0126312725198243 2.5292664277557666
Ni 8.985160064801496 3.6052841169890057 8.75396988660274 -0.47957450293821924 0.19525420205374117 0.6717855472902624
Ni 2.112790097238155 7.0113831913268685 11.932333022939186 -0.40041949257360715 0.5214899122250826 -0.06719938066463266
Ni 7.569801878711516 1.6142864760850963 1.467246980899392 0.33021552075469585 0.4207340357612431 -0.3475103032794015
Ni 3.9388791750706087 2.6714380280656838 11.497296824408615 -1.5168703896297295 -1.1862846300198087 -0.5462398654762528
Ni 4.595129794139495 3.2764206435684833 6.6029584886197865 0.10817196642225242 2.301719684216907 -0.20962949693880673
Ni 5.441900053718592 5.651657803955445 7.934533698179098 -0.11340236158325631 -0.05361572844292701 -0.5897493587231133
Ni 4.039874666266617 3.9974462898580527 9.153588890181846 0.5644450756303698 -1.130312485529563 0.2562322843990103
Ni 3.432654634761291 5.507720431038816 5.949457873891711 1.657603577817455 -0.2388505985874532 -0.03130343809897189
Ni 5.444449240803437 0.8162368669347836 1.9397938255018294 -1.4849421734625652 -1.4543465600638952 -1.108603890207878
Ni 7.414970857389144 6.98616641260987 3.9625691924580146 -0.0656448916933192 0.8077832776755314 0.4792258613495488
Ni 4.522661356975699 6.685949199811858 3.7828515029763943 0.9701245310513357 0.35155284877989135 -0.17715466423955295
Ni 3.771934930226363 7.592111850572773 1.618633848735907 0.22080248283649068 1.017804610736118 0.1552987447067261
P 1.4872214205645693 6.159963874726128 6.296601219447628 -1.8764342816395554 -0.07789105605052393 1.5190031197020162
Ni 3.2567882351200854 6.536464135577489 8.126451723690886 -0.33717652545356125 -0.5132515834756902 0.46055219619944554
P 4.89863894277729 7.2640094653826175 9.650119183778576 0.031402425570681396 0.45536576690249964 0.18841763874788198
Ni 3.267883617755565 1.8856648637685773 7.719075122004661 -1.233128844066857 -0.22888166030019935 0.4065024655428935
P 7.738442525033086 3.5122938068184304 2.627478305458669 1.1690716085756319 -0.38609227731765766 -0.19845908214428404
P 6.437458477465696 3.990660683948751 9.090255345730004 0.19955925718699824 -0.893905720496912 0.04135053792232878
P 0.044992235073754626 8.27596338016463 9.787589140684624 0.05630124569489014 0.6593588914911355 -0.5430707237196518
Ni 7.722349635342784 6.0670377527195605 6.8949687861626305 0.7640367287172003 1.7191470457478908 -1.919284286925546
Ni 5.8609112186179555 1.3774229811618997 12.134504649164194 -0.8069181014617588 -0.29274837704717327 -0.25406073066898827
Ni 8.72403344388369 8.545782912436513 7.719410734405039 0.5839528066459942 -0.37950999611444963 -0.05030594734340368
Ni 1.1265114480589065 0.19129723426846582 11.407564522048274 -0.41047224882391886 -0.5295096972057655 0.003706759427625874
Ni 0.20915163057387232 5.46407247951412 4.431748909371404 1.1448536165685315 0.9026009342780649 0.5751074404402224
Ni 4.314902609560776 5.3011904284777405 1.5853366971442107 -0.08256146494299975 -1.0035213613442266 -0.09157780950899712
Ni 6.773208423910388 8.653637367443546 13.346338672716165 -0.9174164020243426 0.2868081003033383 0.8119266104199437
Ni 1.415459053204849 4.860822944439507 10.1921203727578 -0.6165286836994867 -1.0959368362631707 0.21920119978764185
Ni 0.1293143921820833 4.120366623931276 6.4743199061073184 1.7650448367212699 1.5794312430810864 0.5250992268428957
Ni 6.058262313726044 0.20542963403524334 4.2533048964584355 0.5304800315388348 0.38781594487698373 0.6741496766470647
Ni 8.033708079464851 1.8932023881705313 12.462227407212936 1.1907966589575494 -0.3382270782052627 0.9916814312865049
Ni 7.747043739010012 1.59150884760036 10.25231236506839 0.9392507242906146 0.8617409628389094 -0.19257125590493934
Ni 4.138706099361821 2.016682076244387 4.495631721112391 -1.166071388296727 -0.16729808316044736 -0.05999566382734184
Ni 4.892898686967529 2.855181232404308 0.3150795236869254 -0.5911107578470143 0.23041660888748705 0.20742220487484278
Ni 2.511196861491302 5.085995023775731 3.7883671002121306 0.1779643046250419 2.568740317480673 -0.2439444681705928
Ni 0.7801053494152965 1.7614424269397848 6.61695609324215 -0.6437831485400655 -0.5240152497500975 -0.29284762162919886
Ni 0.9543863014055317 3.745700310622969 2.7762747223906192 -0.7735572666131257 -0.02536573245829825 -1.2496972899484993
Ni 2.539870631326958 8.229619525751643 9.669552608918554 -1.9357550308870595 -0.9533609384397518 0.28139875636230893
Ni 6.330759409410789 6.359543216099028 0.3790476139886643 1.5212165824135673 0.7414369890398135 1.377584218301176
Ni 6.532282735179326 6.359103068688695 11.321859568492483 -1.2220934121883016 -0.2315977736797818 -0.010729213492046037
Ni 5.62544152382748 1.7547118394567751 9.468549207278471 -0.9803138128795116 0.33686310797820046 -0.47148221284838804
Ni 2.929217694717416 1.3310882964866295 2.2880512941901525 1.7614360363240888 -0.039842585918234606 -0.9888113088275616
Ni 8.630227027056455 8.083848205291961 1.9346807797517933 -3.481434117218366 0.22742667302122768 -1.0308781560906246
Ni 1.9031698930670322 8.520712849522958 7.46445534696961 -0.9835616303928479 -0.07007335977831804 -1.744584511984389
Ni 4.557231268162274 7.955838666786761 5.985519701404561 0.3683508941738366 -0.8063997670644436 -0.6685953224877389
P 6.18542823636144 8.086938406902007 2.61111765942708 -0.7106513711175245 -0.9872809882259642 -1.6043583453400692
Ni 2.086858078979365 3.3284772445780835 5.3425404437309885 1.0789122766807162 0.2395730785757745 -0.26267264070771534
P 5.692252232820954 6.090338056254067 5.757847951567154 0.7498167284630763 -0.5367236984557016 -0.8345075810442532
Ni 4.099138681120421 8.918853691382363 7.949859997796403 1.2146935201798048 -0.521190892927425 2.3737398833089505
P 3.137526626395255 3.363982469011617 2.851887462616982 1.9342720185836302 -0.5452841864312029 0.886165671540177
P 8.816409381627341 0.051265252644772344 0.08690618919649237 1.208777926026318 2.2900121659719916 -0.5075756161368356
P 4.979607726803144 5.18951219284344 12.807210362563136 -0.9389614751849701 -1.6830122476985467 -0.8909178415131817
Ni 8.698917532281559 5.628045729338617 1.316895376450931 -1.3844776029868995 -1.8686808629463818 0.6716981297827787
