# total energy = -340886.89339250966 ev
CRYSTAL
PRIMVEC
9.07677858870789 0.00000000000000 0.00000000000000

0.00000000000000 9.07677858870789 0.00000000000000

0.00000000000000 0.00000000000000 13.28478295941923

PRIMCOORD
 96 1
Ni 6.693470794607155 2.1798882596045295 11.081873658614667 0.2607427706748542 0.4103503785340739 -0.6337900418830956
Ni 4.7471189752713 0.8421081323024796 5.98864712543094 -0.4751910291585429 -0.7580838535678751 0.07832223005067157
Ni 2.7676096831886805 1.5800493363989911 4.429093155432767 1.4907505526142262 1.3878565467614614 1.1027412607795137
Ni 3.461102809460493 4.743061655173352 4.427539210912031 0.20624026875159965 -0.3416882972809857 0.8415783718481056
Ni 3.819690030466138 2.990843979584489 2.6023297113865778 -0.9004352940853138 -0.8955283437019997 -0.5898074656545583
Ni 5.140134418047673 4.868230434033976 2.4158509228311034 0.5076113544707774 0.20034575764403562 0.3136694434705566
Ni 5.613588274041076 2.658270806455172 0.47928568633553237 -0.650188794956093 1.6921748880344212 -0.2670278323526175
Ni 5.892072922643166 7.8433625096150035 12.52089526833394 -0.47685350446263036 0.7965424146543895 0.22571174721264997
Ni 2.060664770820316 6.521729064018187 0.3297866020553352 0.6861459297769925 0.797243297376156 -1.4689046603837284
Ni 0.6124792452825005 0.426534171317092 0.22861228780080647 0.05902841481806608 -0.45553880214525416 0.4426125810018893
Ni 8.077679552855543 9.15429443307428 7.074373276151513 0.15712037129649714 0.499140855105921 -1.709437788879927
Ni 8.759826705699089 2.423336542260136 1.301871482918401 0.3101128364675498 0.6110494057524702 -0.08784482482912613
Ni 7.131416292159459 1.180407845140511 4.651600401851292 -0.8623336021175858 -1.64487327473498 0.5583459047111674
Ni 0.6863424399783828 7.603662936580096 2.202497607774503 0.8889830863843141 0.16856280880548388 -0.0817911624358785
Ni 8.01405133386983 4.293806491307752 3.7930578539574387 -0.7223249508007108 -0.7888231916332609 0.03863828119748829
Ni 7.739388009118379 3.8535464151760817 12.540344082145735 0.7729980516755461 0.19795540303498813 -0.5842510546127034
Ni 8.760788844245807 7.509073825303333 9.505408742141132 -0.6911230712766098 -0.47191930038580665 0.43503168333083786
Ni 7.0056847530167925 0.8076790028538766 0.648966988149928 1.524271310079491 -0.27391478928043794 -2.6909769895261073
Ni 2.256659654209545 6.893287001847024 9.458021603359576 -1.3849092912076795 -1.902735895648562 -1.6037932168652187
Ni 0.4424257955396577 4.93259387209784 1.068566500507664 -1.5565854488311643 0.5284280341058125 1.4663975776911584
Ni 6.475691642235657 2.398121250913159 6.648037886288884 1.185953986153267 0.5416003098217125 0.6092288076039637
Ni 3.675233096777462 4.0287373216872435 0.23671331282858804 -0.5442405756580369 1.3550808949923374 0.4965257860805772
Ni 6.037310459303707 6.247029432151766 4.49329865754651 1.2051992075361244 -1.7682191206841935 0.8361415171032502
Ni 5.603095517814616 3.274792848989632 8.671389835054068 1.086442009398858 1.0510523170456543 2.0890179761106795
P 0.42654052506221185 5.905179791147498 12.20454411417342 0.10393735951561454 -1.5545967005359098 -0.7924471615390933
P 4.126684841098774 6.090164541921939 12.585538271183076 0.2200560915887694 0.5547116503926899 -0.10141613575565761
P 2.4535985225880057 8.651241201601218 1.212551441701724 1.263996737290307 -1.2785520093966627 -1.1020164667983474
P 6.817677434921063 8.196440125923882 5.524264602112902 -1.268675116602583 0.8000414289465835 -0.14295822086350216
P 5.18112515084931 1.2200098307945288 12.268869429766564 -0.6062067329481882 -1.6045331803550367 1.5525485597576294
P 4.0697280544888805 6.449532365899448 8.255004410049091 0.8167178611609999 -0.2922922633463611 -1.245829579462977
P 4.929217310405589 1.497577724743615 3.9222921220168794 -0.4272335274426578 -1.1613534139957677 -1.3805265887589515
P 0.5115064355160577 5.75664738380339 3.130359514925687 -0.11568421563889754 -0.2601989823562422 1.9752083517866754
Ni 0.8528514076222355 0.22144344794989124 4.584100029053982 -1.7478585547499703 -0.7602505222018907 0.7718809073519673
Ni 2.03128323803048 6.878410161487882 4.540247387914798 -0.690373851815411 0.025149245572117975 1.1635280530495833
Ni 6.2967247957675685 5.674257463156698 8.588213865368266 -0.20602403897573554 -0.8354938562169225 1.6754020394514564
Ni 8.951010896354735 2.701594271393661 9.863566631512251 -1.502115342807742 -0.7092609185279011 1.260295891399952
Ni 2.3223119948548603 5.503904479715349 7.223879621854703 0.6717022435478367 1.8381960640939634 -0.6609174942275069
Ni 0.9707524097436505 0.2842629259496372 8.710234817360952 -0.4846632303150362 0.08082339920597048 0.6663697755913298
Ni 1.4661448399579484 0.9278464766273217 11.310863540411164 0.24600057936867312 3.172399087196027 -0.6962279966033429
Ni 4.384356436044054 7.053945985591263 1.3079983085696645 0.53627684072627 0.49570586128244304 0.01789410667160144
Ni 5.796848436854421 7.877899652730643 8.142615735658065 -0.12783113541407662 1.9554211418574197 0.679944428951971
Ni 5.444814650100942 3.408176112612321 4.613233765784145 0.6638025290847859 0.8802099681773745 0.259024759542483
Ni 0.9913748510468657 7.736084061656068 6.847840478360639 -0.24719074302203237 0.03418718740467015 -0.6320663743237696
Ni 4.993453673567057 5.084439303683003 6.537548074010812 -0.01940565822012142 0.4089879509689085 0.4229521264584845
Ni 1.1727924277754591 7.842581906643138 11.569465505177561 -0.3702067164356527 -1.9648524624736483 -0.007498622369890311
Ni 5.047315278625718 0.3573182873374271 10.25877502403284 -0.6479581058533616 0.5965591825560952 -0.6185259166351735
Ni 8.523376619454037 7.266342608168392 4.569195050680737 0.08468339638200899 0.13967029414084978 -1.013086122214526
Ni 7.553749730274471 6.696130290778741 6.825548817446656 0.18026441351312825 -0.7568335261005417 0.48130177004197106
Ni 2.683431637129693 5.774492330811366 2.393785273707813 -0.7041392810306195 -1.1293730044344292 0.5163806160229752
Ni 2.6925901068809894 5.176287227779497 11.24018901808756 -0.3500299843774617 0.46252474654478415 0.5565764715155705
Ni 1.3449335366291029 3.666846153219288 3.553812119859662 0.3334237432793483 -0.0059094235058995 -0.0620350628548738
Ni 1.6692014572089298 0.9183158589475787 2.562940122355137 -1.2657710555819104 2.555338185142154 -1.702461871782726
Ni 1.48605929251924 3.4630724704476403 7.9836368636590835 -1.5388864888895046 1.4428830395089858 1.1450353935620345
Ni 3.993673725404532 3.037979691594875 7.003139624257365 -1.0619818194739645 -0.3876621929079388 -0.8605312588015244
Ni 4.706255317372059 7.449194315938319 6.071384686703475 -1.1261007614410607 0.35201204780449696 -0.41116901778062737
Ni 8.525654890918432 7.321175428552515 0.11167342422610853 -0.9835348909199707 0.4408914845457245 0.9745177750230248
P 0.37416388100584136 6.1025906520205755 8.06946960648285 0.0887159145801698 -0.8242730478004386 -0.15570857855063505
P 8.79533506414019 2.0377822116101902 7.8500711567836685 -0.34370532771101453 -0.8512547185956049 -1.0033560394109557
P 1.8963478452428042 3.1326504938803224 10.317666979870657 1.6961886371795047 0.8677249483364863 0.5758116655960986
P 4.129498642508984 6.723033862971844 3.757495034843884 0.6508009746187953 -2.171589982576641 -0.25417231654618805
P 7.071908930722892 4.335069527471669 10.279074332012817 0.6083592605148168 -0.578149569700656 -1.1210184618221468
P 6.653106359538758 7.881993279943561 10.272830415915774 0.06889528030981683 -0.1706608289850932 -0.4647212399754706
P 2.5755541217737457 8.847335929556616 5.786492739986974 0.9904547579682556 -0.39232925936630497 -0.8165731080530194
P 7.2914399013917155 4.083815215097415 1.382587645564956 -1.0222508194329298 0.12070995098826308 1.5207111035320584
Ni 3.0533376012273754 1.5682222936973673 0.3248842338564503 -0.6302437192927338 0.48421842946813376 -0.1251924122396489
Ni 1.7631007333012547 1.635308765384015 6.68953964173373 -0.35060436882369295 -0.9964086615588451 -0.8785809172143836
Ni 7.571149915124058 0.5416840018016211 9.239633399134448 -0.8563938395943831 1.024586409544642 0.6219138592708
Ni 2.7749255668552264 1.8278090889573382 8.817548664756984 2.281051357234278 -0.8891682058119267 2.0647984414416825
Ni 6.56193919384796 2.1965804557121937 2.6223095167548163 0.19082856218221975 0.9335351619630761 -0.44173532060325865
Ni 4.505159284329482 7.036881641555151 10.344727580336007 0.6280338561256088 -0.7043619385643869 0.9286122707401621
Ni 7.25538693622606 6.193512744685323 11.51839864029375 1.0899795902384712 -0.971735070071565 -1.1266432642080921
Ni 8.23153095254282 4.272784671739862 7.7439391059799245 -1.1092669777131736 -0.748975977729336 0.6710615246400443
Ni 3.4034108037724495 8.422370225606247 12.421856720117548 0.7137472364340288 0.09569697388369325 0.15902992961438417
Ni 0.5482637587121408 4.969245904660509 10.019396768965422 -0.5144533170932752 1.036361547802699 0.44293319756610167
Ni 8.764982316024893 2.5040472588394453 5.554275155669601 0.9201600262077507 1.8617124020483484 2.1111376908278547
Ni 3.846684370446667 2.711143042630889 11.465073472858776 -1.4515342874260808 -0.7834701548514637 -0.8335794128030289
Ni 1.2708216381956727 3.7474661020111713 12.641866037026105 0.10415744594622062 -1.148585315696822 -2.719105115220891
Ni 3.170927269837919 8.748662267845676 7.845169696262658 1.4479625109144223 -0.6022822010828014 0.3947473818894944
Ni 5.764526027751978 8.342739645697309 3.4436281950252163 0.8994189370056574 1.039920211688235 -0.13397761463144667
Ni 3.342732537878086 8.517921475429727 3.348164082277665 -0.43698906416752487 1.8512027607662764 -0.8101980577646111
Ni 3.5393809493367825 4.4402693930985455 9.123112067381909 0.16774648355177563 -0.07072924819476206 0.0687340721416042
Ni 5.179609328799294 4.508063853527117 11.27757173133901 0.4703534985605835 0.8666671964959332 -0.18075780820977902
Ni 8.250120195407693 0.2114126997614303 2.463875251480391 -0.25589109900950774 0.10502725014568363 1.1889156398847522
Ni 4.897802579177407 0.3992166980133258 1.3055239786844284 -1.1246128640416244 -0.22616940357535886 0.5532000988441699
Ni 6.0439637381220415 5.370648290995056 0.19988156004681554 -0.5330961290054432 0.7389394194289403 0.21100555135072693
Ni 8.056249278244234 9.02357974240192 11.607738650423663 -0.2771116989511808 -0.5177880378934631 -0.044567502197729696
Ni 0.14760294520086534 5.315316247780091 5.796469935180854 1.326882063960618 -0.8660614445911343 -0.4326675539740355
Ni 7.2651444733743675 6.135539358856258 2.4312079247857294 1.1865833922071498 0.23340963007753995 -0.8213903269360048
P 8.881655229982433 2.063587493575437 3.561052666262644 -0.2555601980326502 -1.195994915329037 -1.1562893692092988
P 1.798309558043848 3.1761282640574358 1.324236665740198 2.048955303761839 -0.5980802471863119 1.0856999890265109
P 5.059832156511781 1.3437989392862764 8.14556478107154 -0.4509015604835589 -1.3298838269014193 -0.07743905611476987
P 8.672716860106238 1.8968107609586775 12.150063472804511 -0.030205062828470564 0.25835524427928414 0.542801272108349
P 6.687153356602297 7.885133845388506 1.3821755598100414 -0.5947439837242274 0.26845170928333767 -0.25730906240295687
P 2.1212704224847387 3.8376620523765106 5.930061964714622 -0.14178116983626549 -1.2303836772215517 -1.6896654913490061
P 6.990608223525314 4.599793779499958 5.872006887876873 0.6095458246237502 -0.4127160505527731 -0.13497417421676108
P 2.797154597995884 8.662069798641154 10.243484282563033 0.4841196991067404 2.023924586045456 0.033023506113872156
