# total energy = -340879.4149922376 ev
CRYSTAL
PRIMVEC
9.14979483275447 0.00000000000000 0.00000000000000

0.00000000000000 9.14979483275447 0.00000000000000

0.00000000000000 0.00000000000000 13.39164961317229

PRIMCOORD
 96 1
Ni 2.52614849534061 3.4093781694127507 7.74412264705321 -1.6959724074036404 -0.6440387161942973 0.5774741409001861
Ni 8.958664554132886 4.99312526891364 9.225078208924051 1.2161431081421379 -1.978330185245109 2.3054835221347134
Ni 4.387198420202573 7.065681846068688 9.593135102121229 1.458404532183353 -0.926796814797978 0.8494292353510918
Ni 5.048362578997277 4.895506110178784 4.024297436270281 0.1116810080167754 0.4484651831279244 -0.2625703108018962
Ni 4.599135112842508 6.02489270874655 -0.09243122518881966 -0.8796109011407948 1.4445802247057509 1.988491699159143
Ni -0.059409616427539697 4.080387507211927 4.407794607878284 0.012424341806281828 1.1321968470364694 0.2668116025767534
Ni 3.705685118186729 2.539278450611443 11.542382642204197 -0.34721051265079556 -1.26937728487593 0.23116300013520835
Ni 9.253095795011031 4.41705420002747 11.93194612764116 -1.0940833279941995 -0.5643224340095765 0.529676818911249
Ni 5.509420729587717 4.818739333368825 8.9863994115663 -0.335732336807867 1.8868950719615634 0.21336685249405188
Ni 7.3022406360144165 3.384499877857771 8.251573001274107 0.3707037106767293 -0.17766837065117788 0.06931694122826772
Ni 7.482262845041344 5.647298984623386 3.478414284753491 0.44058860859332505 -0.4283707263708945 0.9544163762874595
Ni 4.085410744454914 4.988285027562928 11.328384500837766 1.0199471110004175 -0.5544262579417871 -0.4706221788409379
Ni 8.05786727440221 1.1904706274096355 2.8773295073520577 1.49995972991732 -0.605206830928764 -0.7638876047338458
Ni 8.581757064605757 1.9039624616007826 5.133005499010812 -1.250086297856802 0.10630894507158466 1.0094832353546164
Ni 7.5850699373222366 5.98322454407521 7.907045719905829 -1.7025834849622548 1.4791242812292074 -0.6882771171873824
Ni 2.8689364007527995 2.3354759253831943 1.4943609259595492 -1.3989840241331906 0.22518621372648315 -1.04299345129692
Ni 1.0709011113962228 4.098339404244244 2.105623019909936 -1.1609746905001102 -0.25657064157503556 -1.2316851696417948
Ni 6.540684930716867 8.051535616529446 9.26732921551229 -0.04392215530424694 0.3515384506021881 -0.6984926242678036
Ni 5.545306224063123 2.852622316956357 10.151687059260315 -0.12635660775107915 -1.8964513481914307 0.391229598544223
Ni 3.049772941500358 0.1384638418909531 12.890815323826837 0.2115272281821518 1.3477627640643692 1.0401215290657635
Ni 7.502611988262482 0.004346152441564971 12.368286108082364 -0.9382428518513904 0.04411344537944661 0.4355996400191659
Ni 5.36776360937654 3.614251220610816 6.935173750594452 -1.0184373592241105 1.1233118858420137 -0.2053784349719366
Ni 1.2181213067326024 0.519858390696699 1.7989804631401847 0.46248669421799704 0.07079918220074903 0.13680377122633217
Ni 4.437019051874827 8.887039961895894 7.859840099534203 -0.06526488264608114 -0.6263520975478116 -0.6881660455308148
P 8.512987208288278 8.678067802710837 6.335240932334899 0.6661424900718721 0.9646941040643836 -0.010442792599878788
P 3.5033191107128503 3.9178505556920107 9.547215027892847 1.1546243228020503 -1.1193372174649818 0.4068310525269058
P 3.9155631070385555 4.827193743591996 1.7516815148634985 -0.3997404642287115 0.5627615172803598 0.8554204199375202
P 1.8274152798615564 2.6118271721044297 12.657599868833 -0.9033318989068185 -0.8034813078660678 1.0031572931365884
P 5.916156549555901 7.010975224072653 4.244885259717585 0.5080720961572799 -0.5555261758741852 -0.16046871894343975
P 5.27782112832268 6.664234607387292 7.654707194169105 0.614631980897406 -0.305152664248797 0.2274924932621566
P 1.0973348680355515 2.44609694226429 3.4934263527763876 0.16531936216752172 -1.5828760070965773 -0.4472678203857136
P 1.4388784013802616 5.998175308474194 12.094185710836127 -0.0011878496605140833 1.571458766398571 -0.22322549045568651
Ni 9.074473504560018 6.818262249916355 5.317797495969925 -1.2103900077084446 -0.07574547046243084 1.2872729342094282
Ni 2.2037554821226277 5.534408818678062 9.978064216586295 -1.4665901533179388 0.4749974250904981 0.29794483364644814
Ni -0.11964454432924605 2.2750140825750655 0.691949557752367 1.049493457198967 -0.33331061474025175 0.13146538973255426
Ni 0.1822364593234727 8.00550299982731 3.10196154001867 -0.1314399358112575 -0.2583544729483357 -0.6527282735484953
Ni 6.175022538770125 5.191428767578983 1.5183452825807584 -0.6061087739177432 0.6676527560688115 0.6741175378575487
Ni 1.9255834262732416 2.8914448955027994 5.542295026655714 -0.9899788467731013 -0.8806570830171221 -1.1470912476497988
Ni 6.968318881583019 7.55090460423423 2.3328654889798717 0.5692520101007099 0.5239540574948589 -1.095062146967701
Ni 4.718841875775127 7.255549234100087 2.3987925041108356 -0.8702073484387078 -1.4387286510209805 0.019102782267721937
Ni 1.2683536791624797 0.8492427619791023 6.969456201053516 0.78043599601083 0.5821244951880039 1.9489519891933083
Ni 5.6191999653643405 8.430483510255455 0.4506447693404501 -0.9049095278065834 0.3758464312199334 -0.9932950556305279
Ni 1.4761821140208098 3.141197689281657 10.492156406717363 0.549733480451808 -0.2184969746317656 -0.9769472104001241
Ni 6.825408239509749 5.520711576141172 5.733366527658292 -0.1463567050220899 -0.5263793791068998 0.49627278952950654
Ni 7.46216074627478 2.6281687052847142 12.427048834030707 -0.8766245648189612 -0.3447124288192902 -0.5834049045623243
Ni 4.885221741032848 3.0125149778328786 2.4831737399984157 -1.7567442872753745 -0.24749541874664474 -0.15336373246754234
Ni 6.514937408673575 4.860480696397077 12.520844293596445 0.25085842168160666 -1.078124747782414 -1.2348375992278475
Ni 4.813139659065167 8.919540032364187 4.64857602803829 0.3370379429931679 0.8931601005801392 -0.03134868951461053
Ni -0.2736008184603208 6.014288096789131 1.6561585740746687 0.36749805925523804 -0.2924763543327092 -0.75878550762059
Ni 7.546183310213498 6.783740074838408 13.338725219557217 -0.2820793273691013 1.3998299170732538 0.37592973496235904
Ni 6.213286979845124 1.3312676669271128 6.528549558120556 -0.27340468241323884 -0.5868923488902924 0.18245576473749223
Ni 0.9159493396111642 7.783172140506076 10.862488853835 -0.8636638908932351 -0.3577471505160613 0.2718100842326093
Ni 9.347613173371801 4.223224950928286 6.921019018326872 -0.013030350821396914 0.5678939534109188 -0.4391284791080309
Ni 5.166028937731015 2.509605666678822 4.82213207721163 -0.5304970008196993 0.7345094086820447 -0.3388120041744552
Ni 3.2934045226825694 7.231988512969498 11.660444272065252 -0.4832092714773291 -0.3051722046328228 0.6644345062418299
Ni 3.3812791501537065 5.464229893990055 7.73528486043572 0.9739125373388581 1.4571441774136904 -0.09234399825106032
P 5.788269870238525 1.1906536233019118 8.744412048476192 0.24568767611394463 -0.32515276151980776 -0.2795838146407572
P 0.8240103733725681 6.019347933210574 3.605701652523662 1.4203182668345926 -1.0218103894614015 -0.7132975504911199
P 7.798507196278839 4.041436831540891 0.8418616226641329 0.9814504975871162 0.07838110831306501 0.21943362751342207
P 1.0757871017200031 6.195582127267381 8.028896279716466 0.39214979636564723 -0.7733914304592229 -2.1437194814186173
P 8.176942701506475 8.998557658649144 10.254521600925049 0.813189022072135 0.0731936505748546 0.6960012253045175
P 7.169504565551715 4.161756630712637 10.477479221177333 1.0977638621695804 1.4482851843611637 0.6857003575991416
P 0.5155085783372886 2.6927479556690628 8.468356340120984 -0.34219917547913326 -0.17515537442133705 -0.2573211465878149
P 3.1759211598411077 8.513215953153624 1.6162645545789478 -0.5633204751076234 0.7579409002321076 -0.22628998831362318
Ni 2.2673831538671387 6.409604973079268 1.4119889849691645 0.6724272946393194 0.37337251575814406 1.722434458249911
Ni 6.3083350462934975 1.5870593251510925 1.2371794139337302 1.2777909628609219 -0.18879096292690067 1.3483155512440457
Ni 0.9847191959286428 0.3837131067608882 4.776546885466113 0.523080396640654 -1.3714223124648381 -1.6706519263609807
Ni 2.3561270118265885 7.6154015064670535 8.881288401001648 0.07358831491011197 2.035254152125663 -0.597698181256545
Ni 9.126590734680342 7.997295634058713 8.533627314978135 -1.0764735853322365 -0.1319032486009212 -0.9416804167780298
Ni 2.6841196993482295 7.8276309925346315 3.738935471813355 -0.9530606335905135 -0.34314071345679614 0.2466212436718075
Ni 3.2958841170229145 1.5472028198132883 9.102665851724122 0.9385547266648545 0.38963962834928373 0.5833108021866212
Ni 2.46810219831053 4.630033969253382 -0.042693856647550134 -0.5806075443228452 -1.2747526902552304 -0.4827505866733557
Ni 2.1298891902052506 5.9789698895797825 5.710266041196779 -1.4248788896220814 -1.1695290078280245 0.05975423724049709
Ni 3.0877171397638734 1.1398265142221364 3.6637808888143524 -0.3508229125924022 0.7598723129268655 -0.2594063112516178
Ni 0.9495016364600458 7.7818271206978435 0.009717996859339276 -0.6960888999223173 0.5349324108832336 -0.22943341903861134
Ni 1.0775896112589258 0.8387122633580557 9.567275037604187 -0.40777721849025905 -0.5344436441722732 -1.572864388496846
Ni 2.687001884651583 4.4313553290088725 3.6405998841602365 0.5644543316017504 0.37271559890043554 0.22111667164279983
Ni 3.777218212477582 1.8535196438947876 6.702132141698278 -0.1061726766040365 -1.9959265581706338 -0.673040502743286
Ni 4.543861203580415 3.5716040279157966 0.06909467402626922 1.5384663706329504 -1.2408313549174372 0.11590378784887137
Ni 8.132730893932493 1.1078662816360596 7.7716827434094995 0.33560429587043494 -0.20878283266779527 1.3738265510309566
Ni 7.348858839571834 8.654955421516325 4.41581623281622 0.736399426615906 1.2220445612282371 -0.5481221701006301
Ni 0.323349166755127 1.0884504174655314 11.70428825789576 1.141231446434912 0.2940393279444549 2.2503271886775438
Ni 6.413438737022458 7.937419378105869 6.316840695366505 -0.11477867310549264 -0.5940503000913124 1.892826864064966
Ni 4.642102548349012 0.1517978375816744 10.703851544779495 2.0660127734647578 0.4479234516918415 0.5396329016826965
Ni 7.00153263603119 3.337003294017426 2.9427349841900345 1.969362691639176 0.36446055798049487 0.3496985691799719
Ni 4.255093685568225 6.778433193962392 5.559704340867432 -0.013706036732182847 0.00889858804121048 1.349222122218715
Ni 8.150060604931069 2.1931691697544364 10.11802038997876 -0.10711112925790585 -0.19535396085639903 0.11693737131970829
Ni 7.8937016594410325 6.457568196444917 11.042432374628248 -0.2969292478977403 0.12468410514466269 -0.9860558575696113
P 5.7647274486971645 6.842463456669911 11.729183019081042 -0.022314604336800277 1.0839758072465524 -0.8161661024225879
P 3.6288817421983164 4.142642709764365 5.659364818780631 0.37329641110456996 1.0785165839041941 0.36975548783084705
P 7.335134147651103 3.3630802086668163 6.073046247840167 0.2073054767913204 0.3857541772519485 -0.919890574596448
P 5.579581354686496 1.4525847937117655 12.781525602062052 -1.6576141193404161 -0.4913614682708182 -2.989967233717935
P 2.61007956133319 -0.054605974255283685 10.79449947499808 -0.8066959581486235 0.9647493827823513 -1.0045161211573281
P 5.926340270961084 1.188768765611465 3.416504029457994 0.6207365511332471 -0.3135545151592471 -0.7448493571554721
P 8.25940065056623 8.735674909599455 1.095310018487513 0.872121534742285 0.5902453245229254 -0.1924920659275717
P 2.9142919326535104 9.092315604056969 5.812765700378647 0.6356373795044794 -0.23725728595840428 -0.3419238103305595
