# total energy = -340871.68839203514 ev
CRYSTAL
PRIMVEC
9.23985879202734 0.00000000000000 0.00000000000000

0.00000000000000 9.23985879202734 0.00000000000000

0.00000000000000 0.00000000000000 13.52346732137149

PRIMCOORD
 96 1
Ni 7.832905659177634 5.256814493841922 1.784556797229612 -0.12818774742254696 0.05406027217951335 2.596986971031192
Ni 4.6483328201020715 4.665823873164749 10.176206893205162 3.3394166630015776 -0.8204814419684902 1.7664792551749513
Ni 1.3444179623484647 1.6924187713815382 12.545112700471982 -0.6235053721276359 -1.7244013521682946 1.8062061414509283
Ni 4.283958980943766 2.3103805404422064 9.969852198459217 -0.05171156944167868 0.22241430740830084 0.9171112120790978
Ni 4.594353563899134 7.862482447795505 5.3993661143097915 -0.04121426945478063 0.7880261496532622 0.7680898157406515
Ni 0.7604884419092718 8.161650602081485 4.837384954908678 -0.7079504272465936 -0.06953419944539638 -0.09907283233446162
Ni 3.602565579936306 0.2560254047031734 1.1145875578738649 0.029415219937323538 1.2245904675785426 -0.44360425549119736
Ni 1.9803420172801547 1.2360066968522205 10.38372396221169 0.70146481952225 0.2905197448269706 1.0422218632382179
Ni 8.818613815926916 0.6151389921400934 3.101174795843435 -1.0077901639229094 0.3618884263779445 1.4984286379847742
Ni 5.050968915326169 1.3160423553989238 3.031122804932349 -0.4662693011888809 -0.013157363317564437 -1.036821518158253
Ni 8.138846630101195 5.090358434188395 7.632794337149307 -0.39010834045558623 0.44692457811368197 0.2844902508034391
Ni 1.7354672744026751 4.1425891384403535 7.080915115578845 -1.0151694871061163 0.3760392639570298 -0.03053159292995387
Ni 5.818311484632109 6.804047360958355 0.6463595516717784 -0.6836619870128743 0.7356520069269201 -1.2302651493658165
Ni 6.9287762174259075 8.766926044752793 12.758242059827307 -0.6970327518928253 -0.6379742551677722 -1.4797678283504774
Ni 6.134046706082051 3.4539332082689924 8.388999180432135 0.6203215750830154 0.30050462395382443 -0.2931301858666242
Ni 1.8803113038852564 6.664590169265283 3.412228180744587 2.17348874226125 -0.5958104773155287 -0.8201554260876391
Ni 8.94856319272221 5.492985289553506 4.1276196428952705 -0.9988149570074928 0.375383889761218 -0.11562096650112991
Ni 6.488654014290939 9.00159998330846 6.3666047169296585 0.260658438491164 -0.4164269237454571 0.08601291382670993
Ni 6.565538880923022 6.406345350433395 11.75919616663007 -0.41659841632631484 0.1289742478795843 -0.4727744492972503
Ni 9.15763348202448 7.4337899502276406 2.7499021527430116 -1.393514002157555 0.6402627940916328 -0.8431061213465415
Ni 8.768478341062636 3.318116521016858 0.7118729238483762 -0.08372334646158484 0.031001333477520803 -0.9702142625516644
Ni 5.862367132282846 0.999318469037357 8.57566373567646 0.1804832143921537 -0.3051742615153519 -0.6725913310210094
Ni 8.467517654133148 0.5469580726739052 0.6972776425922722 1.08120724336248 0.7375165709394846 -0.12490779111969456
Ni 1.3801577369107654 7.020075264077948 0.587120967733355 0.4527702382611815 0.12582516072764136 0.41665240949270177
P 4.669501337041634 7.7613891506170845 11.93865270787852 0.6234092128694038 -0.42344115027976104 -0.37838076760601286
P 3.5200905986169944 3.5301805246309637 5.765230342722724 -0.24282372430258825 0.3710155854901933 -0.6206272792488924
P 1.3030603535219765 0.0388332793511988 0.7995111383697071 1.4428989803485859 0.2766059629593559 -0.976585199075015
P 6.756748522803129 1.9257898898200143 6.704029583366038 -0.1702275981024165 1.0196408926139087 0.3481075705437682
P 2.872773797554147 9.093287104037959 4.6786737450581795 1.46260134387352 -0.3492920777701726 1.140755792350074
P 3.4224992079947043 6.768547822729721 1.6366774740697514 1.0059780504148352 -0.1377558507269563 0.9333032484579281
P 0.3339368196687305 7.4541084001403854 11.742007256956274 0.23627872409521888 -0.2865023961374614 -0.47219595108596096
P 6.522194702414296 5.479744571624918 9.459219707407398 0.16239421810092677 0.5640241860428673 -0.7639058595662908
Ni 7.606270397940791 2.000771345500746 9.909997315926349 0.7923286336833579 0.1190598169793498 0.8677758561790797
Ni 3.4296231392737977 6.088540400570332 12.955711706171208 0.7280230296267527 0.22239836656870085 0.31289965518406754
Ni 1.4503067463412167 8.078787546684714 6.980435345037171 2.1679621560160665 -1.1659621164123726 0.8756516593827307
Ni 1.7178191437372166 8.480933929382491 9.251012420934527 -1.263218464363386 -0.23126044494502107 -0.7190205690178262
Ni 4.270930779771883 8.589141917981019 7.772004824607422 -0.5005606182715832 -0.5490446819148995 -0.7805534954253008
Ni 8.369224034227834 3.0868243708504908 3.1589331543721166 -0.896547014774501 0.7364889010059187 -0.37434439275311016
Ni 5.761708108476822 3.828554051044048 5.72916255316638 -0.09682748794371066 0.5920234994692707 2.987200726716391
Ni 2.020646282182108 3.789127572745874 -0.19013966620939354 1.2572450203887702 -0.49565392499858507 1.3523501263247355
Ni 1.2131010864230727 5.489390984407504 12.04462187864446 -1.2838559381080792 1.0724312969420629 -1.0200633248633075
Ni 4.498785702395031 5.269075786717871 7.71570636379871 1.0574147689285724 -0.11989439706550319 -0.6567631057395013
Ni 6.499436929728943 7.349808871893424 8.232560051906578 -0.5014206522790332 -0.32767887037577115 -0.5767848281426453
Ni 2.780439886695546 2.0856024908617803 4.055160668718031 -0.4293361756079574 -0.3230848232471855 0.6368226580618322
Ni 2.9795680877276403 4.441821971739244 2.306183796490242 0.7150345877868847 -0.43054536542471017 -0.27264877808382076
Ni 8.306180476358502 5.03669333319102 10.57541962067452 1.8254763025344496 -0.09258825305138248 0.14163538828702057
Ni 4.725864476863256 3.4617131695361736 3.7844346483663003 -0.35920342334661365 1.0607608025826698 -1.1229714717834596
Ni 1.1045789426189827 2.232109694962049 2.199104918659945 1.4826734320330466 0.2397833948143677 -0.7360243026646742
Ni 1.8454677956447094 4.553485667598965 4.505870826266378 0.6099114354932851 -1.166983101477719 1.1362316792274756
Ni 6.6084025867644165 7.1973604384644165 2.9735667993154853 0.5225301805641388 -0.463126384684525 1.5131134936904587
Ni 6.07654706360501 -0.22523819455798585 1.3976912933247834 -0.2795596462710411 1.3287024049988085 0.7301555025887232
Ni 4.503655108081259 8.240198643331256 3.128085885143513 -1.5933895050333913 -0.3533323092778173 -1.1029703460711844
Ni 2.0531428662399187 0.8746773912301817 6.4389287891656855 0.8219996783852295 2.0846720404371584 -0.5225787744138871
Ni 4.243451439144096 5.950561586315204 4.092552530067234 0.5369756665655074 -0.7823704940293816 -0.6625614575888331
Ni 4.667718044257114 6.889294299973811 9.696285845454835 1.0096822387392999 0.5686508861816013 0.014707224303187574
Ni 5.371009911064124 4.934546692088065 1.7826496903346638 -0.6720233743326812 -1.264389087632719 0.7340252699567745
P 3.9895401141771827 2.701762487419954 1.1401191362271608 -0.42340849726961266 -0.44914189747997485 0.5910737339614918
P 5.670640058299461 1.4368812312328862 11.422420862280488 1.0931402473546399 -0.2883265938303937 -0.8947726964828977
P 9.256028740378651 3.718045337557721 8.852110152727137 0.1851022012214038 -0.6232230650005267 -0.5324420403612121
P 1.0192118854366934 4.697350272028909 1.6922321262299977 -2.351661820462988 0.1715116070211627 -0.14384293746130067
P 0.5962009771600284 2.3091146797609663 4.584076992733625 0.029348885475762358 -0.20260395755059302 0.041055118169097043
P 2.886910781804489 4.535800577497558 11.352639599237724 0.6615628411209897 -1.129160888423623 1.3138311443139308
P 7.704711855589899 8.557763356860653 4.630070238813967 0.43697929397551194 -0.34107097541196096 -0.5030425041531723
P 7.9885972831111305 9.293727365046228 8.44894830952667 -0.26131124158381447 0.0694678649838352 1.136265103568572
Ni 3.7370517274942907 1.6409619966820934 12.351591245873292 -0.5406975955017849 -1.1882247844653149 0.23838625735652494
Ni 3.8438275379498092 2.6975029124268772 7.745999241488085 -0.3833982754252622 0.25722421599863443 -0.7430007339825075
Ni 8.8739975306959 0.6156518043138802 6.307751435110999 -0.6036214887195153 1.007705317518587 -0.5518235302116173
Ni 8.652471911478953 5.900934303695215 13.380051306170225 -0.4329143798775189 1.0980425697522636 -1.8829818529500861
Ni 4.679803779812309 1.37248865395143 5.7757379103629125 -0.583822194605401 -0.05024372664690056 -0.40742677712937575
Ni 2.838235204660176 4.653257664942223 9.281534447126784 -3.5232145435892614 -1.4347897209778901 -2.4474621526937654
Ni 8.643259772068763 7.565984612756812 7.227495314565112 -1.8491309658389121 -0.5205841125813616 -0.4422932499892577
Ni 4.700833698867064 3.6035542448479307 12.804844212614903 0.48662523913741357 1.4756985433771102 0.46601244798306835
Ni 8.448428105465695 7.246941521789471 9.726862386815114 -0.6542421390898603 0.13580772586164996 0.10821593228631039
Ni 2.5306680185548767 6.962963695678367 10.575540662827251 0.21545484537133214 -1.3779750259816914 1.9863527984392695
Ni 0.5343669168321142 1.5009042141548565 8.46378382711644 -0.10655988474012615 0.2558592173303077 0.13497854509213525
Ni 6.672305451519554 6.329423524365362 5.813819989178456 0.03835494562911459 1.015728702043696 0.6501993364790544
Ni 6.875277433890303 1.9990804513060971 13.283710068468896 -2.0819978360391045 0.6898426619022894 -0.7720223180258382
Ni 6.738444362149582 2.075475605411863 4.549916310072229 0.17215412570116803 -1.8712936179788804 -0.910338926352271
Ni 6.512686887516518 3.9040621786870475 11.152114331526773 -0.019719847026430554 -2.207379481471424 1.6766179141364286
Ni 1.002312183349194 3.2782834889232495 10.702431646297798 -0.3988485485420615 0.899045869936955 0.6978236232252369
Ni 2.9700325532529 6.367842858033937 6.1989816630860535 -1.1292501057033197 -0.5758111513754663 -1.0426160133528433
Ni 9.067470938027858 0.029608204138427106 10.578556552800658 -0.2494440578325833 1.1806418299117345 1.1037259932902863
Ni 3.9930974598872355 -0.13095005352360206 10.131687404633269 0.4598963077830015 0.2626248181889154 1.4743654263879833
Ni 2.68471494758866 8.543903568379926 12.527626267338798 -0.655841108145864 0.36795263029415337 -0.18982068974299565
Ni 6.420778010171325 8.577407297067337 10.335702567083668 0.03935741875169996 1.0832543556994956 0.7121238418979928
Ni 1.8685859228305617 9.214920607744817 2.8624584189808915 0.03946797618763525 -0.752517158113375 -0.5943125526137636
Ni 0.8841454747343155 5.776842997497775 9.18942598882747 -0.08780008763411976 0.32323497567180465 -0.9767731467161047
Ni 8.258096250189368 3.663705726854285 5.533465111776215 0.8326980386393401 -0.11022782051001662 1.0355202828483263
P 6.69157979736675 4.854843668464899 -0.11520718178129397 -0.7914382606586047 -0.9310285934911384 -0.28478515633603857
P 0.39054666372530944 5.915995273844271 6.165038117110855 0.9612971625676929 -0.5696806129976963 -0.7959939983500871
P 6.443175428356181 5.125091064121096 4.156978370841045 0.5025673642889666 -0.7521880569087305 -2.7382678041922714
P 6.977377875698323 1.7184289744303687 1.919872684124643 0.40449777640803886 0.5677247748229061 1.507375819875733
P 2.917319157731203 6.729204503162431 8.304504365938232 -0.4109206492152471 0.13071385627851037 0.5083587741597633
P 8.639351311717197 2.354020394438521 12.185753332786003 0.21016891438204452 0.1827403858574466 -1.6073606225015027
P 7.831630558637407 7.701219188892757 1.1006409147186589 -0.27619767177734367 -0.6498653501784034 -0.7196396906590637
P 2.8423931412043943 0.8777117609215622 8.49264267869101 0.7409693053747755 1.3005398265216634 -0.7171344077387068
