# total energy = -340858.54300406226 ev
CRYSTAL
PRIMVEC
9.38746780289152 0.00000000000000 0.00000000000000
0.00000000000000 9.38746780289152 0.00000000000000
0.00000000000000 0.00000000000000 13.73950802931527
PRIMCOORD
 96 1
Ni 0.27353672692518344 4.8567753774500515 6.8233832048970635 0.0526191688576126 2.014633133441201 -0.03135177483840407
Ni 4.212166134428908 7.527688293627145 9.632302222150047 1.582041941231056 1.1820716203797255 -0.9515380262983999
Ni 5.691856339650697 6.910837792528811 4.031487421530728 -1.0893584117147044 0.5741052244279532 2.5146959861407594
Ni 1.5914198455211712 3.434846260848837 5.6394085577356705 1.5285804789778061 -0.9418290265407522 -1.2097724287291038
Ni 2.656822327192943 8.646167517548346 12.810236022584048 -0.3648693633831393 -1.7328245432349834 0.3565539015389085
Ni 9.057413701570805 0.2885670014238677 9.218179718031156 1.4920790416176626 0.6990328130419896 -1.3390413250309714
Ni 2.3982820798828044 6.167547489280219 8.165238160954695 -1.2970678088126628 0.490235067975859 0.14264506049845754
Ni 8.791701428954942 2.9025299061877354 2.881285128086447 2.913865922577982 1.6912873432231454 0.32308276636465644
Ni 3.5284674759980335 2.5479558645352443 0.08560056276541268 0.33650546752846566 0.08104091453341528 -0.6459454462987069
Ni 5.069983543344821 0.8208739686172922 1.0219957698770892 -0.4657507096812495 -1.2280632566184915 -0.0354943362518679
Ni 2.821854008966017 6.433597710732478 0.43657544931029274 0.32449404488988626 -0.07625480599868158 -0.3775027358764337
Ni 6.866848118991347 2.3638206860381534 3.7186115725555875 -2.000041351669956 -1.3838983334446617 -0.5588027897429279
Ni 2.7383055466349386 1.7662708184850668 7.383872288805558 1.1539023570343612 -1.1560633692414217 -0.6370851676945996
Ni 7.383355978083287 3.5027645894966297 7.672993150822408 1.827522129319885 -0.3470644739912345 0.7602453799955681
Ni 2.2252241132453396 8.427486457997507 7.400717160806332 1.2130377297439365 0.959030220910387 1.0624723859571379
Ni 3.0393240851864403 1.6114714764806302 11.477572336129603 2.9121990763985197 0.8077601377470799 0.4187925957641562
Ni 5.267918299328056 1.2062144968365107 7.720133258512491 -1.2189975468717975 0.7212661705188934 -2.0279802441720687
Ni 4.8589532699512645 6.320112613977376 11.686413452060732 0.5489644634962675 0.3230624546496823 1.7964575467045965
Ni 7.691255530442506 1.9437408949310262 1.1318676303230641 -1.6855352712307168 0.18494382126666856 -1.059627460309175
Ni 3.8398122289949495 1.3863318391675674 3.1719849621666767 1.4564620637450014 -0.7496894588565928 -1.1411491711337507
Ni 7.739356914822781 6.08164277256205 0.700884295508347 -1.5824700299074101 0.5772694810885477 0.8371157080910616
Ni -0.024754752265961143 7.581769494918083 13.093462493646104 0.37223377416801057 0.6692861779071764 -1.3572213383741079
Ni 5.177873709364044 2.8432574352710573 1.8992255232036133 0.13208888224916607 1.642137363861056 -0.020541828707093653
Ni 4.014766464103299 4.263140083918543 3.8558554112560524 1.5166361621317364 -0.5028802675436952 4.07984963625691
P 7.696202725908627 9.336362303612153 11.288228051818185 1.961322594943519 -0.614108247183452 -0.2090160317245239
P 7.770466982706511 3.3082374842803817 12.70462043998312 0.3713963658683797 -0.6289746227723232 0.003277128089375001
P 8.745205301547546 3.30153483235854 5.5986162556892145 -0.9033367840028249 -0.9911540980281254 -0.38430613195151236
P 9.120788495862616 3.8294766270818577 9.214043599772383 -1.0174572546990281 0.07355771878249268 1.29279900623398
P 6.939629155896162 3.996554776808659 1.9432058092734001 0.7521885711293627 0.017703587927350155 -1.4289882838047647
P 2.2932738664406194 3.040206507148139 3.6141910145900233 -0.38655970387237937 -1.1905007249836852 -0.9175400720864004
P 1.5019009537471077 6.455761521919407 11.77187320281098 2.4434610019541725 4.165937112075296 5.0436816494313135
P 7.686392822185484 0.6990068019728172 6.92622291330571 -0.3925195210002401 -0.28752363831312416 -0.27656611086035593
Ni 6.458577762222702 4.288054423135025 11.19610507651034 -0.6812626335427622 -0.6345212636221653 -0.05514142105883407
Ni 5.344304123821088 4.329744167091465 13.415804665027386 -0.3353150467647903 1.2502351647298404 0.4384232255108901
Ni 1.5586388083908198 3.0492466385217156 10.976451475308098 -2.460703076864072 1.6630003233529942 -1.3297845823193937
Ni 4.3071673073267185 8.026528938549749 2.2530870560593708 0.4453050402323879 0.8449125784276611 -1.3168236512833513
Ni 9.132560380330387 5.236338858060444 12.922116801113042 -0.10101247255933571 -1.417581841740036 -1.9020476113322853
Ni 6.8964937419173635 7.266406905755133 12.130721358497103 1.2844997423396651 -0.9545364468050916 -1.0684432588285924
Ni 6.294512989620426 4.76301335028569 3.768074139749121 -0.26669358894165035 -1.2048515943887184 2.7255840380770158
Ni 1.2587843158313468 4.995484599854996 3.600904931585846 0.35748155555950045 0.5529355323288735 -0.28175871080488896
Ni 4.239277141081959 2.085256970171589 5.250731723503816 -0.9474345456529878 -0.2768499606493619 1.16107830595751
Ni 6.755437652593005 8.739253647039916 0.06961652155067927 0.013802967321363324 0.4817103183342994 0.7374450942716009
Ni 7.14641629389942 7.867852572394444 2.7436282408081656 0.5945411236848019 0.7806681666262942 -0.7431593710475589
Ni 7.598695099140885 5.893743219526223 6.4420013717975095 -1.710377269975061 0.19299445948528698 -1.2045528322013772
Ni 1.0499413224066834 7.4139497352447465 1.682842515740262 1.15271630714606 -0.5278734471539231 0.07212047211533386
Ni 1.2353719714432894 0.4048965008852975 11.379884469982448 -2.7020476455179727 -0.7928397689918216 -1.0618391232485132
Ni 2.5737995630518125 9.64646791087562 1.4558385273464183 0.007191889762748905 -0.07095396261105845 -0.4121136410820837
Ni 5.293480373814295 5.790424750266014 1.9581412703485401 1.0003437349471933 -0.5378482989784478 -2.037267583011266
Ni 8.082149684539822 1.9509880199781715 10.48162303407092 -0.0913312407158298 2.5147810896553975 1.295970461983426
Ni 7.975329689835851 8.281877446849489 5.343802833047102 -0.45932423732961547 0.2873601161520664 1.1823459570870347
Ni 0.5307974623908586 0.677841817346789 6.725502895662517 -0.9172479947672785 -0.5355633595990131 -0.8260432523269838
Ni 1.954236083794638 4.353419360574496 12.98695416286903 1.0674636685241423 0.781577565814441 -0.765977654493655
Ni 4.623468643257433 3.6581928918354687 7.2242055448102604 -0.708780893567689 0.006655300532988537 -0.6074151514339926
Ni 1.9243933240473912 7.92134236322169 9.87551836722319 -0.08759825603595882 -0.5655005134780777 0.32711502745250115
Ni 6.717840844544019 8.243510866450936 7.6465993466999285 -0.2528731381187903 -1.2261313297031013 -0.70967075237181
Ni 5.881126462967463 2.1291339940969216 12.937999457676856 0.8787884052394994 -0.4296992153743309 -0.7338951721368135
P 0.216504105796393 7.735151329303195 8.131247079240696 1.3744891243156199 1.0883667372253967 0.05131022023820195
P 2.5978314803065947 4.1341750529629975 7.86115555295321 -1.2198573237689312 0.3027628238603818 -1.6588366788936078
P 4.234780544064365 0.644241254288179 12.82537706920133 1.9958998186977566 -1.350385546399197 0.006672012703536897
P 3.5170992526404006 6.191926742839075 3.0858521299839414 -1.473060591533631 1.337087029518078 0.7677224050989037
P 9.017094527895301 6.411696748640521 4.922727970366144 1.0501187494877913 -0.2640147565579066 -0.8458512881918464
P 6.099873234792045 0.4398460430491858 2.805978862376344 0.15442534096283728 -0.07434499057047841 1.1775423650508041
P 0.6768796019098301 5.220765049183224 1.17583571268487 0.24185236152825443 0.04933612723096665 0.38853122577645344
P 7.583750250598067 5.896334160605254 10.439002992067625 -0.541121570413081 0.8382156260234597 1.2160266371689314
Ni 1.429279503792813 7.899347526452957 5.4465054844276555 -1.760742352691174 -0.5185182311912683 -0.6645460921190296
Ni 8.30674484872758 5.3178408524377945 2.955368206758152 1.9817384395957094 1.6736963696142595 -0.15891654396497146
Ni 1.5032902989633998 3.032452458846401 1.0903712682007831 -1.8564928055206222 -0.5898630014828422 1.6730677348913252
Ni 4.362168480450065 6.978155323245234 7.2234367112074604 0.34579409191924315 2.107238355773448 0.7207684049468684
Ni 8.80484388370365 0.7957493501248317 12.937752567276934 -0.3665014996699237 0.5915123641608071 0.9804259129773438
Ni 1.8530955070356447 0.9800516255465845 4.071291223230729 -1.6789954132296696 -0.7965472997503958 0.660265976686437
Ni 2.8028631618541326 5.802206022201465 5.623648876998433 -0.6459261630249973 -0.28227395987841064 -0.06637611343238892
Ni 8.724881434025434 0.9252184880946673 4.131690190268723 -0.49178081519642397 0.8580347176319157 1.3634377515974647
Ni 6.268650516168502 3.057601484754823 5.737852115030875 0.9484773850952052 0.45857218965493923 -0.2662565014042318
Ni 8.95125082960427 7.7143580883972005 10.306224771741418 -0.6627499194505554 -1.4100374537338747 2.0974745915184654
Ni 5.865383679672044 9.526777697985592 5.06310440703064 0.06708110991921351 0.3161266467617975 -0.053328021999179125
Ni 0.3266435090711809 0.88280497038028 1.9076761216070333 0.03970451767847356 -1.086148132307523 -0.4320911126452752
Ni 5.719830993330092 9.225702834628024 10.970227584237815 -3.2464612564187636 -0.4582669997096946 1.386375848450877
Ni 8.47199244225724 6.03787839824885 8.574221965266842 -0.17186101994078143 -0.9620479246907884 -0.32607193089996744
Ni 0.08996385774198408 8.312612016026112 3.6055629930474957 0.32559319149133603 -0.8785140685321903 -1.216833192230627
Ni 3.504388621404863 8.084581038668334 4.501447522143045 0.5247971222214446 0.4782272448817055 0.42780791188888906
Ni 0.8665017552645066 5.391767160399283 10.409422142668582 -2.314664674413349 -2.898982834818562 -4.26700152091849
Ni 0.7467430138604314 2.8287819601121225 7.716327579115972 -0.3877238993838097 -1.3786648529598644 0.5833853641782986
Ni 5.966007945708767 5.344651460125162 8.110074584640525 -0.10125389914618044 1.202865160086309 0.8638168715313318
Ni 3.589504790838109 0.37745974910383195 9.614481992257565 0.6160789977565777 -0.045693388272056795 -1.0613614122811463
Ni 6.725716929925568 0.6065411840947394 9.119639469818871 0.9908008284537645 0.23993766100404482 0.9210655687411556
Ni 3.45971366272693 5.5996620195885045 10.19978496947839 -2.1185103291428415 -2.6406414744963493 -0.3036845643437028
Ni 3.2778784138108636 4.325388382089036 1.9019047064788146 -1.5234848096224538 0.311674781638031 -3.2335831149045147
Ni 3.5441727094227407 3.0380192271792468 9.353623040431048 0.8959764869830118 -0.6015116414653641 1.342681235776404
P 1.739065937155239 1.4291856291160363 9.368873920420157 -0.9936737791261856 -0.4283031063577527 0.1154330188600399
P 5.776803534665746 3.2350809486684606 9.139561553724379 0.47361622847225526 -0.21652416717611098 0.268446309966699
P 8.595127855784966 8.247359728198772 1.2109589230007949 -0.48433361488975946 1.350110181250623 0.40841485207425793
P 3.7340811805415854 3.7848861556130236 11.50690629512872 0.30196501054943475 0.7033900615694209 1.4404723731849642
P 1.5661393950652618 1.3022389037111854 -0.30514620808936405 -0.1900081231634534 -0.38397445964370647 0.35133636189371104
P 4.922224802098622 5.7182445112925695 5.742922286323574 1.8941615237159897 -1.9532336472877971 -0.5119727167632667
P 3.9735836434014513 9.411405720227283 6.311600058287283 -0.5021523882387352 -0.0015285208293844643 -0.02858655338844109
P 4.9377798360404865 7.0130954779414445 0.1686439793354337 0.9410168150521019 0.08725475665361103 -1.0235299432556695
