# total energy = -340865.841501304 ev
CRYSTAL
PRIMVEC
9.32027161091278 0.00000000000000 0.00000000000000
0.00000000000000 9.32027161091278 0.00000000000000
0.00000000000000 0.00000000000000 13.64115961006626
PRIMCOORD
 96 1
Ni 3.0372435393830974 5.287874788050875 12.510894287949126 1.134019502067505 -0.52958245942523 -0.6066024257247101
Ni 7.600989138177876 4.863159327073051 0.8194494719595218 0.4971163684767245 2.408754965931555 -1.0996911610992801
Ni 4.979476317856331 0.2685207557101428 4.942437558130949 -1.0407661046282979 -0.7860988507235623 0.394436792627611
Ni 4.561657857934566 2.784598934482268 4.804389421858064 -0.060428894710018506 -0.726484224384723 0.07668803688135825
Ni 2.3475620743205106 0.995898991679945 4.543925109003134 -0.0909427470281595 -2.0832551054849735 -0.28719762243227315
Ni 1.8668597412565362 4.632687648540285 1.3590717666128114 0.6651757552832287 0.16928528879380522 -0.647916968202781
Ni 2.895072114911291 4.016421963637946 8.1259841984293 -2.262287189252897 -0.02696598706588259 -1.7391833955734757
Ni 3.3436195106193107 0.4081952793942211 9.392075070534727 -2.954891987281356 1.6163453424986163 -2.8554049502276113
Ni 3.4815408911971124 5.902062052364698 6.521565599654707 1.55630879813101 -0.406603509897132 -0.9118221957660168
Ni 5.345334263065212 5.118702536471765 1.1618138083008218 -0.6263004183742698 -1.5488695682441453 1.1056316949534313
Ni 4.590196529871938 6.8145818934398985 0.017550071606163013 -1.086218323423826 0.9216450953937095 -1.0039288811952904
Ni 5.033804181580347 7.309684046276323 2.5786703274102076 -0.33455168623620446 -0.9315343294829634 0.5936129554435776
Ni 8.840920803710272 1.2826278301780856 12.715306486816024 -0.5687030795757755 -0.9827411913740818 -0.1104183392542679
Ni 5.998489583345773 7.392392137318856 5.013167235988012 1.2234661241661122 -0.26662416915629567 0.17565005466956846
Ni 8.467895569566107 2.7873018132745075 0.9194643755169167 0.8693192894067997 -1.854847299497399 1.045387405450393
Ni 3.896460746620992 6.8953700085127725 8.71721936166116 0.42877516089816475 -0.5106007761164045 -0.4362519288911842
Ni 7.985403744336237 3.645652235244546 12.07755571159689 -0.4808507985474815 -0.24455381961981754 0.2730465277428717
Ni 8.114675912778871 0.6039144608489736 2.248567740513978 1.363954286222567 0.1907977089442843 -1.5675072379499908
Ni 0.4709076595371996 0.9320364900095102 6.239371073337341 -0.7857818337037757 -1.4235506577289614 1.230855731761964
Ni 5.709430676923287 0.2961413808853229 1.919229415896934 -1.2585938211071808 0.9377687404284495 -1.33458380348025
Ni 4.735182676396351 1.7985235091713598 11.639783481998208 0.063481051272781 -1.9051915562779058 0.701186883270515
Ni 0.6330542903108264 3.5352536169891025 6.981409164659949 -0.21944082660227368 0.6060570947442014 1.6366938242479812
Ni 0.5342705946446551 6.051633772564223 4.280868828589164 0.0855035782904592 -0.223222405131893 -0.3651701824530098
Ni 6.10980158822756 2.5773906541061575 0.7125673922154986 -0.8072723994773838 -0.26561449694485867 -0.15680361138702673
P 0.4845357608131059 3.9759160628411405 10.888810046199323 0.7960827014091516 0.710896397248795 -0.127466038765174
P 6.393100566741065 5.316087250478838 6.472989275595142 -1.0742266982795887 -0.25465234150640015 -1.4704948876889836
P 1.6210096144230959 1.564463526035103 8.484146395297657 -0.8170595607711346 0.556605524981293 -0.3904567249339404
P 6.485939793118648 3.2230711164854218 10.258943288809 1.146070005474136 -2.0743251499851953 -1.0086964777872627
P 2.1336059172354984 8.94611871035858 13.319678573005339 0.22872970810336737 -0.87077967600241 0.21804626024759222
P 8.383062456576573 8.570996415082504 7.073391858068544 -0.5478630029019727 0.28485843277613526 -0.09099982551834004
P 3.7090300827867178 3.510144805036366 13.436242550988599 0.9040294391944754 -0.2942499012933642 0.2856549605355016
P 4.850530358923104 1.1304930352617826 7.02548379748968 -0.1979464041739236 -0.028660086938853864 0.16329076177326715
Ni 7.07685433900412 8.479900079512332 9.180828316432144 -1.451070717526101 0.2630120263250051 0.7405818401283697
Ni 5.01043826043502 3.962802440562929 11.47529839505571 -0.3440089749943624 3.086892937802406 1.2418495117693062
Ni 5.00667287066928 3.4675511633793477 6.9555864198951936 0.6261255833593024 0.8239550023393873 -0.02886911762586641
Ni 4.525122392880844 2.6994582525267186 9.149794607761384 1.1237831690514775 -1.4568469578882457 0.7926626199840091
Ni 0.9157679557617365 7.561238179388558 10.87140443880447 0.6561072173230571 0.12423673319459895 -0.3868677220311014
Ni 1.4107536052019427 1.1730680363754058 1.0831246184141976 -2.047914006981518 -1.5143093137707726 -0.9758470353574097
Ni 0.14412961355542508 3.7568430765942677 3.3062489492215033 -1.6771560460280859 1.584479089917639 -1.8814990977569725
Ni 8.73599318494119 0.9049517804569293 8.747884919599874 1.279806193518738 -1.9300667222530308 -0.6041974158276433
Ni 3.4477083049356296 8.848367700796476 1.6383984453288942 -1.5586744701497093 -1.39683098234593 0.5271928761471308
Ni 0.6280101592682052 1.8989307961672144 10.633379612088147 0.06805555801734085 -1.054418919525042 0.0737441237616859
Ni 5.3265445953232975 6.487151428439309 10.453929896908338 0.7351619546643791 -0.8503705162184386 1.5363176997210637
Ni 4.409737429267302 3.214710832772874 2.5613868155745894 0.8570232456482659 0.4428349814253405 -0.6654153820978604
Ni 8.873951846605781 7.183468926950428 8.647799181977579 1.4648698281927224 -0.3075471326229026 0.42681778006147775
Ni 9.359230433073169 8.42217031661877 0.35314882272233616 -0.09907231811382937 1.5991186942076847 -0.8359085751568378
Ni 5.30712114910596 8.19857699859867 7.346323898373056 0.28263262876941 0.7271938488572379 -0.38810185154851873
Ni 1.5847817183353872 2.714976504902854 13.04254495421965 0.1603100818783884 0.871181539426519 -0.8837015262704007
Ni 1.9288581885874954 5.541414139034652 10.02215992228277 0.48251918738884003 -1.073735617575783 0.44033741181446745
Ni 1.3699308151674265 6.246735020005439 7.152632808039653 -0.7683099021712574 -1.5057051170415294 1.5547152283916452
Ni 6.91301328283591 0.6253902308940724 6.165790324368049 0.9824468000621145 -0.9679637759545912 0.033088040803220434
Ni 1.145591875411535 6.3041665342046835 12.854965166038216 -0.6335463013034057 0.13158597447081855 1.0248517473908867
Ni 6.621642949032474 1.7315946381124876 8.268220864802988 -1.9293550408979867 -0.9128676063113955 1.8092086757226777
Ni 5.475650301937952 5.157866318144147 4.205583401926423 -1.286986770427577 0.18368115250416106 -0.3872395035482234
Ni 8.396725974884928 3.0849819710170676 9.144487645056897 -0.12365797787299349 1.7772010124678295 1.3087565580045009
Ni 6.6897554945969135 5.990483469957725 8.467012939836366 0.018954172504999613 0.16373736239238254 -0.047411399404428026
P 0.7953463173229322 0.6052929290330158 2.961181734087964 0.6409371944508382 -0.5864082101650223 1.6423474229893327
P 6.93337807649468 8.415263995291014 3.0609943877495254 -0.05866820326516992 -2.5721753113041506 1.7597655906002014
P 0.22071428609278115 4.343246610978207 -0.002885556117508268 0.45607256316153716 1.2827506208590425 -0.39782062149817937
P 1.9540415627138112 7.417342504652737 8.909150784698099 -1.8684978004012982 1.5907602949406605 0.4493229031425294
P 6.468427002599276 5.767561211499835 12.445348545210145 -1.9184481641774962 -0.567202583770849 0.016114131953043214
P 8.598165007080361 8.734837471250714 11.204903332707223 -2.2130076262914793 1.6675648027952248 -0.3090206318446356
P 3.973399589482848 1.0442712017893374 3.2575085883800643 0.7258468479110403 1.2907891748928026 -2.2075445462943786
P 2.901959795695654 4.050021543106994 5.440585575758075 -0.10346196254109277 0.3077960154089151 0.2998145398653353
Ni 0.20821952985527603 6.636266455325661 1.5581201491178673 0.4694225021058819 -1.7724110472783539 0.9313332692157509
Ni 8.150624200715658 5.636853721215804 10.667441477033385 0.2691533633360526 -1.039668500688745 -2.3199099819726885
Ni 2.7934997939532646 5.362511523803479 3.622505340484108 0.17136376858938873 -0.7524567371890848 -0.43079656220356777
Ni 2.7880567552819953 2.86165894087619 10.849333103397909 -0.7575022700327921 1.6455016523475983 -0.5532798030421697
Ni 8.177131053423002 6.9070669494929815 12.479642484920648 1.7834685906440964 1.4677708038896011 1.284377100718872
Ni 2.5750699064535105 0.6295191112560109 11.529385795769933 -0.787901708260256 0.9927402115683226 0.8463385122409102
Ni 1.9104226911700815 7.875741427544885 3.3427387449439085 -1.7022872938780746 0.4712104472442401 -0.9677375188763979
Ni 6.578704457322653 1.6104404263182692 3.7162206724012448 -0.26456471552410565 1.466410947427597 0.24694443133918115
Ni 1.065381617183899 2.7497877196925606 4.9540869657255024 0.012791495337713456 1.0194305763753153 -0.2916597719686848
Ni 6.769313333805733 7.30987045171027 0.9085410170875895 1.2274492771835763 0.5801509164014008 -0.18392206487037355
Ni 3.579599469725228 1.6152776473292083 0.8059676989492643 1.5780333342922952 1.7323262634423262 -0.6837203510546354
Ni 7.467821096165737 4.251469895574124 4.861641054813549 1.2314221457883954 -0.4680415625979552 -1.58941149422225
Ni 2.812932560442298 2.084916817888395 6.575748067140245 0.16918938664588926 1.1054494037392961 1.228669779854239
Ni 6.861434899262618 1.0400211578953331 10.802570504210653 0.9606608145352745 -0.02469724563636392 0.08406684584393263
Ni 3.6396033789129483 7.371990062573295 4.6587974576733195 0.9352768272445313 0.5945128415500278 1.1745889388494353
Ni 3.4164947150211105 7.81671614688539 11.544745603527213 -0.5089143895529171 -1.5578167501351043 0.6140730230701424
Ni 7.499612542925495 3.170495463840512 6.904909306595039 0.5635693578936358 1.1617971864014056 -0.6148350980471475
Ni 6.173160795226336 8.185621820939314 12.133524875166813 1.4969402263647058 -0.4614636522701214 -1.520179913618937
Ni 7.686847481054123 6.3119303205285995 3.0843892017371144 -0.6217451949034195 -0.4339369076047624 0.24679067937013627
Ni 4.62808343432178 9.11938256121284 13.255278291657966 -1.1692904094546572 1.7575670402869858 0.6442757719057678
Ni 2.1109669772825668 2.680677905056502 2.631693353096592 0.2599575557693975 -0.1382962966114586 0.9736927080185683
Ni 2.911531714728861 9.071765293110934 6.686432817736798 0.13265941004065543 -1.029820661360388 0.3858932739329741
Ni 8.60758780176641 8.288899751617961 4.542792695991903 0.42405358705277935 0.348631047147406 0.2773713803704707
Ni 8.48089734858395 6.1956599311038065 6.150921694929222 -1.116372478409703 0.28708449389317653 0.9172917035210203
P 6.842067374675468 3.894447567934358 2.518021455421029 -0.7772331728028162 -0.4080309863722779 1.528938119427541
P 4.778959992558938 8.707379950830239 10.126937484677523 5.220658907552738 -2.2724592446898924 1.6851897149658397
P 1.5566904194394895 7.6310842954887095 5.640100903875171 0.4026293557407324 0.7103232983541444 -2.010642781334886
P 8.14894655181013 2.0349228805036583 5.097237950752703 1.088189588217584 1.5418198604862157 0.09732088264036141
P 4.086445164900347 4.743487038478716 9.559015117042316 0.6670115229403868 2.0150619934485037 1.8041335751926155
P 2.956520666212105 6.556652694486656 1.6255895959351876 0.06564951967900952 0.15414689049047 0.40586046108352036
P 8.775324731504124 5.038715964764865 8.25939456750557 0.24296384942487834 0.15780274207550243 -0.8364683043150496
P 6.950322330440514 0.5700865347233397 13.734329072577163 0.1065763398003584 -0.23696906529402412 -0.7422162904079992
