# total energy = -340885.1839082039 ev
CRYSTAL
PRIMVEC
9.13838540988353 0.00000000000000 0.00000000000000

0.00000000000000 9.13838540988353 0.00000000000000

0.00000000000000 0.00000000000000 13.37495076952057

PRIMCOORD
 96 1
Ni 6.294867227701305 2.493042962770917 11.413915749203774 0.40078664610503884 0.8384588523825173 0.201940098714349
Ni 4.888643320387968 0.6725961427788382 5.953993566665394 -0.6371646147822834 0.25717253682509256 0.40514775128721187
Ni 2.7632467468081976 1.7366222369896047 4.702565686076418 0.773283701236765 1.1206034857719152 0.5651485294552976
Ni 3.608154459901232 5.030352265161578 5.093248117570094 -1.212262285030493 -1.0081447190488506 -0.5511018215542445
Ni 3.6571544832375382 3.4482052975634168 2.884026960987849 0.036918984513536424 -0.09749237522121919 2.1000027572569575
Ni 5.664775543807552 4.899161602159712 2.7008041583231215 -0.9715154978615913 0.8504952147217609 0.34057706649467795
Ni 4.996576792156919 2.8883238298749676 1.2229636372678414 1.4087763276332643 -0.17096781870255073 -1.9931500238667608
Ni 5.633531403601132 8.305184112009515 12.88949360599608 0.4025604501760099 1.3602482981258897 -0.3851990760794269
Ni 2.5904855679247833 5.5258812217843305 11.537420116116836 -1.7504252870358823 0.47918909457434244 0.9501748274022863
Ni 8.883543395286553 0.3069528877009547 1.3505354995906376 0.7387321885141407 0.6018332864708409 0.19515238636855423
Ni 8.532437483946714 0.058854858316886534 6.54698523289023 -1.0127125409251914 2.026825818852651 1.0811771614554928
Ni 9.1263137458931 2.878399543164183 1.2419312703220817 -0.39632783900273677 -0.44306200983448213 0.9544328313476917
Ni 0.8647206468109465 0.20385544956676263 4.653145297004665 0.08178267779544625 -0.4398951820707263 -0.32866385999685976
Ni 2.214578078193536 6.866153400560159 0.4644694118045057 0.4170614720056624 0.2225703733701909 -1.0244601683794228
Ni 7.920330142821677 3.9214640085929986 3.3199836960277875 0.008470756475172508 0.5197539033705824 0.41399337460329994
Ni 8.292792461199365 4.253589493138823 12.847924003953086 -1.3656905521873834 0.7775319349901576 -1.0452079424497354
Ni 8.40777162822984 7.377829884455431 9.063923246205677 0.5650598263962333 0.30902320294779684 0.11905184655954981
Ni 6.8132604249781865 1.229158548834362 0.336551204669243 -0.1672183789624475 -0.26671415776694063 -0.8650116631703813
Ni 2.0360323012549406 6.8801442688421215 9.484699295164626 -0.43875592625996046 0.23003171474424253 -0.907875552413443
Ni 0.5102481542333056 5.486531333592213 1.3066145909448048 0.5076074978160354 -1.3643412372483406 -0.2591332600958892
Ni 6.596232906475028 2.0419722518645265 7.269044715152921 0.09745637977696119 0.9451971716820367 -0.24217657763689257
Ni 3.5719938682671843 4.843262097730733 0.48942817042742975 1.049714314960521 -0.33471880794168807 -0.47098033351130497
Ni 6.149895879285199 5.969047229187195 4.8866721706241405 0.8863142813028994 -0.9931952968278701 -1.5031967487973787
Ni 6.003169960842878 3.7281688773715245 9.04066422729565 -0.17050399169225472 -0.6312086543091645 0.26041058414641605
P 0.3831889553400445 6.321213193251206 12.56105820153664 -0.2964458805034185 -0.7631548403328793 0.3796660620763397
P 4.3405686468342655 6.687717284248202 12.70834338917482 -1.8641310387921701 -1.1084725068363361 0.05518641536415657
P 2.1718744025033905 8.88672355345907 1.1142415228256493 -0.11343681436561755 1.1024568967698753 0.6937265703377279
P 6.796710808741325 8.45476120674444 5.740716441593273 -1.506924077050295 -1.0570632991264246 -0.8119181257795113
P 4.872011458681127 1.48679705273598 12.688187765998661 -0.8049231825189169 -0.44602443489691573 0.2299293848384234
P 4.29123050323249 6.701050188770334 8.329932687764716 0.0629766008325367 -0.08165335130643356 -0.3580636533152156
P 5.017622494085958 1.7311026521154662 3.670982688256654 -0.8788046031894154 -0.04710389546633823 1.6113867129417603
P 0.1856472163519939 5.839629412982651 3.733430759773062 0.5365676324938115 -0.15188817636328036 -0.15568800972534477
Ni 1.0177694142175338 7.703595052656222 2.6568265916868588 -0.5708250110147846 -0.13492815147017406 -0.08520121655869198
Ni 2.0344970524820014 7.000524221734542 5.02997119448401 -0.27293777007914927 0.12599305376407333 -0.2055465851186847
Ni 6.386324190317819 6.069377564175875 9.36393735775608 -1.263596673638411 0.8779378843137461 -1.3505205293151643
Ni 8.390436110835402 2.89208884472289 10.032603994747038 1.0109153398154527 0.25194548409819834 0.4981399246452324
Ni 2.53272183284295 5.741711611780017 7.094756512043567 -0.5642080199188992 -0.004599189334908208 0.47840876476489225
Ni 0.6085314908580672 0.3269677797395928 9.090298454589348 -0.30279470553958177 -0.9093068855433308 0.9249088537466459
Ni 1.1216728579575188 1.2226794334771367 11.285235400713374 0.6701091880291039 1.993533632458425 0.5060823194207607
Ni 4.621628832908757 7.327861192250484 1.6431392942959435 -0.43200395224810756 -0.5085739754943628 0.4463422232476506
Ni 6.4521297046864765 8.222472584367424 7.951702220425843 -1.2144734337491987 0.7351167032487405 -0.13684542309754497
Ni 6.875045049703432 1.641848040417275 5.064679696653652 0.42521546857136444 -0.5912233721654786 -1.398501170959501
Ni 0.9383202902179356 7.760335288556096 7.2414394800737885 1.5167418344716652 -0.5774885390778894 -0.04872343334763222
Ni 4.783725515851577 4.97807156141167 7.13094908802705 1.6315053380685065 -0.840609837287249 0.4955364255841143
Ni 0.6509993962009396 8.050707489509309 11.30787940627567 0.06152804131146822 -1.3963519858269824 -0.1555489130443192
Ni 4.745554479395823 0.6320207970840354 10.455560462498982 -0.13034387453360133 -0.6965540124841939 0.7646334817609348
Ni 8.620531520679648 7.11337414493112 5.362860648062082 0.016605983987797206 0.32406672754448057 -0.6445287684568384
Ni 7.095271003150213 6.19614524856999 6.976293792440209 0.4014034537534313 0.027490235000468786 0.8129493952575032
Ni 2.67864357335659 5.822440109757065 2.667740565553056 -0.5724962280696205 -0.25484800245697403 0.26552219434136853
Ni 3.3968292939832763 4.680617111654721 9.389109040762394 0.9224089701429274 0.05805628071278388 -0.9906128808126746
Ni 1.3053178540348045 3.746518755562368 3.7436218873420004 -0.5932967097547395 0.2642898645961642 0.02352919347019174
Ni 1.7934264415883512 1.4303401067882553 2.5111735197084837 -0.5485489732254036 0.5433041798866967 -0.43724386049080827
Ni 1.6042984141791397 3.4776400374303025 8.153329731594733 -2.158557574872715 0.525953347313075 0.7227908346935358
Ni 5.247297538194758 3.478389385045666 4.8638006192615695 0.8967210784585202 -0.2942208478276417 0.680136490358119
Ni 4.579510013894018 7.210094817626282 5.972263027063369 -1.0402981638529438 1.4981465879679812 1.9188469422778114
Ni 7.959652615857135 7.895290966405884 13.21804963714482 1.2821926914730435 -0.8390319512771679 1.9847211763731174
P 0.6407845088295627 5.804547150843883 8.103495373657418 -0.7080776968530773 0.18202896161271875 0.18590567095930563
P 8.666397077771204 1.799073963860234 8.022228624771287 0.062413529240215086 1.052269220171891 0.04103352090254224
P 1.804237151697797 3.6944299579090774 10.479140238741929 -0.9340421835064817 -0.5518106746958109 -0.03941115480777084
P 4.210538558797656 6.608204191549732 3.8936083817497074 0.6405448441084259 0.9052440283278668 -1.333977794465135
P 7.077652195803625 4.668225460844569 10.850388979518149 -0.10399160979231767 -2.076699820864959 0.10256001955211369
P 6.448063123115299 8.291047029558701 10.244677594441804 -0.9015377831208732 -0.7200911763741856 -1.1521419226998286
P 2.7826840928798733 8.996731438748599 5.901804246771018 0.11414335351433891 -1.0266731168703416 0.05219313706378754
P 6.928056824297596 3.9643504519942083 1.3307115998100614 1.004236128023064 -0.3163562462741003 -0.8121865489495496
Ni 2.8063707882337905 1.712049118237026 0.10506036335102131 -0.10211830402900478 0.04051955738060118 1.3398368243490733
Ni 1.5482070036535438 1.1459352716012885 7.07676668624352 0.20421681056366767 0.0496009508565791 0.14332768838777896
Ni 6.938364923201616 1.14434519251503 9.413263621456636 -0.18063388103740505 -0.33003580064372195 -0.4808140317722751
Ni 2.9653238665463055 1.8968272741229097 9.501244342208711 -1.9083293305759392 0.2721607827038087 0.05622925480637413
Ni 6.850078980372064 1.6571639746044533 2.564485947187349 0.21802106343661162 0.28402359557966567 0.004773510129243392
Ni 4.119511100302142 7.179042583516478 10.471342454349374 0.9605489715477588 1.4232272129512713 0.4054123178025082
Ni 7.058050358791993 6.680013625226847 11.542007585664546 0.8016159725225549 0.04661230054190036 -0.478252441692686
Ni 8.29981074130423 4.28533624455067 7.953695302314998 -0.461558783087089 -1.169432077238844 0.9634792578206761
Ni 3.2405172090956382 8.768920625292655 12.462632306097248 0.17594033221647765 -0.4801897679247149 -0.5529373321010864
Ni 0.03577038257092555 5.315999920783781 10.255738696315408 0.627068663998862 -0.15895793872586816 1.010144265977383
Ni 0.11259313456253141 2.3928131500233225 5.600372771621313 -0.07323813065954483 0.43570916901383666 1.55819624496171
Ni 3.5431348466901507 3.0796633465880556 11.695619277621214 1.0204641598461524 -0.10315497282363525 -0.27313703057414895
Ni 1.419291798654426 3.483196175846654 12.729181649751803 -0.2316715643405107 0.38430073263487363 -0.3973765919822253
Ni 3.791095800290921 9.007121783122598 8.120655434049235 -0.4743343375852025 -0.5433494313023353 0.1594240797290093
Ni 5.414767591842863 8.425874770010747 3.9780982392204556 1.2640779841502037 0.4297879184333953 -1.140937569343577
Ni 3.0500549773956585 8.703243048321742 3.5817454394910135 0.010986838028806884 -0.8480997179063909 0.08971658793054227
Ni 3.348048591900247 2.6013511083475493 7.0015723945574955 2.708001806218878 -0.03416199059368955 -0.07686107212411279
Ni 4.888816949713479 5.0313757643435375 11.264664894833102 1.650469280765519 -0.42397336863414725 0.392123314003086
Ni 7.945999867840641 8.670765226065638 3.5581117467733048 -0.7898878854523493 0.09069823511752122 -0.17848829544931197
Ni 4.334345406272529 0.7239291959468784 2.0046510852652215 0.14227430742260014 -0.6952833733018865 -1.6930431495719875
Ni 6.148890656874347 5.791040616996239 0.1397907976459917 0.1533429065319359 -0.6297346408667993 1.3963578993642531
Ni 7.8177791801435665 0.19004552131875335 11.432694217677062 0.2441802383304827 0.96706594673067 0.12080071092985649
Ni 9.058324157377227 4.7925988882237425 5.737572836962969 -0.02559507486028495 0.5186997510744551 -0.408365229783245
Ni 7.867473720781916 6.471768095240323 2.2142098012557416 -1.7013953781914248 0.47739677856061 0.3581518421536477
P 8.654361823997629 1.8045295800355 3.7254858473731023 1.1708549257282996 -0.8248554026664698 -1.931935142920337
P 2.09332997867356 3.8043464593430736 1.6224216604082637 -1.8736775448300247 -0.86864848859202 -1.3398355387974925
P 4.799333878376458 1.896452600315228 8.547676655695245 1.6521844636844127 -0.21807094283794057 -0.2199843578105695
P 8.721419297187074 1.6991731329925546 12.679801469576482 0.21454724595539829 1.1402608549915265 1.2053331620108272
P 6.59583995589624 8.268091405049041 1.6765501457170306 0.7510547146352355 0.7815629105264218 0.05222836117709714
P 1.8896993333914067 3.716042239742416 5.930078411672647 0.608649538061726 0.4677782816342395 -0.6564890261425081
P 6.907321827477365 4.131930166268953 6.26730128768005 -0.6776355783131363 -0.22073511993366499 -0.7721999812542829
P 2.43899855060924 8.919767955619474 10.311124623476296 1.1900908911397763 -0.12302265828183974 -0.4234064403870837
