# total energy = -340876.33373281854 ev
CRYSTAL
PRIMVEC
9.23247827236413 0.00000000000000 0.00000000000000

0.00000000000000 9.23247827236413 0.00000000000000

0.00000000000000 0.00000000000000 13.51266518480890

PRIMCOORD
 96 1
Ni 4.622646351472786 2.600022763529644 7.093298093451049 -0.412513961844296 -1.9570442792831388 -0.8870920400091884
Ni 1.1190594287442328 5.829562041088159 11.572083972362451 -0.27112308546791375 1.2514389552299543 -0.0936208080809549
Ni 4.798266548434833 5.471129546783798 2.1155558652315753 0.7104238284877507 1.131740219115025 0.05686200329436659
Ni 5.630712929419115 3.3399689471969896 2.537354549202077 1.3369538463743231 0.5010465567690661 -1.1546585184740954
Ni 3.022934884349773 5.631285343056568 6.512226238106818 -0.5523927724515261 1.4669310815971253 -1.4817851158908222
Ni 4.537273627189953 0.7129458016877688 11.903954627393349 0.14601860495638078 -0.09472946776410138 -0.26258882274465745
Ni 6.041558201462596 1.2647294669982114 3.575545779691117 1.2668352351803667 -0.9843617576966401 1.201097269552609
Ni 4.4407111395426995 1.382785163484054 1.9414451784263618 -0.7556868140906082 0.3986343756487264 -1.4029368381333516
Ni 0.2370540289778795 6.363642429788638 6.131101236068622 0.571225588887313 1.0925931166019183 -1.1428011049148767
Ni 3.415730661857412 5.984759996662338 9.880541662579203 0.3074484022615092 0.9900534087647787 -0.45711514549343857
Ni 7.703782777282382 4.786218164614231 3.2181353207039516 0.5525791774307193 -0.030783561039759884 -0.36175138657944794
Ni 2.481967067043801 4.305418406587077 1.7475391354910712 -0.22308716510560936 0.13756661753428565 0.8361880540704697
Ni 8.64824681412517 1.7641326682426162 10.851818662097692 0.4190286230343622 -0.4433851975018558 0.4749328904011499
Ni 4.9888802897069615 4.759287026219831 7.58448346600678 1.69448348156294 1.8465385225213875 1.2220597307368888
Ni 2.227455345371382 9.094092410355547 12.093416155408153 -0.2524165101973459 1.5070408051338173 1.8868817022251245
Ni 0.09307999693680838 1.3320988591353191 13.385496838550832 -0.33562769290920264 0.39558941817481547 -1.0605322315116317
Ni 3.543434297877759 -0.07824525124873048 3.699835245338393 1.1111150866655057 0.5320926274415934 0.2692379526300589
Ni 3.2253200351017997 7.207740198038513 2.4543591880102817 -0.5298303137699779 -1.558962433703773 -0.14499864833229867
Ni 2.572528443975813 4.252248565650034 8.29223599880636 -0.30389848012672177 -0.009273711992442093 0.5486608162129196
Ni 7.8629322334505956 8.142796339775407 7.693422090444468 0.737083340056808 0.5228587675481511 -0.08579539849926514
Ni 6.674592289618402 5.436553916585981 5.637875485869706 1.1273981400962456 -0.9757871286537517 -1.5884072213274516
Ni 4.58601187867574 8.106004914851962 10.145700277908263 -1.685008452192969 -0.7092658036239076 0.5009493690695696
Ni 1.328710539700713 8.889703811872433 7.28689392512475 -1.6788311197376635 -0.6544588830863567 -0.28075315235851
Ni 6.190939695882001 2.548524001114845 10.827563095834485 -0.7424451185893536 -1.0641641718372639 0.08102111703907337
P 2.963653142961207 7.235843861141892 7.959756923473716 0.6286666046136011 1.059515617321659 0.892773663774998
P 2.225590384810645 2.2502503336112776 7.654762011969077 -0.25356759308265364 -1.3631117357166136 0.9855300669731285
P 6.8150829077012265 6.744380590997653 3.534399394884012 -0.6936054713788313 0.18604142520622155 0.1817448547133967
P 4.539046262970455 4.273012408724772 5.442293748173159 0.8138760208368306 0.6946948477882681 0.5166482678620651
P 0.441442627460994 5.050405523255226 1.8238852660103784 -1.2146744940164111 0.36203986435414426 -0.25915974245845047
P 2.6368603508432056 7.125460353893534 4.428194669086309 -0.8910304558316461 -0.973622259791949 0.9978888456487975
P 3.217786333034665 7.172601386681266 11.949641544892387 0.5577504372190136 -1.0450778446297744 -0.07358882913074423
P 8.916985784431725 8.897025166945028 5.783920362731437 -1.1536349623055875 0.23531173219625925 -0.18328725949985208
Ni 3.9753296198147043 2.726267668022286 4.0462055071051175 0.5976740128868288 -0.925107085800381 1.27857874886954
Ni 7.374764957960728 0.6741333873249915 1.4524765238440591 -0.08845109095455735 0.5220133888287203 -0.3878074602365515
Ni 8.280895746050158 3.1412860201323665 1.3400591016871368 -0.04497836448290318 -0.32394948524032596 0.628820356582646
Ni 3.6049226015139295 8.147698785605858 6.020878373937873 0.0037381268861935617 0.8461317955467428 1.1832047055429042
Ni 0.8409384142702496 3.9483523190301866 13.370687020553417 -0.8501730554956519 0.09035756394865084 -0.8644501342399563
Ni 1.9968834392137662 8.003136644714694 10.158646058592744 -0.7376446118769167 -0.8839226411422711 -1.6546357534383827
Ni 7.261574777393244 1.249726690210107 6.380234116044579 0.07256424452097181 -0.2306557214814866 -1.282224316041927
Ni 8.76899839419386 6.813070227492114 10.07174535919703 -1.03991455526128 0.4602387787240848 -0.4643929101017744
Ni 3.171439293356951 4.941610002226903 3.9571841075074174 -1.1664449695860624 1.158140820595741 0.055887040975606976
Ni 3.182712149023582 0.35206670070719337 8.342476374466562 2.500758807234377 -0.3101930548861819 -0.06901766482029403
Ni 8.694187624769853 6.12567530873424 13.308353021930298 -0.6509714387583885 -0.1811460447871332 0.46840794479843845
Ni 0.3726542034516824 0.9704626949568208 2.424834646539094 0.9167617991594791 1.0626415645451506 0.065630493515616
Ni 2.773639512760603 8.996671302252112 1.1617254794339977 0.9030879012168124 0.6323545949881497 -0.1047058622505229
Ni 9.10330642342295 8.33007715648107 11.950060699394653 1.5456865425304736 -0.9532364970467454 -0.16650926871056485
Ni 4.344250209153704 7.2613439654426575 0.47542645581750753 -0.9126884004210539 0.25625131056240386 -1.5726718128700656
Ni 3.869987045567151 2.442839825180424 9.579236049292735 0.11553714853807198 0.01987925542243028 0.022903901181367006
Ni 2.8947696244282537 5.0274351179328844 12.915054074370381 1.2436927356256322 0.5016764770435812 0.23874518335784048
Ni 4.160773173393701 3.2475241447481946 12.003191763923995 -0.6476356895169363 -0.28024278838099476 0.003445278236123099
Ni 7.8526103230203805 4.77941382831095 11.50254771763324 -0.08079845950530601 0.8135739162153796 -0.057282121550920696
Ni 1.6469171272569074 6.903797789028547 0.07917311529008711 0.6159764107404424 0.8214371210135403 1.1749396373206347
Ni 5.746128137190251 8.377633650779856 2.330718765568055 -0.950936388158659 -0.6589444296615362 1.2322310148429358
Ni 7.6607224997810155 1.3102455836538152 8.746585630544136 -1.5786935935841133 -0.8025587960517985 0.5332028297866366
Ni 7.57622686091041 3.681598331498674 9.44012291693101 1.5059126050666451 0.9665928637489933 -1.252384092752043
Ni 6.594712889759521 7.333061854728809 0.4153959604612396 0.7407728730932532 -0.31294439237907395 -1.4063103825912748
P 2.452783204011679 1.755620323504996 3.059524118004504 -1.8801351275299103 -0.6172534776806531 -1.0591276378546213
P 5.210810596434629 0.6962063957834534 9.508389705931997 1.2219905680618501 1.528528028473316 0.14295179310559897
P 5.3986822917337935 0.19923687574602994 0.3469417521563768 0.2086452786486665 -0.90319100245358 0.01647254373372647
P 7.083738785705569 7.005022678077642 11.815730913896875 0.25472458950523225 -0.7436298829260741 0.35620911660498006
P 8.863234297379204 4.351146870237221 5.8610374051657015 0.0008425505059533877 -0.31925490797813405 -0.3515351081680784
P 4.819224273548062 0.8710178276706466 5.414092220802733 0.1773233286069333 -0.07752415962940841 0.42062707786973363
P 4.313773799198299 3.8921449928234284 0.7418046814934658 1.359479024060033 -0.7273727976372635 -1.2350144911253442
P 7.750646835729409 2.9061717347872134 12.479811055902132 0.610101182906588 -0.4208949868191396 1.2124957411975374
Ni 6.266950687449057 8.355198729182874 5.16656763849846 0.80225386321687 0.38867932131854355 0.08917948448014963
Ni 7.328094781552195 0.1963618820895279 12.56219707354438 -2.382262061847349 1.2938397887936686 0.1342393529332656
Ni 5.4744994012623565 9.179465134638379 7.448789120257139 0.2287873008141802 -0.5201416257273042 0.06054022347690218
Ni 6.647162597410734 4.770559881886463 0.4566374397919864 -0.2997176092761548 -0.3593769728100004 -0.058992933594440335
Ni 2.1527738306397026 3.51184999055954 5.930667831170752 0.16668667482869357 1.1238245638123743 -0.28231561174962344
Ni 1.243540929934396 8.830228188445375 4.303892277969801 -0.5280128009452649 -0.21989385497929226 0.06380063939572883
Ni 4.817765542020357 6.580485641125386 4.72040629151968 -0.19979219913341076 -0.6035651815602832 -1.1494903440095945
Ni 2.577052358207303 1.2186040067930601 5.662563132104409 1.8966048430501594 -0.7091056238969595 0.3776518598597883
Ni 0.6456207254451739 6.366846099662775 3.6855793760223845 0.5142795105195723 -0.17052790295165468 -0.43680368762959615
Ni 5.165257549866932 5.599091692188802 12.092902829630049 -0.15823391607565004 0.4546893096607654 -0.017958384250633588
Ni 5.99424175159242 6.27860207471465 9.936510790852955 1.196734364598223 -1.4329295278407 -1.1247853850637468
Ni 7.868083956187681 5.676192116162624 7.675396600351485 -0.25004492464137584 -0.7717058152266839 1.4580366073209727
Ni 6.995559388103608 8.46975531649783 10.274165593365545 0.24772990335495404 1.762462163595758 -0.8184649257590938
Ni 9.133265814609041 2.5674690460189624 7.471084631435966 0.49520886704136646 1.7095833133188556 1.2083454664745898
Ni 1.0332250805602272 6.4655135922993745 8.273318651336313 -0.04327398019728676 -0.8720618851489432 0.7585448523646936
Ni 0.44686947804317734 1.8974496509012202 5.49503335563431 -1.6401164767762848 -1.0828758893141543 -2.2497700306224933
Ni 6.544183537537184 3.176498691313801 4.845114911669221 0.12373151142340626 -0.05537127768145302 0.4982525389636967
Ni 5.871357469100313 2.3130496491267776 13.319419993337005 0.06160568862693906 0.0993646525432676 1.6210849140661308
Ni 2.0866877529478547 2.053838596140423 0.8086505921266438 0.9240449630844538 0.0687124748750494 0.27251533782975
Ni 2.360578445991494 4.149075623737992 10.683505048243402 -0.8362153077639792 -2.626128368481839 0.39646153636712367
Ni 0.9540842789432222 3.7701470282215737 3.847758008230093 -0.7452900442373165 -0.2768049663440394 -0.633795184089418
Ni 1.6401589533437426 1.212288991825021 9.756873542702905 -0.6760803180108743 1.2959912879190325 0.946569112328899
Ni 8.102810477455849 8.723177605763482 3.421555432242406 -0.7140303148920863 1.3711703443550323 3.3441886304689246
Ni 8.34022364982884 7.279919711225837 1.9372296289608548 1.3900905782983026 -2.0185679497192335 -1.6862430959310186
P 0.34434188634497354 4.779423060788973 9.856664627914958 -0.13674977805994512 -0.31226330715164935 -0.9921653129014589
P 9.246234415703963 9.124181056233967 9.297632544108305 -0.5196394892799051 -1.149063540884821 0.7209285846738165
P 1.8911254034551574 2.109371951451469 12.014434152413148 0.23026080003591315 0.5454636494318605 -0.5402602508540502
P 0.7562978254946762 8.728366258412661 0.8140922146736647 -1.783976126408134 -0.5729561984251745 -0.44976384733468994
P 4.910191879513105 4.323329413952568 10.024114081826253 0.32444956480519604 0.06439225023314071 0.5141363000734888
P 6.124271972074676 6.946497999886999 6.9184848150682505 -0.6634261195819736 0.9997660080668526 1.6478860934193749
P 8.24640320815455 2.3337119349432567 3.616381029988832 -0.8232572049414143 0.08045161768884854 -0.35072752466511853
P 6.8146305162780765 3.1208176163543797 7.503731596974683 -0.19966621507850774 0.03945254956866754 -0.15911349046712597
