# total energy = -340861.232215196 ev
CRYSTAL
PRIMVEC
9.31214521333168 0.00000000000000 0.00000000000000

0.00000000000000 9.31214521333168 0.00000000000000

0.00000000000000 0.00000000000000 13.62926580577006

PRIMCOORD
 96 1
Ni 5.158881837410536 0.5561948726914011 5.187189827369911 0.21384173524794142 -0.6052736796109576 -1.6304601846334434
Ni 3.0876558948649784 2.3518194993914756 13.43240430382345 0.19966107287218518 1.1794285263299236 -1.4571598611429744
Ni 2.9137050239675353 0.7253276397022091 10.236504965263354 0.30193569997339614 -0.5385270702130274 1.1640253044009758
Ni 0.07680098568734313 0.011842254952905673 6.788696270479686 1.2241340967674144 -0.9024608091557748 -0.028206544341203035
Ni 0.9585829068154101 6.08162229764756 9.2907979615095 0.80859626049513 0.9737343598897811 0.2779424223825923
Ni 4.894575222384726 4.68345026815631 6.01349091906972 -0.6969826153811803 1.8035836162264165 0.4828398039530523
Ni 0.49656362018182587 1.1532719249017505 10.889496792864694 -0.11331005897976613 0.44611853727261874 -0.9381469497034746
Ni 0.15696551819311003 3.9702051367511793 9.742349465810333 1.0308195349385474 -0.9496806613746871 -2.1219376096568356
Ni 5.248771974282754 7.037830607456607 4.689162337974752 0.7007593088147931 -0.4752969586087879 0.22580327848519174
Ni 5.692365319361478 2.3807802707239727 12.106072680312526 2.5024459651288127 -1.2919320302479942 5.012865949602038
Ni 1.4274494137579286 1.0369166715899973 2.15482758781622 -0.14473691003047975 -0.8055800993766254 3.0548999298355772
Ni 3.851577720029417 4.75466024191181 12.587744318013666 0.22604239107919133 -1.423819852229948 -0.5228194296697835
Ni 5.6028290440039346 1.8055876907671609 9.993086422962921 -2.0337958224125807 -1.1042648965128918 -2.8337899430609967
Ni 1.5465145013004715 8.862433698564912 12.26220941758969 0.988104512568524 -0.5286602047212767 -0.7079761382782066
Ni 8.458500779565 4.145469020110964 6.039305116565158 -1.1827066828605632 1.0473471002799253 1.6869573483892235
Ni 2.357080861385964 9.061266621230983 4.155495406764887 -0.5562661393640033 -1.2163742503163373 -1.3842698578514676
Ni 0.5155427031569907 6.1487349275489445 4.32658279303701 -0.0950480274457847 1.0562094357665615 -0.5285925847081349
Ni 3.9484333414536303 0.3066107591050381 12.6164201377054 0.39905397968464823 -0.37272588331308065 -0.5917589329539744
Ni 6.064059591945601 8.074970770529557 8.61067054301977 -1.897807090888377 -0.9190585656134559 -0.5366136552403984
Ni 6.091241743559608 0.9814535352374723 7.502161168509717 -1.0445047457351235 -1.1776272114551267 0.22725029534436347
Ni 1.1495005061269397 7.2145285611653325 0.5116790941454624 1.3156041770539535 0.05358410387404319 1.4141381061658098
Ni 8.36732556666581 7.688609869376725 8.500600056451523 0.9778751215310318 1.003941993821413 1.5784125720085849
Ni 9.165013230046208 6.8296855396675475 6.5936478035915975 -1.070934143571246 2.892813987003689 -2.2851368401575614
Ni 8.090130942789783 8.393921053137067 4.43188266765875 0.6094537791305762 0.13090334658149713 1.4673555707290535
P 3.359952330406313 4.082192994000251 4.350624889315544 -2.8517002476825146 1.5929711865490501 0.930415385387172
P 3.4594246646100855 7.941732598109824 9.67721473553307 0.654033365513164 -1.2321158294213101 -0.22786838854433658
P 6.443129083467133 4.891930573169797 4.6068010704344715 1.5933298554400495 0.2993897936230908 -0.8995289802209605
P 0.3377924770493682 1.2972004399226753 4.63788873571306 1.1612968497262193 0.8512164091585017 0.9468311077410337
P 0.3399808311532707 8.308323815166549 2.958490854722041 0.7820976999839692 -0.274978711768578 -1.047758476785731
P 8.8064490820855 2.456255206945802 12.426374155177383 1.3854769907856912 0.37952825094689474 -0.416260830481238
P 9.186263545216871 1.044291890527405 8.756571370377744 1.3715763215441992 0.46666962195109307 -0.8614990220314324
P 0.10357060927240086 4.8951805118177205 2.1993685091539907 0.974721920614031 -0.48766627880741825 1.1063796288630494
Ni 2.7961950646605316 6.050854970161203 5.452264694368368 1.2604326740881326 -2.118468420161313 -0.8461955589051426
Ni 5.896860026262327 7.472745033280706 12.761190470645444 1.0956288181044485 0.2855773132200307 -0.10581169372019196
Ni 4.684847089924759 5.205796424540156 3.0844394799394976 0.6478344357913036 1.691849129263886 -1.305853782535409
Ni 6.386203940330298 6.612591500415294 1.1941010251934976 -1.1768291410338634 -0.9734289128342203 1.445038652399408
Ni 2.3581145094946163 6.112110260780227 2.579270506449517 -0.01058111794995597 0.26092171945487963 0.1580292562640117
Ni 6.31774104938608 2.925335893226149 5.797739691144202 -0.35740570801624255 -0.01835921923347806 -0.8496102410136465
Ni 7.214649619051931 0.4939115212507985 9.578729488712336 1.6079797441427406 -0.623009920548456 0.014494594071749231
Ni 8.676842646263733 5.621462646395036 0.3139394173168307 -1.2686707457272088 -1.198120446312472 1.220454076812666
Ni 8.028214489867027 5.988761586481109 10.090713090003318 -0.8743653364711393 0.07024279547664677 1.1657338024516504
Ni 6.356945180353866 8.439355009192134 3.0139623720051767 -0.9519658578644381 1.4718231195821039 -1.1178164099450814
Ni 3.19646831062711 5.619311540871625 10.418496873474497 -0.7192355132421098 0.8545709274530314 0.7369203321163825
Ni 3.9843037244673853 0.7123949325554014 2.3256840328892934 0.6985257914985842 -1.0964160898924344 0.4774682552284938
Ni 7.643082791870429 1.1558141405203264 5.845469090972085 1.2733627518862394 -0.7250338650914416 -1.8025374343500893
Ni 3.622638632180722 7.0406801238642425 12.421603543230875 -0.7283829840693328 0.7923939397036548 -1.0660166516649705
Ni 5.832438606301485 4.122151408722998 0.3641141864540101 -0.6422723683224939 0.6859075885139413 -0.4321350785093332
Ni 2.8138788282490887 0.5118653370479221 6.371367830720351 -3.0683282874263416 -0.38404593631159023 -2.148290645729068
Ni 4.848759468379619 3.0052806591070134 3.6452289650345815 2.1076888130473055 -2.191370250527361 -0.4286880005009972
Ni 3.9269967833805084 0.09087629304074166 8.009973860000116 2.814269356529566 -0.5894876204212944 3.6126863624988492
Ni 7.727730191038403 6.327285998137144 3.2674799356914908 -0.578879505888145 -1.091046855160721 -0.2466112163694785
Ni 2.8169611482847983 4.031255560177498 6.7869651427013205 0.5696590157311414 -2.148134322656862 1.0777259696820989
Ni 8.32380991250608 1.3049853932454945 2.9762230414652375 1.000958742823373 -2.1522745700774806 -2.0825722204853356
Ni 4.286687700901099 7.285766471356202 6.802693355814051 -0.09067123853432771 0.5312320792135109 0.7642570722581226
Ni 1.3042124852002863 4.0751064515616555 4.816978048289368 0.03470397914008862 -0.7031938863982148 0.1497626453798453
Ni 2.1928239335615536 1.9062985402722916 8.405100283357216 -0.43543868896126936 1.084782619418564 0.3355328192025512
P 4.960142036195696 2.167178285892841 0.923276839796108 1.5221321522493012 -0.49220658987993304 -0.6005654755020108
P 4.183015589246857 8.115199237460871 3.1984611096834294 -0.13528296370643153 -1.084956425992267 0.2686016045976406
P 2.3242369255371806 0.48748334747239885 0.41460743095439584 -0.14491354481766008 -1.3258996454426906 -0.055278975077962866
P 1.7499569358024218 7.699533015605991 5.663791002051585 -1.5107856168882303 1.805787822966587 1.6177170260351625
P 4.402055866829815 1.9337600562399877 6.5926392982747775 -0.7434964426720034 1.793529574424524 0.9315363863654924
P 2.364633011080709 4.268556954346638 8.985270204882267 -0.662629334712291 -0.18162966929177107 -1.0539877455248943
P 6.898064621305659 4.814770138680707 12.137855962831802 0.31381548213011756 0.9660580742914457 0.0642104732396378
P 8.358562838105078 8.394107296039527 10.651052798488962 1.437254637578615 -1.619471546832424 -0.8529948412151631
Ni 5.525994534594148 6.521919143352746 10.698905118632469 -0.21938271967082862 -0.09647678947251127 -0.7965316160211121
Ni 1.8132888347838731 8.485887798371712 8.409038389529728 -1.2898509793492496 -0.33473654855350093 -0.1698514457099204
Ni 8.530101863415666 3.3143228193036642 3.9493254449564126 0.15847457133154644 0.7155212976153161 -0.29032254121449996
Ni 1.8886892738447185 4.7117591893301976 0.5226227270939995 -1.2700907660031866 -0.1714380734707499 -0.3710968323500899
Ni 7.370730483458358 4.065235577731287 1.975807185113822 0.3741559308913879 -0.04011100908827285 0.795007723177418
Ni 7.596177516885931 2.453480187699151 8.13378255426831 3.319792975233379 0.8337750737536028 -0.4986682863448767
Ni 0.5545605912223164 2.6115724754521428 0.7833050552379414 -0.6910513374984099 1.0449940266667166 -0.7189439501436199
Ni 7.352059632486763 1.9999973444998114 0.23199347144903598 -0.4227418102198913 0.30992077506140175 2.1477103477455657
Ni 7.700147617184109 0.5319013484945462 12.02015324212075 -1.0621597398127256 -0.473631655091223 1.0925157263967635
Ni 6.628161407060933 6.357606342657598 6.811715893223714 -1.0201499710398432 -3.1523995041456483 0.39149133684604187
Ni 5.855122991821088 9.2862852959829 0.6322862729203724 0.42955266249413765 0.7419954326464447 0.34460084294209037
Ni 5.643048198790126 4.010852650213028 10.65029013380339 -1.517330874205916 2.994005665453366 -2.040719289005292
Ni 0.0735715337586904 0.14518937947057758 0.42825996691921064 -1.5707941362313786 -0.06468381333163054 0.3349301526215458
Ni 0.7895581606880289 2.324879463550667 6.608599383801069 -0.7875368687216695 0.42586210101642785 -0.9258933291471021
Ni 2.75491432533032 1.9369634341622959 4.538096063717055 -0.6659092910151435 1.6602240461594373 -0.23668830082881173
Ni 3.107090341736657 2.72167927938637 1.967902105118916 -0.928112448285608 2.807454904710894 1.5408873213696173
Ni 1.8216790775396865 3.21821216948929 11.77793410411216 -0.021082788812228206 0.017735983827182358 -1.1714825320099695
Ni 9.059702180850321 7.254002744341684 12.342962477667228 -1.462061669319966 0.7485018663063948 -2.8882615917463164
Ni 5.669131517279619 3.4658221083095793 8.112316197330793 -1.737636619911646 1.1810076978915853 -0.0722135460497724
Ni 7.6475898701099565 2.8215985965560466 10.489805555968301 0.696775898687013 -0.23755321993226833 1.3405528765794912
Ni 4.531960291295517 5.658236307485722 8.526523206044901 0.2618375464009297 -0.21491465659714598 -0.5097152881876577
Ni 3.79075078808605 7.7859683466375795 0.9673428417326064 0.14825212227258983 1.3587228626202987 1.1414839287653502
Ni 0.912483132384051 5.245047116233557 7.077923117069127 2.1924907372850497 -3.5541449146195307 1.3087377889514236
Ni 9.198955999019505 4.609660830201742 11.89724503228595 -0.3118863834282048 0.44482758637533715 0.7696589599999841
P 7.402876008422917 8.158333093670558 6.571841553357093 -0.381432152837827 3.6029732489761437 -0.3564777968853345
P 7.970060143573958 7.707457651105655 0.4428409237527875 -0.46030485607532984 1.4545964712911723 0.8490980772639183
P 3.77034787812158 5.6868618415937915 0.8824905753719265 1.2400775074705481 -0.6541706624219766 0.8300402893015189
P 6.390617897118595 1.6546936911942398 3.3653384751454496 -0.3347835997413524 -1.2745786265712113 0.9378368746622237
P 1.5917529023079542 6.258729985741696 12.137556111758842 1.055854109309672 -1.3398661349251118 -0.3029209467048009
P 5.474358689887172 8.935431604184027 11.274564237059943 1.0360170199790868 -0.07331166420995762 -1.1766717895203929
P 7.567663728519338 4.845528154021941 8.339802590540303 -0.01761179954449225 -1.0020221510908807 -0.7565314214790907
P 3.9797873340827357 2.426568088293712 11.163636101925867 -4.758550422609766 0.8924005967062953 -0.14309731754452776
