# total energy = -381173.86746169504 ev
CRYSTAL
PRIMVEC
9.20630010031130 0.00000000000000 0.00000000000000
0.00000000000000 9.20630010031130 0.00000000000000
0.00000000000000 0.00000000000000 13.47435078387736
PRIMCOORD
 96 1
Ni 8.938277139683601 2.0861936468796083 11.406523036742406 0.31739831438536953 -1.446526035578212 1.2301391653109137
Ni 0.7310575653179529 3.1363378930889296 0.3247227778469503 -1.422720448518182 0.3660397295421567 -1.4414270237887499
Ni 4.72830052238691 3.9013446108626235 4.054607413341796 1.2795118022067704 -0.26743638064494585 1.110083817187514
Ni 2.5158056436653675 3.582530436455877 4.613860687666133 -0.9285335949834267 -2.000931210474077 -1.212522223560099
Ni 4.741327437107833 2.6191095377172906 5.979040842698125 -0.19241159039862346 -0.07101695463850995 1.4332943673792864
Ni 6.184387367680582 3.059087828478851 1.8159252138261455 -0.28656050306890646 -0.8250202103791082 1.3380496505416635
Ni 7.218153605912149 7.938675481331428 8.977757437273144 0.7405815830180535 0.1027461674209908 1.1187481777307313
Ni 3.338241261812994 4.823060969893945 6.246224244569269 2.483755587808161 0.7364480204656542 0.6262975901607923
Ni 5.529966727382309 8.119220233693275 13.190850387172686 -1.3926783936301368 0.7087649527280889 -0.27908090686240966
Ni 0.8903201136088749 7.653547159195957 9.268049573166188 0.5546648563151544 1.0676297617883614 -0.26210802645349696
Ni 4.363289133796707 0.555683991753805 2.265860118206559 0.1720978185419359 0.15774977735037995 -1.4047458663176324
Ni 2.28672527688041 2.2957934825341972 6.695809309543749 0.8365462087408366 -1.438007713694556 0.2207099231226844
Ni 2.797840648948379 2.0945345548210614 0.3984956228880587 -0.09206914732311886 -0.4432970086634237 3.4790352779688853
Ni 8.755900333590686 0.9709148270656749 9.35119995554633 -0.2686957069733437 -0.39985307854717583 -0.6225874882990569
Ni 8.221456196927086 4.130360533546488 1.8663858656119041 1.2911087630157505 -0.5575779161968913 -1.846133830883801
Ni 6.856824737384399 5.015675181760476 3.3608942839771654 -0.3643649129428951 0.028778357684273018 0.9081288060748295
Ni 0.7501486699517175 8.909065549288204 11.104064775193038 -0.04988737174874634 1.2219391459986246 0.37535997850181807
Ni 8.185118930210844 5.001442241719101 5.5999401323489835 0.7812291813360868 0.40624741210929394 -0.03717558060903275
Ni 6.633415451495617 6.8327962939769025 1.3743026778567007 0.3291230590214655 -0.8619312244728445 0.45155924867221586
Ni 7.220381530549933 2.5398617059733324 12.928491086583353 1.5733032758064776 2.0446463919738402 0.09773997245565103
Ni 0.25544721043211094 5.501565291400651 9.034929481872721 -0.8715659193491312 -1.9443800535519096 -0.10155883198110896
Ni 4.535631072719442 4.904453869574281 2.057681735296077 -0.34979087178346213 0.689494020313619 -1.3412547877425223
Ni 7.530486545008982 0.8564363258842422 5.219519238557452 0.0423812931796883 -2.0643991491207347 0.8457975521357757
Ni 8.709749150908012 4.466620646749099 11.55522595875425 0.08692822655212772 -0.2846542871851291 -0.6314428818071577
P 3.668913150820835 2.7280016559639844 2.6393155252999625 -0.24207476195170566 0.2903459382532677 -1.3697865766336281
Ni 5.534017499451005 7.2566359405647685 11.008113032445799 -0.11540010873957546 -0.006778199264098003 -1.213272471462562
P 7.3277361966705525 8.920508980382271 10.8802688246977 1.1752887931299374 -0.07398117947315645 0.9186312482680503
Ni 7.657174441457473 8.488153506149986 13.020696785797064 2.8147848627134042 0.2603056831374356 -0.300459886758818
P 7.969958489261955 3.8775094997584056 8.274962292804492 0.04614821642128826 0.34821658531780675 0.2854592995849278
P 4.215150557984436 3.05328785938049 10.679959066530659 -0.9184885520425988 -0.9682499397364421 0.0018874468306999753
P 5.289875625610621 7.686109842848186 2.884413933726569 -0.9464696106365571 0.03325079163332983 -0.9772688554056008
Ni 1.4282377873213823 2.3219485812777596 2.6109251368784925 0.4916700006501726 -0.031541265141390835 -0.23813686034988021
Ni 4.691116276056304 3.2166904808516232 13.399298514677744 0.8359301724233927 0.16511958745188982 -0.017126632377957602
Ni 3.134321713354737 7.742903508511345 11.959106346603626 0.11849468850449915 0.018062513928665667 -0.9389316503882992
Ni 8.943359017369785 6.180180088509231 2.8993437906897634 -0.32089861422914406 -0.9490936785229656 0.14809399942817075
Ni 2.158122469999444 1.1549763860871618 9.130017673665316 -1.3313082180527718 0.9820757898759409 0.8285948151042439
Ni 3.2755923892505363 1.3688847702148186 4.342352165981639 -0.45320501180575495 -0.43581844089819133 0.22786118945548497
Ni 5.2957032136094515 6.275354819523293 8.335718350054849 -1.4202344488715346 0.6707313949941351 -0.7936992887786395
Ni 0.1406510918952918 0.20438906976621957 6.86122074570895 1.425995519725028 -1.2342909826957582 1.5203146394245883
Ni 1.826575982476771 6.924003109623673 2.0252221622055973 -2.3249922815916024 -0.0944355906727664 0.8296224850378099
Ni 2.7102334966626556 1.2783868396800708 11.787577323984678 0.43413539676881363 0.21773849919918628 -1.9949706220152674
Ni 6.950462016272387 9.131811981565745 2.790201261078823 0.31699645096126056 0.2416181340302613 0.5234490928339823
Ni 0.8720575759891619 6.7788749939624555 7.149477368637474 -0.8444976023774293 0.005273846804429627 -1.2962432560288386
Ni 5.6206211650197115 1.5502488832905597 4.037468044341131 0.6537672563359708 1.9762560763248995 -0.7708010440242274
Ni 1.1596623928666312 4.280681002495762 6.323984338207996 -1.5474983989282318 1.199703474528876 0.9199854483030995
Ni 4.216770866811915 0.128804424854385 10.239523222651341 -2.3883342361833577 -1.0359370586707708 -0.18460623542159174
Ni 4.57276008124911 6.119713109083776 13.25346611705458 -0.23653686285261197 -2.806949425829385 -0.5628219382046501
Ni 0.21972124204623678 3.7726221220796283 3.871530928437015 -1.1031174131720098 0.6745165730681802 1.0022936595847125
Ni 7.647332906590571 7.158248210796217 5.140815499152722 -0.12055337080574077 1.4208247741573659 -0.9312000860719963
Ni 1.345224578813567 3.11726243916543 10.345310055855371 0.2860290560454687 0.6145612755604707 0.5053179304509103
Ni 1.9025647839654598 5.545902832952569 10.814204414777317 -0.7984337181398313 0.7577059014031661 0.2778732597075537
Ni 8.69094067968904 6.889240120234129 11.024551802004584 0.07989651651632693 0.2131673348887361 0.03151735388199088
Ni 7.01381056764671 6.103252244404617 12.428269529490132 -0.36281350929537515 0.14853725761317643 0.49816794966969047
Ni 7.082148933705655 3.08227849857214 5.3329997768019615 -0.629284183592942 0.3787376367247993 -0.733956107281736
Ni 1.937134441051724 0.21658465558304366 1.8115862845625619 -0.8941188649489826 -0.6233961002432813 0.12320443527534267
Ni 4.107215894953979 5.108189292029415 10.127119821525097 0.6776726021986587 0.01685872342855161 -0.0830772282371537
P 7.47469636606284 8.547405253954832 6.860627859978896 -1.261837267745143 -0.4608733269842901 0.08782451311415197
Ni 5.372603438813596 8.640149521727675 7.724158560763452 -0.43401609758212994 0.41533626178443955 -1.0694462461718097
P 4.094612470040239 0.464211114032523 13.329258824349944 -0.1558237639722607 0.019870513671681907 -0.0010536380754949594
Ni 1.8577761337058922 8.292593278233495 5.503692867366733 -0.3265586407283989 0.5339487068137255 1.4782069116212606
P 8.489939528380276 8.1215862528334 1.6723014076104394 1.3764483049245197 -0.512359410678724 -0.5611005846381691
P 2.141670811620442 5.855473882002562 13.073152442826654 -0.03263578375715025 0.6333059031578254 0.5065852271991083
P 6.346234124425329 4.568985498185097 0.30516583442528555 0.3130567495872221 0.6893145573129612 0.4234378078456513
Ni 0.9991873748451471 1.2846471237862385 5.019910079832295 -0.9788207732737528 0.5772864503694122 -1.495435102574089
Ni 5.463138194548969 1.5613700938791635 11.78526009823538 -0.510647827304256 -0.44722411163197173 -0.09950117812113186
Ni 3.077343921688455 8.318739170676901 3.6599977697496398 0.43705359885687306 -1.6781968285877742 -1.2596484876239402
Ni 1.0805250367245467 7.822602448962955 13.24524673227519 -0.8119484647968146 -1.1733334691757793 0.7186739843116848
Ni 2.7204524898359588 8.561932795601203 7.9658607650624615 0.858760797164663 -0.882712422884254 -0.8680995580670856
Ni 0.3275638420751317 8.225516175295938 3.7203082420724405 0.017506898535511784 1.4738920862959906 -0.43176689653663697
Ni 2.6944078666942697 5.923968755164161 8.300415871476156 -0.1038064903647051 0.728395582474823 0.16688439266179647
Ni 5.200823084200385 8.684597538881466 4.78728897000729 1.134527294941859 -0.13153198130443156 0.6928842769420905
Ni 5.120415258636755 6.187775286138038 4.389593374602799 -0.3322356365085181 -0.03599904380242832 0.7315117595063014
Ni 5.888469261762128 4.209534714889197 11.521459091041597 0.1145362180773834 0.006839905739968865 0.3433731411825764
Ni 2.509075838251237 3.6386980737084196 8.500455885048622 0.8735819213378956 0.14656136483372822 0.1978093643754271
Ni 4.3794830157713385 1.5998156033311581 8.204599461341214 -0.9854722171519995 0.7991369148544432 0.12982348325375706
Ni 0.9009368189489229 0.8073759523522309 13.164885858842355 -0.6998509380679108 1.1580935122975733 0.12886420466428128
Ni 3.3498227874094044 7.734581013170205 0.8979604221084464 2.73973230455294 1.3778562410156399 -0.764973895819489
Ni 9.039251839796025 5.678602443403011 0.09892077454759032 0.9248556319112073 0.028023996016751738 0.7349732356923407
Ni 7.240285551487483 2.89399124777899 10.071969480439806 -0.11056566346540958 0.3570233849761593 -0.3015700891038613
Ni 2.698071974156409 3.8844694626764387 12.43764798745918 -0.40730773505300827 0.3085868867413266 -1.1924141399563142
Ni 5.675969441558359 3.9012433415609062 8.211740788372323 -0.4119794294970647 -0.390423814813476 -0.13680968476360308
Ni 6.7235911615249 1.8333702319919942 7.4068505370622475 -0.5649536398356722 -0.638085841044972 0.3489976864582054
Ni 7.448495235818497 6.367786073090827 7.422306073764356 0.5875320393568205 -1.4455297331032135 -0.6073380183391541
Ni 6.1021659009861935 0.8373645544808054 9.577488051493932 2.3011884943037852 0.7440952525982669 -0.6621518808552402
Ni 2.5906896891353206 5.61413072340964 3.7810781087730323 1.0988892340232752 1.3139717836568532 0.2462008683049373
Ni 8.898938619116462 2.3929475680818264 7.020527484240622 1.1289968520419331 1.3294853059114198 -0.13098176522791635
Ni 1.6726558501664506 4.652541878402124 1.7878441570899208 0.2206893542973941 -0.3091399310313192 -0.42665451501073615
Ni 6.237157880175513 0.9691103922350737 0.6376927929145862 -0.9269042869101198 -0.6902370691272306 0.5318787116585744
P 8.487904936045771 1.7591306275329701 3.633534259950847 0.5719642668255505 0.8121945193693496 -1.4908875924127225
Ni 3.901307785661999 7.295624621725975 6.082537148423311 -0.4795873584540256 -0.670534962712613 1.4342143080903944
P 1.0462223623428102 6.307227030663811 5.036173009058097 -1.4402512583130938 -0.29098948537453756 -0.4859899195462597
Ni 6.95953942822633 5.442691001902207 9.711099085659832 1.0674577549868713 -0.19715090485582173 0.8350917356824972
P 3.826018662985176 0.5306980931300709 6.276850843298663 8.818883843210619e-05 -0.6614201448955382 0.9912219751515833
P 5.9249538292808674 4.95704025606609 6.258377481405375 -0.4056732847733787 0.2563641819911843 -0.47592713599361897
P 3.6737924899035836 7.302851567348536 9.670299525257915 -0.28079917510509705 0.08768155977838447 0.24563496849913827
Ni 8.581450151932197 1.436274887357683 1.345871781714543 -0.7330909310679633 -0.4801113492782957 1.1968354089524613
