# total energy = -381178.08638403856 ev
CRYSTAL
PRIMVEC
9.09068552616164 0.00000000000000 0.00000000000000

0.00000000000000 9.09068552616164 0.00000000000000

0.00000000000000 0.00000000000000 13.30513716812436

PRIMCOORD
 96 1
Ni 5.176263606944074 2.6425531923354093 6.309163017773636 1.3409938207716516 0.4930550539231573 -0.6076702048675922
Ni 7.133815464002975 8.012457491533503 6.768935346752452 0.0653373877552294 -0.08237737395665168 -2.5647445660577186
Ni 0.37221630046487947 6.8043872021419745 4.637837757780712 -0.8214409776682821 -0.07019908672290491 1.3863069428861545
Ni 5.543200037259142 7.137506282323952 4.757384817706843 -1.0523658936507552 0.9838737623166282 2.0752749154929746
Ni 7.464734598289198 1.6457504344204974 6.761976426987161 1.6634829194163674 -0.7352894813811788 0.029243213135833505
Ni 7.70971948235819 -0.05036330684740134 1.8649141353394807 1.5145134593617788 1.8651674504764844 -2.220009511530609
Ni 5.501537425522597 5.998552474938306 0.45994777920934543 -1.3104378023616656 -0.605816439488305 0.8383657784480788
Ni 4.865662154794265 3.9957017319349997 4.11853871095069 0.8080295893583825 0.08306977203798598 0.013708350725028004
Ni 4.339184193609376 1.6863767080078038 4.072462571394355 -1.4568706120373296 -0.3615953206175579 -0.8630835929097329
Ni 4.406164364518141 3.592502557082056 13.151888367957621 0.78645032052571 -0.4298018023904662 -1.4435206730929848
Ni 2.247590178563267 7.378064002544875 5.962125188992524 1.3438022367547244 0.07274807839700374 -0.31159559166066336
Ni 3.000180760678358 4.425600250159149 10.157035658062327 2.6574593173846366 -1.6357875103836281 -1.2074314393007528
Ni 8.474400676214412 1.372575334555078 4.071478050152576 -0.6652292342289833 0.23206931399956163 0.8635767304960675
Ni 2.728360172955366 7.160896616166006 12.46799155097175 -0.8192306002805246 -0.2430335263205492 1.1092592644036896
Ni 2.9184282258001644 2.4056226556368263 11.487362940733394 0.7640069039205294 -1.2855518377532633 0.7986918568972244
Ni 0.15844428512759917 5.040476037337094 8.456638385777572 2.102466902526734 -1.124466054051115 -0.5120727326762408
Ni 2.76956825041593 3.4811325687808496 4.986260097966466 -0.4681526342545228 -1.432843910105429 0.19672024507630637
Ni 1.0009481105118716 3.8745319846436126 1.9383186937049817 -0.009072908835545665 0.9022828888170139 -0.9346116828567065
Ni 5.491864936129691 3.0322617898771953 10.73832318038228 0.6422183751561069 1.5918219034359553 1.1924653049092238
Ni 5.720395679408119 3.860841412251023 1.7842052111589428 -1.4747572625097634 -0.156546243960582 0.6445488230614965
Ni 0.8665195983900782 3.238447628148329 10.511909657761375 0.1203451114496766 0.92303374821112 0.5717282395553444
Ni 7.905569211193484 2.2202453965201663 11.377834725318468 -0.16484370808268384 -0.44663995699372755 -0.5902880048354028
Ni 9.082658444334053 6.451086800106378 2.2666369828640334 0.050817082651867324 0.9633414466912311 1.5346372266948474
Ni 0.4414027807492637 0.8537226403840699 10.135015290528086 -0.37687718647729285 -0.7245769800596812 0.27819207649955313
P 7.665884196782447 3.369044416323591 2.8558143111464855 0.3543448097027317 -0.41873114639860143 -0.14203596615954894
Ni 1.4004110136162395 4.852435207363176 6.2138053629467365 -0.569030123897891 1.896593787306566 0.7874746480251663
P 6.782478650039622 7.067135285716358 1.958316383711103 -0.07815459412455572 -2.0101812683174347 -0.5778744616623983
Ni 3.725681099944898 4.461744815785269 7.338235891146193 -0.5846994550040318 0.9292054242394707 -0.7882426365394425
P 8.09540999690029 5.4704472810453995 6.030473508071998 0.6878539136070347 -0.3746213005635806 -0.12668056674940117
P 4.818063325413388 5.215071743427451 11.449336603204708 -0.5474395422113089 0.2096364389173422 -0.3387150735852747
P 1.6980218761584729 7.5526597086352325 1.4319120570789234 0.8387244473390781 0.03709844751419417 0.1384384786162777
Ni 0.6966428671529697 5.881373538590044 0.22350723046027118 -0.025315338836337044 0.18966950887711206 -1.1533166597342202
Ni 7.895687636033626 8.76413900509663 8.75416834121868 0.47769374097573863 0.2790176577246421 0.5660502153339607
Ni 0.14573459770257943 3.2894100111714755 13.142402237617869 0.8920540120001539 0.293757535037978 -0.6513673886452267
Ni 2.3877230958486395 8.902071976486248 10.747291141647413 2.0288035114043126 0.2528469128665452 0.5839183538636331
Ni 5.765158214906866 0.4784273247336857 7.747567642450692 -1.1870685593736847 0.6410045573536638 0.5091133929376006
Ni 7.282620895274092 6.759779208297062 12.65994410292477 1.4278315444925023 0.4746675525549051 0.1534172114132971
Ni 3.566012299477802 6.814241505245272 10.087781906705098 -0.03997756883420212 -0.07756966815536318 0.6297518672579799
Ni 5.807966253018888 1.489963356670291 12.321036074203882 -0.8790362595842475 -1.4952813506050442 -0.5204095346767101
Ni 2.014577727323652 5.477592559863844 3.5342167178042816 1.1714537356545631 0.3162778276276811 -0.06902229280598435
Ni 7.054126514737741 3.265719684707273 4.942379358963125 0.23208834016295513 -0.12650753150664665 0.36136649243620345
Ni 7.083762149531793 5.685223817132601 3.9918872802909555 0.6751349233784695 -1.3166575580191324 -0.8594249131112232
Ni 7.187605050222732 2.3978955729451252 0.48496534575941647 0.3457123308387143 -0.6049417501928356 1.5206319135546909
Ni 2.519510763826975 2.187255298769364 0.6476531628875873 0.20766903077832624 1.4083029875412714 0.7121945472349283
Ni 0.28455118372470684 7.825962078097927 11.794605384583694 0.640576982897942 0.45020993373317303 0.6902111009853016
Ni 0.7621585286245203 8.866309219651953 3.200164933287988 1.197470471433299 -0.9471717789099043 -0.5207309225718709
Ni 7.926277792807242 6.677272146520738 10.357649815178469 0.7111301105261558 -1.4557807214072604 -1.5557637242608173
Ni 6.661372537546874 4.3891284198543215 12.448632027089106 0.726683999100355 -0.36418185039781154 -0.8356998015801415
Ni 6.216901650434729 0.7495288392320735 4.956975363633472 -0.19337215453967987 -1.593542485671488 1.5405242816032436
Ni 5.440029847296659 5.348195742177174 9.08911192198445 -0.9928137451187352 -0.9737212472636586 1.0177699008434407
Ni 4.726165585495267 0.8405947814251463 10.087914630713685 1.023872671307069 -0.5719961485047503 0.9866757505417975
Ni 0.12841775085620216 4.154952360868192 4.174100980846778 -0.3587689069123563 0.28493145210591575 0.5869365718646665
Ni 2.9690451627735635 0.33012642650890967 2.111312621006777 -2.2201961736201183 0.2997749448766515 1.227720528567092
Ni 1.1307085556193257 0.3897513237637283 7.578619070205139 0.004279858322276501 0.12759613658513508 -0.5213076210109474
Ni 0.2970299677375275 1.4198287178862075 1.2582590550769535 -0.005545098187945289 0.015914357237411303 1.3508226339366154
Ni 3.50616831670196 8.915089838150383 8.369862338081221 -0.40061103975912293 -1.9149694616002764 -0.659613944924735
P 4.32719357940896 8.877681667237033 6.220217932512296 -0.32108167677422766 -0.2635123630001913 -1.1455874094107625
Ni 3.985383803870199 7.525260382479013 1.4352647018985698 -1.4387865008421092 -0.2967770385905921 -1.3387443626158428
P 3.502468407695463 5.477210751072018 5.350673863049831 0.6594123704368902 1.5696615652888322 -0.3577569207080742
Ni 5.438511702814877 8.592352320831843 2.9206508984097184 -0.9958833851829946 0.45396888655497303 -0.004735200692140232
P -0.22365813583989733 8.926107749000197 5.816553314560747 0.6908788164762876 0.4541257238478114 -0.5081026922848991
P 6.824250350002405 1.5605161669882786 9.424148227742522 0.25001072896933074 0.4203085181880504 0.3476828243015238
P 1.034474558708333 7.710374011715603 9.661725112181552 -0.7828093813390131 0.05312541907006979 -1.7773660772907842
Ni 4.958014428988367 7.050190247907734 7.392600008690792 -1.2106576595475342 -0.6750408210027664 -1.9945139940938232
Ni 1.2132247080811696 0.9324952485489229 12.552345840045666 -0.6268614330840624 -0.11459252523661556 -1.132533918660914
Ni 3.3037187501794016 5.02381281077958 1.2103965958160074 -0.939407304473137 0.1259074360288025 1.1232890030238782
Ni 6.938856622348606 3.765771023086545 7.550612486256208 0.9918318408214403 -0.6125694419414225 1.1869225207141236
Ni 2.2472720045700796 4.513261730625113 12.52340746083097 0.10887593446781249 -0.6073914972849087 -0.8887815118964693
Ni 4.716638547070677 1.3627301221372992 1.2004495677204086 0.58642363678399 1.068923026678488 -0.09147213716906827
Ni 4.924006174459365 7.7195556040904485 11.87930511970736 0.32762179188559065 0.07685361592494507 -0.10509152772471578
Ni 2.78712236415437 1.7645566034767757 9.255346015533837 -2.0143292290475374 1.3543872113594224 -0.4663479769456162
Ni 4.707447864010312 3.0946238925419802 8.76998795215997 0.27202528556720895 -1.9768991092255372 -1.7588219957400095
Ni 7.328519766462794 6.122103981835841 8.007683063498584 -0.9165602246716344 0.3334108877635419 0.013873672658298686
Ni 4.492771325463828 5.939199389180525 2.9806703314160896 0.9201705677307119 0.11651236796714773 0.37223557394022344
Ni 5.850456117137721 5.028758143702268 6.098995459244896 -1.0729120932332232 1.4864362415095884 -0.49157127028877917
Ni 5.5637086237914675 7.63018507474679 9.380720204878061 1.654390727307112 1.258906210141277 1.204758263343964
Ni 1.403701841774352 5.760131065814501 10.521702144203141 -2.3036726941782195 1.6270632431367529 0.8677686570902282
Ni 9.179228796609273 2.392532068488533 8.487227633482634 -1.4218892108661383 0.34169292526667605 -0.5059722762054576
Ni 3.282419274006866 1.7011308906061922 6.714889403201041 -0.8318256633367158 0.8814140157878046 2.7790552705222784
Ni 2.439958174844536 0.6152803226835692 5.116703253556445 -1.959500454133116 -0.9268711196793392 -1.4391325713276182
Ni 2.489602408467334 6.43245998547662 8.065228011906507 0.10872115405750309 -0.3743266521412973 0.9164072440335378
Ni 7.598094954862432 8.017084650463005 3.6876783981985617 0.42969253050611156 -0.26849541803707955 3.8244568170400584
Ni 0.3944521172459382 7.206522766789119 7.448122279570593 -1.1609494936891298 0.08146051856933713 -0.11022062142116501
Ni 1.4622731285774437 2.1717465892728445 3.373690665692683 0.7873913442827407 -1.288548458487742 0.4231233619290261
Ni 7.588976997286226 4.390082941833884 9.825178365030478 -0.6354545740697122 -1.5011465511365696 1.3512419808622211
Ni 7.730973505103126 4.819790555662122 1.3109550318286964 0.4720607110596773 0.7189496065705747 -0.7099705430004161
Ni 6.322826318109667 1.6514321128702771 2.825039613456821 1.1667339615813905 1.3291441205219174 -0.19072597516608444
Ni 0.6677235783778659 2.6539620026625674 6.159227614292426 0.1931654378455125 -1.1757634187735106 -0.3070478243889809
P 8.836137234412242 4.857853255932887 11.74737200076071 -0.7960263942499194 0.673434395747595 -0.7165314840473853
Ni 5.956853500459681 8.55474415483706 0.553450025121684 -0.18622063109656314 -0.09728231609294213 -1.9691657451370217
P 8.052492870562034 0.29322824305321077 -0.5114837844887813 0.31601814620839125 0.6900444935004503 0.7991639114376367
Ni 3.356108370829132 7.904023794655144 3.9059757567875226 -0.18144789229826816 -0.5996496485559608 -0.21108499843841064
P 1.9155074365305291 3.4662329352141468 8.168821827814208 -0.0832911440201727 0.6242088259525637 -0.43518132153482475
P 3.829760358459347 0.5833892888120924 -0.6565938520961611 -0.6728936927527767 -0.475143206639743 -0.6539711448166607
P 3.2083120056506966 3.2569653545518524 2.7720454622200337 0.4450217046640142 0.5257995953440299 -1.1547094263166888
Ni 7.060017278954473 8.581507133006903 11.006422041453526 -0.62997966699807 2.351682903508911 0.934658476934242
