# total energy = -340889.7065690483 ev
CRYSTAL
PRIMVEC
9.09262318072677 0.00000000000000 0.00000000000000
0.00000000000000 9.09262318072677 0.00000000000000
0.00000000000000 0.00000000000000 13.30797312143100
PRIMCOORD
 96 1
Ni 6.4157550474623 1.9429572240886928 11.538305371775706 0.945844061237416 0.522308808581952 -0.47316782808092706
Ni 4.778000819296396 0.2543852331892822 5.851529580433271 -0.6497180259672617 0.004712832094637045 0.4757569289643419
Ni 2.780251446800662 1.7578041344749245 4.539269446495026 0.9860692273060502 0.31243042885713285 1.160822224082646
Ni 3.592068138839461 4.198418820663542 4.825018774725006 -0.09934305527671279 0.17494711506527288 0.34294299562369324
Ni 5.251126383553274 4.56110538150988 2.9660810275929044 0.893495629542687 0.12711251208049723 -0.12944013177240934
Ni 7.375381424948303 5.7157594375857625 2.6021878756258205 0.5496100675000664 1.2903721419600422 0.4743392226812089
Ni 5.209454890664215 4.794067484785152 11.392556984045708 0.06852606989585619 0.2038198322355651 0.27260609777134337
Ni 5.670605469947302 8.180878743747325 12.49991303189329 0.38777763543988053 -0.7980333973776191 0.3489915158106183
Ni 1.9228898043186398 6.846872691765555 0.16292799031882468 -0.286769533755919 -0.46967755553948143 1.8770603452593284
Ni 2.763648316533278 1.6319622270813896 0.35237916299797756 0.04355911553787337 -0.7178052085534864 0.16701937557776397
Ni 0.5026256715074263 9.133812950435521 4.3752357931748245 -0.6101690600300459 -1.400446724721646 2.0858843155777045
Ni 8.719625770840846 2.3294119024152837 1.450117033848385 0.01904853199101881 0.8485905414998804 -0.621878120936858
Ni 6.971568928614901 0.6342259372790194 4.67037961986716 -0.7906625588348447 0.5159574124426276 0.5545632977402837
Ni 0.8450693249527365 7.208677268145335 2.509697710740919 -0.29212874118530335 1.4001991274872143 -0.11032243710635192
Ni 7.618754581978314 3.8585092813504986 4.283171163063479 -1.229901852489127 0.06658077324402728 -1.1454817370708337
Ni 7.678093042068647 3.8610734011398753 12.725310072527561 0.3040203504165667 0.024313122824067807 -0.06832758073180491
Ni 7.996953158288046 8.57877194226908 7.602086894085027 -1.766088447494436 0.02960702423315546 -0.6251459930548524
Ni 6.9666680046203115 0.8103391407417289 0.6372965161899151 -0.9480035307825804 -0.17107940457975052 -1.6750302579343346
Ni 1.8779904301344437 6.388886345414041 9.081933169292798 0.982919883043791 -0.32248524198997364 1.3696472228422862
Ni 0.44698609060262 4.976429139025377 1.2810624339051553 -0.663051252741058 -0.9978623632862362 0.09647576103124675
Ni 6.44573342670193 1.831608958341494 6.985355164163318 -0.2758001792286089 0.7636934864451687 -0.1461322477161096
Ni 3.185455114509151 4.52840830788364 0.47256454939515996 0.311508945484128 -0.5169346887542323 0.08076914892926734
Ni 6.0303369281995 5.8342545052990955 5.0106919623953425 -0.6287501654663429 -0.3606545539708434 -0.3801959664378807
Ni 5.087259125240681 2.8126120933623384 9.35905814425957 0.8519018652613005 0.3860423979163287 0.8261970042960287
P 0.060542323424068845 5.684689943542142 12.620004764269794 0.21092867536620447 -0.014333128793220476 -0.45012997242485703
P 4.08657046063118 6.206852025615012 12.820875362635041 0.09797599972585706 1.3177500197523626 -1.6192429757613855
P 2.444269920781984 8.650512740631434 1.5998043460207887 -1.0579027643085845 -0.7302740304444584 -1.8262358064082937
P 6.604699761019934 8.01118311385675 5.806933899869518 -0.54793756489365 -1.4146857511391635 0.6992755251804151
P 4.834611492376753 1.12601229247114 12.712188507747243 -0.9455933786791908 0.2787381788110103 0.0994960359148093
P 3.9810232885918633 6.268818253858289 8.394682689589201 0.20759755411044245 -0.506964722025714 -1.2769000756155364
P 4.690311559549051 0.8541273963505284 3.7946754282677255 0.31929578851839846 1.8136127183276445 -1.0342010498162706
P 0.2655491561587751 5.431669513120183 3.656977649266501 -0.926848751081836 -0.46196218917309473 -1.2818347939129924
Ni 1.5111394477862097 1.1315587927247566 2.7223850824333793 -0.3806641643235508 1.2583655071464586 -3.038359766088709
Ni 1.7142777464190826 6.566501650256911 4.728987942301156 1.228948487436922 0.24237969478663415 1.1256734440956548
Ni 6.064497914187759 5.723815501888556 9.212484146327887 0.34091825188418057 0.8772544850934763 0.46141120176563116
Ni 8.919536188178581 2.3800578145671616 10.243186651408148 -0.6946909911335262 -1.3819805475966587 -0.8614074907588907
Ni 2.5428794211925974 5.161618599132613 6.932176956403845 -0.9169890846789368 -0.40443684126311635 0.10136239969958671
Ni 0.5315193007794231 -0.10090266002366587 9.168328548735078 0.9875733226554024 0.7552641247308928 1.1360684141767339
Ni 1.356282979229902 0.9780389398033373 11.589860546264244 0.6531933861103718 0.24293813839326547 -0.5360796371137994
Ni 3.9371241029779913 6.87684197838182 1.643854469182546 0.5135164071013026 0.42403610355128263 0.7329353793267055
Ni 5.4523006755389645 7.9397241868187605 7.76544223770208 0.660923664875094 -0.07489186421288392 0.9771176745397172
Ni 5.51586720549476 2.7013729390955383 4.840695366671335 -0.5156640495719248 0.11234280997049038 0.18321295461849094
Ni 0.8358875938771592 7.369098422201992 7.267284681316995 0.094066894479438 0.20087694755715726 -1.6080399079567143
Ni 4.889694604731525 4.326133808470593 7.58763416924384 1.153294291136717 0.8070893369323003 -1.5995285280515936
Ni 8.660078180413082 6.750090808651626 9.3275185615879 -1.8662336869574698 0.03247226159609246 0.17985509388985152
Ni 4.713515934380576 0.41673766044900207 10.461464167946385 -0.5528979942227187 0.3561219562078125 0.6261615788035604
Ni 8.210029694260596 7.0508202338780555 4.628912711003849 0.06855229514810131 0.7481671086747954 -0.17560711724677497
Ni 7.314679071352982 6.312790180459093 6.966165182548139 0.7419542949958642 -1.4020711476989467 0.9365024721215163
Ni 2.2850399003863493 5.265210857148114 2.6854690315650447 1.1094245863369605 -0.8543428706026254 0.48339181980178036
Ni 2.556109188190978 5.3736494834180055 11.434649465396639 -0.3098855509480921 -0.35364187009843606 0.20636008215891555
Ni 0.7712663196108402 3.2429204941859684 3.5901714176051915 0.32008665985081003 0.5604853196516735 0.1518742924062094
Ni 3.8169650851885724 2.930070602011882 2.5143685913643337 -0.636372200787975 -1.5845240842229613 -0.15358613289099354
Ni 1.3324875838795496 3.2469212484672654 7.893624586350175 -1.0202247901418366 1.2038133829321913 0.8674462407538028
Ni 3.5506421467813003 2.543006717919729 6.977716451273049 0.07407399629727889 -0.40257896211877126 -0.35398665503236454
Ni 3.8743395386317228 6.904510831286337 6.0554207482808975 0.3134861238151569 0.36798451197335336 -0.7111298534158398
Ni 1.0074990395110723 7.252458249655441 11.425121305370794 -0.5372939691368747 0.9990389000928406 -1.4497766813050257
P 0.32733444119705607 5.309419191956449 7.7672253011442685 0.9977070686552947 1.2495119134105708 1.7990417624920048
P 8.438472763722675 1.5425544615177602 7.958074919297202 1.0201245171185462 0.7996925302475969 0.5563802963443644
P 1.821206997210121 3.3814102406824227 10.539515246925149 0.33693304198418744 -0.7494338912023609 0.18169806063586127
P 4.03917970764454 6.087838678369782 3.8439147115847927 -0.24437949882548235 1.2914085536443565 0.47281430139625025
P 7.008494072106601 3.8897151647446178 10.413635150513473 -0.9297327574978504 0.18733057633129027 0.26635728864815417
P 6.510181941124284 8.016174964085007 9.83157177496388 0.5916643163576392 -1.4919844250213272 1.146459784713387
P 2.130201617076775 8.462559123020759 5.847816153050357 -0.031030386943243334 0.32729243357062987 1.045996756899618
P 6.942345237114697 3.9305319510372176 1.5848733491905196 0.22114726777041913 -0.4482160432315958 -0.8504353080181032
Ni 5.280804706221807 3.1701158588897225 0.3042400871082671 0.003823487511148254 -0.31899548366916025 0.08408227246290036
Ni 1.4005913328952704 1.166792708270273 7.066467729429611 0.022714410878380237 -1.8937372916943773 -0.9085198708656612
Ni 6.626394760372605 1.0088993035095264 9.231062194390494 1.7553996003220222 -0.5101899138312309 0.22602516468801076
Ni 2.830879173705807 1.6541300428491235 9.342649596132233 -0.9698198553267232 -0.007625634866057835 -0.04147009421932858
Ni 6.244004484690877 2.085302242892579 2.4807395238430194 0.3166778912795772 -0.18122009255817823 1.0781193484657754
Ni 4.160939027146479 7.24998505609973 10.371755436549321 0.21667200560788488 -1.3630934808841686 0.0033964272760586673
Ni 8.272859721723698 7.139382385468592 0.7380345997306459 -1.352027452877994 -0.6144494325729547 -0.4633747532499052
Ni 7.845679183338173 3.958309915422134 8.316178797966781 -0.5760867736343561 -0.7209082729588423 -0.018811990500180505
Ni 3.2175702602399294 8.49665646064545 12.388272892936023 0.09655675078082725 0.35649785148999247 -0.16629355315533295
Ni -0.034498322315159737 4.62659954761939 10.653884082154729 0.46423144482324563 1.825582489095011 0.1808511392545337
Ni 8.607450076367288 2.2147084586458154 5.793266777687205 0.662633191367033 0.4071982060583374 -0.06612054577815708
Ni 3.8383963984636127 2.847391377739525 11.63218034319934 -1.067467268068568 -0.4125903236081862 -0.3439896917206527
Ni 1.243016169952354 3.2515766716309566 12.738138854835476 -1.0446584977041686 0.4849856466514616 -0.4591028653474286
Ni 3.059558651375417 8.433171764299956 7.950276176235683 0.04100163922334229 0.45387426995863767 0.3964386535489882
Ni 5.686172041150894 7.965565422426595 3.4622291142139754 -1.172344880010265 -0.6294045112208901 1.641279900956767
Ni 2.777587308154253 8.669061692299268 3.84278358923799 2.233781625614037 -2.230156884377256 -0.6406422889182386
Ni 3.3285730062991976 4.337226808977826 9.36222601424049 -0.023899432325416903 0.1945018972687489 -0.09885968788239104
Ni 7.326390370249143 6.447952026803377 11.672104233877342 -0.28211095193798513 -0.5227687789375061 -0.7982408854027349
Ni 0.23311031303614682 -0.014054467937730266 0.3034844901065039 1.810826670942075 0.2241947963474913 0.5779852762086498
Ni 4.479608198275179 0.3719228476621151 1.4744034308605332 0.8712267908421575 -0.4371919242069503 0.7776378644404026
Ni 5.931463741711255 5.679398036742788 0.5478869321016125 0.367889895377018 0.6650865380035319 -0.38268016631231516
Ni 8.118857959763849 8.792494054500658 11.280384017359161 -0.6864536908253985 -0.648542774712238 -0.8122608538309108
Ni 0.10172190538899517 4.874891813890724 5.721656913101329 0.25889183350904443 -0.8623839957395469 0.6716461934989207
Ni 7.914837676664418 8.837020631126824 2.5829442475327804 0.30755356038080583 -1.7812134760613323 -0.5633670120748426
P 8.393946187096509 1.5502559135092577 3.4452077232717286 0.4970402638231505 2.4586173979796366 0.5109249922250426
P 1.8759082193834955 3.1711524179535133 1.6396754994832636 -0.748428332755982 -0.03982690218895076 -0.20971460045344528
P 4.68634717576122 1.0141093766985796 8.206800903703122 -0.4767576023147145 0.05573303189624595 -1.1011019254038779
P 8.444519358261454 1.4784787446534366 12.3367304481202 0.2583357038952583 1.6746481920045673 1.1161446786696132
P 6.197913976845658 7.928349314987163 1.472833134805124 0.9848705790122586 -1.167094687354919 -2.0897319714585687
P 1.7593498804472438 3.2279631287479362 5.600434058378019 -0.4004189783529749 0.476100942567322 1.986345856460734
P 6.8010913331148 4.018948620653888 6.34228755992263 -0.6681381803456622 0.3142299439597169 -0.8289709674967402
P 2.451034832566723 8.704632034909348 10.21283183756114 0.045544007178386074 -0.3432111616834153 0.37401092067309133
