# total energy = -381168.9498097904 ev
CRYSTAL
PRIMVEC
9.16082468083408 0.00000000000000 0.00000000000000
0.00000000000000 9.16082468083408 0.00000000000000
0.00000000000000 0.00000000000000 13.40779291074768
PRIMCOORD
 96 1
Ni 6.251548370441063 5.823994356143129 11.870656299887663 0.3810518866802728 0.8140179457313337 0.555376023449566
Ni 4.060434816236766 7.346257771250734 9.320441162415564 -0.8619409946648575 -0.5110291219030748 -0.2410409213705526
Ni 5.620880549042215 0.8951573223846021 3.3885780944461126 -1.2266059553466746 0.5091607012357683 -0.15376970965670939
Ni 2.1659121252247457 4.4819335253527735 2.2883621218590493 -0.09923841137804844 -0.8978384798924149 -0.3385908893025846
Ni 7.600324085797762 3.9035098876945225 8.27211210140254 -0.012576036892797696 -0.8230623153217889 0.08139007034271789
Ni 8.399725138884852 1.908492948806937 10.601542200766252 1.8472103517774314 0.2348867288436987 -0.22482651639421924
Ni 5.99491702495464 6.263402477710979 4.820758539044659 -2.6839468221522034 -0.33032762085252787 1.8648892571144335
Ni 0.010602738604482985 5.2771114382146465 7.024611136192965 2.0649678771400115 -1.370880323918439 -0.21195943062356398
Ni 7.123869588805228 4.04339568213936 5.946316101230463 -0.1475000745979137 -0.9292751011351416 -1.7281829306979142
Ni 5.90983128436501 5.778098623977534 9.085415622181149 -0.552604631352016 0.0869325974275019 1.0553028647918923
Ni 2.1959138263908784 1.734739585137308 7.143537879615514 -0.4299419275127563 -0.8936378115475061 0.7164206695011339
Ni 7.431041204622507 1.5335129079418066 5.291117423226218 -1.9015521597531058 -0.7877343294444563 -1.7449007576732272
Ni 8.072628729163348 0.26123191169272303 12.632527286001498 1.8944934531341115 0.1497248501633744 -0.8419912910158079
Ni 2.581584549778414 5.525250699126717 6.868437395282971 0.3252257808495883 0.33650546752846566 -1.0906539905976766
Ni 7.607451207479365 9.124886867926039 9.344266635512627 -0.0013202614733203069 -1.4370713179232155 1.7634260701709243
Ni 3.3095128479042324 0.8927269555695256 5.210697290698852 0.32104825243313095 0.3497019116140816 0.22337564288030562
Ni 7.405445860177263 2.183610838706568 2.8964988947027512 1.6354509529798158 0.9849906495298906 -0.6345824558774039
Ni 1.4457064023914616 6.607418930807706 0.37333842106391796 -0.7205272354703397 -0.868086445440963 -1.0918413260375586
Ni 3.4852449497271087 3.047531580744215 8.839154330349706 -1.878351039046294 0.3935536186917093 -1.2801635768581565
Ni 0.6578186738923391 8.110618669540738 1.6717909776371311 -0.49591000687344916 1.2633596179269402 0.949840583991319
Ni 1.4209538538263042 5.475736441171619 4.641858624011631 -1.3819818331482392 0.7539263797560758 -0.06641210887664692
Ni 0.996047317890816 4.83498255168608 12.57156199706696 -0.3147714182854837 -0.7897035373556851 -0.01720145147995102
Ni 7.823564224948139 6.7963242986693295 0.5242071283417561 -1.99953895811224 2.9164097720457582 5.409843249263316
Ni 0.14428848683581277 5.877438607930371 2.321251314996957 0.8104369132482945 1.1115020376912794 -0.47971231406766407
P 6.684131677545169 8.297123901309071 4.044340163174544 -0.3385790622280427 -0.4879061627323661 0.3760058396159331
Ni 4.653268431279545 7.883265320062547 2.945236314716204 0.20520617106013048 1.0242832764819263 -0.31526635564403127
P 5.183423683153261 2.6043950034894583 5.3389699075655805 -0.08276818163716712 -0.5921602821574511 -0.6877215017942284
Ni 4.834203881579478 1.5850791906484203 7.304311270649328 -0.8259432364140098 0.09640377014273074 0.0397705950297186
P 3.0898545912442246 3.558256723252018 12.3237058056407 0.9306244160741842 -0.7681121843381545 1.652379353304038
P 4.872990813713038 5.320716964184354 2.067160266223013 -2.9618385938025185 0.21666712051187847 -0.19707120065782188
P 1.2264878653210642 3.752292152992431 8.201854987890044 0.41528895348627193 1.6606145967296366 -0.8729692274545611
Ni 1.7109947272983415 3.6430676390981414 10.797429949277898 0.27959384194308623 1.6371730778772449 -0.48262126018434304
Ni 4.306018207034226 4.904559015917157 11.158769522040322 -1.6961783527668595 1.3988004473674747 -1.9696172308521431
Ni 7.038527345121658 0.8459462877298396 7.515134827888078 -0.3143533569114586 1.9247327116346271 -2.359008233525731
Ni 4.251758641841248 3.1581577008303876 1.4134493061636186 0.24334411558243252 0.44179908396165846 -1.5401540427480183
Ni 6.453965954858426 6.534627017077602 2.6698939846093763 2.678596613583884 0.6791990661455142 -0.5848550067452895
Ni 2.2331800616103674 0.5723894023733257 0.677541013568848 0.8005111694941505 0.5349624927902207 0.4969212217467829
Ni 6.378160129774534 1.586783104058161 11.569866114614605 -0.6125301040630547 0.5754630240074283 0.44482887192691783
Ni 3.578941865613278 5.37321765101889 13.607837244829787 0.3379044047585213 -0.27619638622576304 0.17752181777098458
Ni 5.47269504734348 3.612855238961987 12.577770288022773 -0.12020678609959942 -0.3215578450796978 0.14835470928872516
Ni 3.340045876907811 7.281280041061 4.8511404144393095 -0.5017926909064713 0.21931972764337712 -0.3377437108109409
Ni 3.2255080846390616 7.882349237584192 0.08811247709811572 0.004121735477857417 -1.0453457535791806 -1.1397651463020306
Ni 2.7510323257997737 6.765956164511854 2.3529871602946164 -0.5555727128414045 -0.1933482432802799 0.3675661934890121
Ni 5.526643144493818 3.5743248099223677 9.492020662364057 0.6752935604435208 -0.7010979231011345 0.3218182978299361
Ni 1.3945981609240257 1.3987663362005416 11.726938532435865 -0.987972100755718 1.494131296161001 1.5075516833319649
Ni 5.357735857134687 7.374390664161022 0.4630650354888955 1.6430547334690024 -1.951835224278374 1.0838930177247592
Ni 7.76365243086371 7.993607454580429 6.319964158172064 -1.155356315872068 5.234122489256812 1.8869657772984987
Ni 2.913701091481305 8.250174674293367 6.857751293172958 3.6709426750375815 1.9491679618588555 0.027341625237746463
Ni 3.606497626562202 2.5304396650118437 3.4030723514186483 0.045703672684701935 0.41229490385495443 1.9014266899188348
Ni 1.3787499340484806 2.0821180609295964 2.7963161148698275 -0.9857159577316895 0.6927246114357747 0.8319385347654963
Ni 0.5056921853717193 0.525158938036767 5.290741829410093 1.5639575729255195 0.19283068021391309 0.6948529706326873
Ni 1.0182348355165787 7.40714061276222 6.288388627308118 -1.2130153611464334 -0.2500336117874662 -1.474826425184802
Ni 8.567331589124718 -0.12469714695370865 3.412403567543174 -0.8215260811829206 0.7385596674920184 -0.7966627422823376
Ni 5.805260469460765 8.083420180758372 7.944519174977767 0.10354552339383458 -0.34123758289681233 -0.5009395988775566
Ni 3.5751676058024544 5.086813624985923 4.107370302015295 1.437406332665131 -0.6175288428292268 -0.13356623812564092
Ni 1.7598768883433744 2.7012340822763856 0.48410470176927917 0.9131635402852596 1.8486326860462552 -1.0844758868114226
P 1.1283113061157384 8.563474881890842 12.475870769625411 -0.5202786655258007 -0.6279420677427509 0.583782342506401
Ni 0.508603495487932 8.741561315683093 10.285118151917585 -0.18933140881140295 0.5373546471714811 0.9325393737087101
P 2.754458474268822 0.5179402081073282 8.780481995858493 0.8186215059416161 -0.2549297635375029 0.6941526021315528
Ni 7.574353147536392 4.479854018126907 10.443008631392017 0.5737231584981861 -0.3472079415476343 1.7089253680198828
P 4.147572581577912 7.248640022357204 11.449262940256665 1.9819078752940382 -0.22641854347168747 1.5784313410616622
P 0.06943355536445336 3.7383127343727303 4.96337700752243 1.0801433208743398 -1.2672175582204497 1.4435695240530493
P 8.836110188274132 7.299711620525506 8.048014509052422 0.6305234553166819 -0.009418465100422489 -0.6027414001074071
Ni -0.5312463061054373 6.843566672078106 12.103255137636916 3.141354816295712 0.6212721119217429 -4.599809999211342
Ni 2.067021021686303 7.126626997065077 11.052660604654918 -0.503275703209901 -1.9022065055076534 0.45648008301260096
Ni 6.799503104869221 8.080800184870277 11.36271604811406 -2.1439524233650302 0.6283945818991371 0.32966016247185803
Ni 5.414670383164462 8.924557951559326 5.701100975589302 0.0889246881568662 -0.30913196061151926 -0.15599191411900876
Ni 6.3959596123289755 2.2017217893036505 0.6731942022090526 0.39450209864790764 -0.7749425769964267 0.4426066674646184
Ni 9.091935381179603 3.602567632730058 1.491657099505758 -0.9851384879616647 0.408336947648471 0.2532459480771767
Ni 5.005474661732765 0.10482915016314126 9.966897665328865 2.3704583843442015 0.9928317428408643 -0.9411744236758887
Ni 6.805879038918573 4.69954891808605 1.364913424295404 -0.07857471238110984 -2.0258349156942916 -0.18369632201281266
Ni 9.235943546777039 1.132369551494852 1.1036989181697696 -1.7435853812959132 0.8029593739243268 0.40825621500920656
Ni 7.8853906314123305 6.957857122077699 9.789204230919829 -1.5158398914826863 -1.706555068015493 0.5582718569401224
Ni -0.3737424134368726 2.3425969528251116 6.77552098166836 2.13096012487042 1.4103467574441775 0.763944169003394
Ni 5.7142476752361775 3.997939669563375 3.588421487099297 0.34814845108403264 -0.8931125351716553 0.40401903699940744
Ni 8.058493576522329 4.683719012860071 3.623523019422433 -1.6713234985067087 -1.3639316605147478 -0.5400496775051409
Ni 0.2959331159728177 0.2767384398038414 7.874960116313779 0.2578767619809688 0.10614079492483657 -0.8036340313938483
Ni 8.145613020213906 6.513795301519805 5.064900932103667 2.990908514585281 -2.952573880671141 -3.63730878903322
Ni 7.076178334982056 5.966967348540023 7.12853519686749 -2.0283453408209713 0.8254549839236817 0.6531712746231848
Ni 2.7149386761525793 5.432992032731566 9.129728363824146 0.12283933862644007 -1.17529856332195 0.946645216982473
Ni 7.0151672419236 9.12924742052301 1.1147047330647288 -0.8727846222475807 -0.5549381645811992 2.085105014209519
Ni 2.365077616843948 3.327294008809107 5.682852612620466 -0.15980743121035704 1.3019073962931516 -1.6194782317006433
Ni 2.739471364922931 9.392960083567118 3.0565879721252345 0.0216178353800918 -1.1908251982026394 -0.2967657257366824
Ni 4.6844793613171065 4.200650400373812 6.840159761341103 0.34984203673637165 -0.3590087908373043 0.051894631986762245
Ni 1.1712480918762462 2.1199614281104497 9.429781102702126 -0.08576223126848456 -3.2083950456746613 -1.610410207961104
Ni 1.800752488527583 7.695175265606659 8.606998876519977 -1.00834732197796 -1.785347552834364 1.6695311824929764
Ni 0.4476968358320088 5.61506342530466 9.913105302199847 1.2621056909151813 -0.866230880289463 -0.5556238777943141
Ni 4.041536034708299 2.0537378257501526 10.762019697159557 0.2069010422640501 1.9851418088503037 1.8961569568794634
P 4.586504340257019 0.40894837916254095 1.1739624442596126 -0.04148732061050919 0.36625364532517574 2.2016230386036217
Ni 3.0431252240233264 9.29274066043506 10.995154443158649 -1.1307891680556652 -1.924666891393698 -0.06581561294322859
P 8.003629396893636 5.01626611332779 13.103918595136165 0.8148838932760546 -3.475343430939595 -2.0626376863449383
Ni 8.499055962012905 2.822734101380634 12.627566699381205 -0.37574615819664325 0.7254892074613054 1.0065025554597375
P 4.669528895270349 6.3359836924710615 7.317798752978152 -0.5407757570378879 0.23366776883493304 -0.36706765658603885
P 1.1323970339692027 7.724581513161861 3.907205364412207 0.7702971078046152 -0.2338413182983199 0.15373191444023848
P 6.735670477777431 1.8035831833857006 9.448807219695086 -2.2033716458636117 1.750774957065817 -1.3983463905491917
Ni 5.01474541641372 0.029503352297907293 12.591459308496834 0.09548897163794522 1.0474455735310026 -1.7376019100189686
