# total energy = -340856.39606941346 ev
CRYSTAL
PRIMVEC
9.34737113247465 0.00000000000000 0.00000000000000
0.00000000000000 9.34737113247465 0.00000000000000
0.00000000000000 0.00000000000000 13.68082249913048
PRIMCOORD
 96 1
Ni 7.321346922573903 6.431729595504038 3.8533536210811077 0.1521226609715896 0.4664482499689064 -0.5597960068941327
Ni 1.7406300124787704 1.3963569962524225 0.9476841296030492 0.6038012088304892 -1.020580116598726 -0.1681483469758846
Ni 1.5543556059364918 4.991150187702462 5.757450455198345 2.6980272115046695 -1.4622791846474106 1.936299333426304
Ni 6.139353182304724 4.0871566042465055 10.810175513718582 0.5213433593448893 0.7774010658392483 -0.669691126655079
Ni 7.757579373342751 3.668179400089312 0.35202385614529896 0.39727297652482546 0.4642337588160908 -0.3940097323925214
Ni 4.177190480391389 7.9489574443758 3.5026870031850033 1.2640003368347328 -0.5962521928386376 -2.2540974543532535
Ni 5.041196011298777 3.223459536577571 8.445089717103912 0.5786640474432292 0.17466917881353788 0.06587809075004783
Ni 2.163766796669651 8.870486695569278 3.533004265839521 0.5341279127040672 0.7448475573832591 0.3913023607636874
Ni 8.702065767373835 8.130819891871113 4.759899971519536 -0.8199620791299105 1.9595120240973416 -1.2892272297223217
Ni 7.549908834896855 4.248015509414414 4.638988925205489 -1.5053611034385492 0.32833013080652484 0.3791323010600567
Ni 9.072651632577326 7.604899417679283 11.475104478950797 -0.8783744576305323 0.49666591120286724 -0.09253168878183418
Ni 8.522119530905279 4.750819935463978 2.569996991182038 2.7483365012821825 2.075255632219265 -0.7211913514168999
Ni 6.310606363871418 0.18288878881598322 4.547190265441819 -1.2674728687643657 -1.5739000288502119 0.3157191269107337
Ni 8.651159985658197 1.1356401281634407 0.7210589925227483 -0.8296749355423001 0.9502648160129312 0.7050628212861535
Ni 6.674639722100495 6.661702960827186 11.077799154137656 0.9800369050690412 -2.090053873574362 -0.5639269983433708
Ni 7.9811217475126925 0.16857422507758268 12.387205037155557 -0.6572732126067004 0.7259993143285045 -1.3904330492393862
Ni 6.337853949934783 7.7147684147937925 8.404690380237406 -0.42473107273577826 -1.4143857034002416 2.4473173995857853
Ni 7.261757433327264 0.7112797731266959 9.105106638948033 2.3073429439409554 -1.8051864419371617 1.4474444336274233
Ni 5.530558918048472 2.6889581759342263 4.0853394753508905 1.7673835121567756 0.7078295853980132 1.4465666590081603
Ni 1.1787782446925763 8.317795351228057 1.4556398917347813 -2.3828325896388383 -1.4456045522052072 1.4169668338638564
Ni 1.0101049374838542 7.5364953577095735 9.347763451794124 0.7086166000756828 0.04387973210208572 -0.7757661013389866
Ni 6.912932247491016 3.7499034635376836 6.765877539612432 -0.029140111899065943 1.255804945508134 0.5720200597641504
Ni 5.985028089369506 2.1066917501849485 12.566190363899478 -0.2008926312864411 -0.8233649341638722 0.055817621190252256
Ni 0.03116133024337585 0.649685272830111 10.1986695771752 1.2811534515752518 -0.11372940590537188 0.544582789488804
P 4.274047937265691 0.1445411998537342 12.113506540413127 1.1559792941680478 -2.3677417567439867 -3.5344412655430166
P 2.842152236995116 9.125492320061444 9.780528962710177 0.393379040787058 -1.1085336990915748 -0.310741214080168
P 5.585867311440214 8.929440563597286 6.8494402309094005 -0.028205258789622392 0.21197614279411234 -0.921711944075903
P 8.307597369617376 8.444209194768693 1.1480263292929656 -1.2571393480488413 -0.2840508492731753 0.6347158961314746
P 4.675302526268119 2.798789783565287 6.353702417231674 0.7675815086456652 2.026591591354658 -0.3978584167146503
P 2.239302900607234 1.6671409827600134 3.2388387658571784 -0.38107425527777594 -0.6009745380149715 -0.2987876412627176
P 8.045263406369232 4.595111431641151 11.787779642714504 0.566271073095515 1.5031183301509596 0.37761123642984
P 6.203775262287129 2.3491345082382944 1.0662788974174389 -0.27841961912932695 0.05329305499618563 0.9423075088390674
Ni 6.2276951843235455 7.306596771353323 1.98705755473068 -0.05166786068793682 0.20160097020737539 -1.0895522728930656
Ni 4.780703480110489 4.945226554656386 5.093875924004065 0.6443559903243999 -0.57972925548295 0.16633674768844256
Ni 7.795006246275071 8.762375004176866 7.08923768300874 1.7580920595525207 -0.3803970267050933 -0.3740757124727558
Ni 1.8263640980270333 3.6503259217424766 3.6074551400200003 -0.346773425113377 1.0071224484319234 1.7968475830541635
Ni 5.150924797850353 0.5607927106675049 8.765918592470731 -4.131228247839201 -0.6873150103844292 0.5082248196850602
Ni 2.399180331834609 7.279339837919095 11.563591365217984 0.5063692545335602 1.5396657902576902 -5.1169295502828716
Ni 3.8089788473869013 1.2612407504390626 13.550444212526783 0.18074289581144357 2.5147610350507397 3.9123924018107785
Ni 4.571013909558354 2.2045306809997833 10.488361425462886 0.38688469131196596 -2.017951399181157 -1.3688332115814232
Ni 0.47781609952359655 5.486701053962945 10.76835257226976 -0.3040758862448505 0.6429441975785379 -0.3073974944189158
Ni 0.9471410473559543 7.756915710011533 6.250521463969082 -0.3389618994887582 1.2478712924833542 0.8790552857476409
Ni 0.4425914671664145 2.9603123520644123 1.8279223047497648 -0.9346980719229256 -0.45329988551240646 -0.45484923227739726
Ni 3.4706507590289237 4.968520202845032 8.311783122289478 -2.287318935410545 -0.7507376976154491 -0.08493767848466018
Ni 0.23959367941454196 0.4106496314560435 3.091291451534155 -2.711685939938685 1.8445104363477653 -0.31348869491831816
Ni 8.017268030636888 1.0429796408062746 5.606264209398661 1.5078967253762094 1.2855425817818829 -1.5787722693408488
Ni 7.757598068084475 5.146578270399423 8.934001145840963 -0.5688401193742719 0.7045971945036446 0.1530145766582397
Ni 6.394480322618099 4.570976520074905 2.4519864340465367 -2.83878996737875 -0.3532814014352238 -0.7607971387339801
Ni 1.9212492596494073 0.20192470957689 7.927256588182075 -0.5191206406619575 0.10663341829053893 -1.1382674787105818
Ni 3.509358221769368 3.1095524752505836 12.052242937045063 -1.8092109897155226 2.0493111444393612 2.202085837172653
Ni 2.302500475006689 1.0924739695217185 11.37400331570505 0.32310179252805 -0.1525486927654147 0.0013655128889589385
Ni 0.9857737311295008 4.316279358821191 12.820038783878902 -0.6671192521628447 1.3855710931613945 2.2651848225156668
Ni 2.9811289469745716 6.07220167003055 13.235196652301793 -0.18370172132945137 -2.1959367868521213 2.223596200440603
Ni 5.574482213730033 8.519567698659893 10.696035702857126 -0.15219773718389917 1.9815011267739229 0.8299567284487771
Ni 8.016529588338773 6.335750791490785 0.49507508508359566 2.0570540216095736 -2.394870494639979 1.2465299479641112
Ni 6.126322947322793 0.4765299012929553 2.166112052018981 0.36515655560625504 -0.07979007284544969 -0.6971764765595413
P 4.455611268893412 8.467287853427507 1.1771144126791013 -0.2847694726067547 -0.01351628931887995 1.0362818436046992
P 0.9645271571596796 6.827001867154647 12.952113395213695 -0.4949856952869668 -1.5230654626968478 2.3167326126859713
P 2.9656683955684637 4.213420889853346 10.199066840436844 -0.5134539292944835 -0.8784575042626419 0.3990061571658483
P 2.38274765385883 6.792930700361862 7.2471147768716 1.356095709410097 -1.1558522816718804 1.1242032873080317
P 2.5596746895388907 3.5132280333063264 0.4179125386159868 1.1482847537372676 -1.2080647020093775 -0.3887608252887562
P 5.767486727293109 6.107721679306978 13.355369256317724 -1.1340179594056081 -1.8179406562790368 0.32313753086199193
P 5.610329380986639 5.548131975269441 8.622721544546984 1.1858686255283126 -1.1722042406673425 1.0595215308589303
P 8.524792878971873 2.813493197931556 3.5189673190157285 -0.4760379505398704 -1.810560561764882 -0.5827122493706739
Ni 4.202792929183004 7.017061958896123 9.54252433634221 -0.9511855280549876 0.07065751441656219 0.5105256999040949
Ni 2.177656989770907 6.859409201933956 4.399656972175089 0.8389643312640261 -1.7258329424084986 0.9224269678650565
Ni 1.063506467219705 3.3021083150122728 10.919279895896562 0.6058997432307307 -1.704921389066812 -1.4925541814818681
Ni 3.795677538649965 8.140148567991606 5.8643525968011865 -1.948881798077005 -0.7737974076483899 -1.0045071222962634
Ni 6.914867153259496 7.781938621809691 13.123999393787763 -1.8276797379436718 2.276889255436788 -0.7691979612031655
Ni 4.223422576675919 0.9522073223632764 3.5123736836095194 -0.787581863026992 -0.5885702508133477 -1.0357406263892486
Ni 3.8971432493593405 6.105010941756936 1.6738215487152404 1.2297794679786498 0.8793807874078596 -1.0729416609195779
Ni 8.421037062401254 2.802790458294316 9.367655591726011 0.7630309131605052 0.20888850500772413 -1.058759198771609
Ni 2.0047119340781507 2.409051155465111 8.943084920844866 1.0235052606653212 -0.8870691571910528 0.18543798729426772
Ni 0.019299516619221323 2.952170792043421 5.385291427478743 1.7440150126341643 0.9995600627036333 1.9430693051602859
Ni 4.539625438203026 6.464884719952325 7.083888182664292 1.2960205984950712 0.7271480832209671 -0.9924483913595166
Ni 8.364438731830525 2.479997700309345 11.89604930467449 1.350828033253254 -0.06131772507287504 1.1252227297114816
Ni 6.511687005859449 1.5816966657084794 7.314041017507994 -0.6437777492234268 1.1687597337621678 -2.6958422880382087
Ni 1.5412225498750758 4.947488618405043 1.5935696961776686 0.24743114116761258 2.0050632303645792 0.1495854963720327
Ni 2.4759128992425556 2.584398485469457 6.5493382156924635 -0.2647403218700215 0.5797999608198853 0.006965889794871874
Ni 2.562179784929965 8.419261061937432 13.520646663692203 2.324088024609778 1.7350359490640055 -0.43858031991404467
Ni 5.1345949409540586 3.9762220068537037 0.06747119235766133 -0.8628797044290429 1.4013525243653673 0.513942696005444
Ni 9.110106547622234 5.986383458144528 5.2526699949485085 -1.0386418591964435 0.07652708582346175 -2.3928298100608663
Ni 4.32997325713434 5.348902112712128 11.622528407978441 0.5821463495648749 0.7383100133750574 -0.7463017733312824
Ni 1.1284800420829817 0.7921167710802427 5.502276578030659 0.36311561391682623 -0.31143438349245073 0.038147971824631075
Ni 3.9899906841337507 3.1363420401417 2.4381551293817125 -0.622801918302708 0.7047861705859991 -1.3095402302480608
Ni 0.7946433654243003 4.34215288136781 8.606249607613584 0.39212588510624724 0.8882698623673735 -0.4531157945260584
Ni 6.988281404011354 6.495188896287636 6.412666567367631 0.06579812944173184 -0.9833865382675644 -0.19393933989705953
Ni 4.1302760260339175 0.9024269640994487 5.786741376532192 -0.0802011922409393 1.2252954640653673 -0.03986341185384102
P 9.128418047141318 1.5855945193580243 7.454926460617514 0.7044658111321029 -0.006074745439170184 0.28317873108086716
P 8.213703029306398 8.120752773452503 9.570760874242797 -0.10964418009240472 -0.32720398762188163 -0.2925874259892768
P 3.422352893783844 5.251343603023161 3.426580709624825 -0.5138174832814892 -1.2268394115137193 1.5873363568607757
P 6.809475546787988 2.0915677041298797 10.551675841998119 -1.6151508079698829 -0.9690264128911505 -0.05319458174510839
P 0.697279281049266 6.595495533010095 2.9598730256338883 -1.3910236316355333 0.12186849007273849 -0.3508157135035507
P 0.6055423139332868 0.8207402901345264 12.666484849039817 0.3043985596915919 0.3418543905452048 -0.5029394029164048
P 5.576940572266797 7.072987278764773 4.746479016435564 0.08775483621848112 -0.6020747130576857 1.1266985429260596
P 8.928674079186585 5.3504163867918075 7.135273484505163 -0.4214948251866677 -1.1274955849060582 0.9798525569723769
