# total energy = -340883.88685786375 ev
CRYSTAL
PRIMVEC
9.15775432251379 0.00000000000000 0.00000000000000
0.00000000000000 9.15775432251379 0.00000000000000
0.00000000000000 0.00000000000000 13.40329913099306
PRIMCOORD
 96 1
Ni 6.882244817632313 1.8537859273974697 11.744855858143993 -1.5355473972139426 0.5206033958550711 0.617689536776807
Ni 4.594546166639556 0.881692119050522 6.088448826247731 -1.0253402569915309 -0.2354423442368526 1.0343530020131024
Ni 2.6719397141942074 2.0292576613219415 4.93836490148953 1.4306430457993682 0.140964330361925 0.2881579294630134
Ni 3.648101397088895 4.718642897833675 5.164331577937155 -0.5208160260865095 -0.09096742961850784 0.35048275564416415
Ni 3.568969240476956 3.095046287482576 2.8358836667573653 0.9809517035738267 0.3213930373670594 0.11689083435248902
Ni 5.392030901535686 4.846146313700823 2.9039587505891564 -1.269815143744297 0.9516195302686127 0.8673948186905772
Ni 5.356196608187402 3.265215681553059 0.49245641654619643 -0.1536077301575484 0.260646354306306 -0.1770893582192563
Ni 6.220560424177965 8.168121757628699 12.790433320128889 -0.787665938100366 0.8104104308857333 0.12858061198559148
Ni 2.8711941365483984 5.2526681935944195 11.694888402279886 -0.29043155598853854 0.8897335913970934 -0.003988552334102808
Ni 0.4235589663605397 7.482764568798601 11.713531758885672 1.4453073326797625 -0.2885338247451934 0.3015425783000355
Ni 0.8313803316173164 0.6062543370325517 4.944450229353045 -1.482990706163149 -0.911230842038921 -0.4164940295379666
Ni 8.50163801866911 2.6622050211634827 1.3694689230485528 1.16065793059064 0.2760824863557181 1.241600628983294
Ni 1.554162515751895 1.5925426648504526 2.706783138505873 -0.18402285211429598 -0.2891915129338503 -0.766233479258203
Ni 1.9317733646972348 6.772690600580049 0.44220049141542483 0.2038170040220877 -0.23352841504359137 0.002129387638176978
Ni 7.881364991051956 3.9624230047027793 3.679191973607531 0.08805154152329352 1.0995515501976223 0.798468685142825
Ni 7.762185974022935 3.8651127054135235 12.725883056003141 -0.12208934783429296 0.8460790879319364 0.38283957470831487
Ni 8.156024363937648 9.125583305839719 6.819907066993137 -0.25771375404054325 1.175764447214775 0.5244636501414257
Ni 6.776848221121863 1.2469931144004718 0.8330003383879045 0.37634393968164215 -0.9542309997495309 -1.620823689984944
Ni 2.0683337997623004 6.893160860993201 9.49196216889401 0.23947331977311656 0.3016132836369709 0.6077100569665921
Ni 0.003665849125304835 5.011452940133192 1.7441447116774795 0.35435175168126715 0.8353712145961292 -0.26608243772021273
Ni 6.222327870795961 2.401053336161439 7.198188263567685 1.2954649831019174 -0.16501442933259322 0.8511878699134116
Ni 3.672625863632903 4.974904341934113 0.9068832701219399 -0.006527259595556501 -0.4130749765540886 0.09246406876869237
Ni 6.628153761347757 5.96127692109339 4.915458610165211 -1.1198619796202005 0.2974930908210102 1.0237461730315336
Ni 5.228665719056763 2.844270338326074 9.663148989489153 0.9666805383667932 1.8288531894264826 0.31276287249588713
P 0.16039165959362098 5.531851497201822 12.766441834896629 -0.4023354786493974 1.348188281637562 0.5491405840628155
P 4.001160306226735 6.610863920856686 12.946582192063868 0.9607423185054873 0.8703865543290494 0.4183002295087699
P 2.5070085556962307 8.930504819536337 1.6808142604507856 0.5859420691618812 0.8275409199184328 0.3154440188724761
P 6.428038510070811 7.929040260965364 6.030103856569417 0.6022220372688273 0.9941034104644363 -0.4407940397359118
P 4.909508817068257 1.3820058889554783 12.770354943393363 0.23838420047399586 -0.29525417418816247 0.4533276534265483
P 4.229014395876272 6.930286397725616 8.337830516647964 -0.4878655393024178 -0.47909833463274915 1.6699505294185821
P 4.796419706779999 1.6270948725691015 3.9200226013798685 -0.889622519740526 -1.5965411632884956 0.9535434867642029
P 0.24362649022039 6.0349785292883755 3.898523856921798 -0.8367524112143719 -0.4373443906244145 -0.9483385455244958
Ni 0.9122863452753994 7.641431823220363 2.614461068091345 1.1015649810832255 -0.722617285230149 0.5656347250630968
Ni 2.0987558602026266 6.834789333826843 5.03327403754957 1.0694398184139067 2.3011738390157657 -0.37783955039056216
Ni 5.611139335640217 5.855971902127912 9.73303364560963 1.1561690415813506 0.29359324154597183 -0.2528908787306032
Ni 8.860576206194274 2.877659511223555 10.653129723920403 0.5488490209643258 -0.11305089178110853 -0.7591338920989442
Ni 2.605106421872262 5.852556059700387 7.331766017992951 -0.8973589691528352 -0.4637069397783433 -0.9880163237300918
Ni 0.6743202631098455 0.5629454844634995 9.243961019350218 -0.8565234231937121 -0.16612257479510745 1.3849820534271438
Ni 2.1043787214640237 1.7615032353272804 11.577381591222089 -1.1829036293627178 -0.9994741878580464 0.2584663159358516
Ni 3.9408564928614283 7.387276662654324 2.151068616993512 0.6515288539237553 -1.3866645833358893 -1.1292141102590616
Ni 6.280461296345386 8.331010736873758 8.277220834282444 -1.380040136040836 -0.9928803366906127 -0.6082831558612427
Ni 6.650910781273769 1.0518779970791006 5.1798118461395415 1.5487844647295068 -0.12378987546516747 -1.4825595321630014
Ni 0.8875787236414436 8.015883246864103 7.479000731700173 0.7953095706885529 -1.4008239055554068 -0.548107771922927
Ni 5.254307431649452 5.075429013051952 7.537841135896797 0.7733652052069778 0.11038157247906151 -1.2803119295105627
Ni 8.362202048691865 7.418037560011054 9.668550233091715 0.29233905742389654 0.3691808462742997 -0.9701245310513357
Ni 4.633622305079915 0.546686807128835 10.68154532035035 0.3441843242299621 1.4669359666931316 0.39462268338617196
Ni 8.268966950153947 7.891923881987445 4.668717567640259 0.42550368923574455 0.2440054033155153 0.45672459492323925
Ni 7.7396029514323725 6.533453422090257 7.357098198483628 -0.19915713665257315 -0.7316937936101205 -0.73363240539373
Ni 2.3847342176470923 5.374557905954668 3.141933990509208 0.1349510342883095 0.7825111333723039 -0.9934598633431665
Ni 3.409697574258366 4.6798414920282365 9.158219711317512 0.6029828266942518 -0.6532322097681073 1.3499127205278365
Ni 1.0339562715277102 3.5792717142865196 4.087604014029389 -0.03634794250141482 0.13727633998737648 0.04826140610954914
Ni 1.120103268084649 9.131599950544503 0.15599685321032397 -1.2722078123461897 0.9465950804708279 -0.5599201911768228
Ni 1.3919878413576323 3.386803188014894 8.453957254103004 -1.947181784666763 1.533655065287236 -0.8684865090928592
Ni 5.560222220634733 3.474470371818399 4.895005681270741 0.213509034498871 -0.3024455497302791 1.0602247275735417
Ni 4.117189055708654 7.585697729349253 6.273762398930547 1.2691232598835949 -0.6056596021954667 -0.597760401953048
Ni 8.677979739270834 7.424447988159226 0.5909590554710126 -1.4362714477297394 -0.8590549313663141 -0.3166174703552869
P 0.39989166563748746 5.7893767114229 8.335954092751448 0.5223998256338616 0.8281243032257286 -0.3052236266960485
P 8.557747580474613 2.0279938912013016 8.239477149121456 -0.3242564749577835 -0.3255607955915038 -0.33179854897109956
P 1.989091750096393 3.614812959490886 10.543491255526762 0.6419160134243396 -0.25863575163418034 0.36287367310934926
P 4.2553337823017685 6.4923442621514775 4.201961473315535 0.00819539132659879 0.7259118968210208 -0.9957085501680272
P 6.933335929973246 4.093076688117029 10.400397678403259 -0.457739923561631 -0.28284808721432575 2.1340919856311826
P 6.4617482043757 7.990818472804749 10.590053858268735 0.9014686204458345 0.04566587746823103 -0.1512824244584814
P 2.5930456591992006 9.063164051185515 5.925960956649658 -1.1010774999238457 -0.02377781914588808 1.2836651622535118
P 6.919168883765786 4.33154461522904 1.564379822444632 1.5388502363349306 0.10113100041507099 -0.5643923680155636
Ni 3.0452097875077846 2.0849001776480773 0.4024823943847988 -0.44366081976074556 -0.2473622356028901 0.8575562353336006
Ni 1.4419159188773976 1.2930566195223385 7.288553321846122 0.5875058141045753 0.7664941891187573 -2.088510954567274
Ni 6.9960573905258645 0.9006871334290065 9.608409427756461 -0.03280470523484673 0.5063882806969537 -1.1556324523515904
Ni 3.036674760316218 1.9892749051863408 9.206471919764256 -0.8415734867520989 0.8866541811408213 0.9434961298305299
Ni 6.301441711898906 2.550517047313326 2.8242496554438823 0.620484583023441 -1.133971422438389 -1.1317191360691026
Ni 4.353550699286266 7.487966173353117 10.893290004063529 -1.0826216072115031 -1.5562092964386685 0.1532439190602264
Ni 7.39072913609984 6.246577604705048 11.798776716624618 1.1579186772826058 0.22439637083533612 -0.3801761689435388
Ni 7.830676819908907 4.140092599706624 8.491740317608333 0.5512123789901797 0.23310932522830177 -1.2842955967486591
Ni 3.185680583743235 8.839870523275678 12.554522238072549 1.3781873991028135 -0.2248792240090256 0.8824555696784416
Ni 0.6462819661651895 5.352057303154583 10.540623046818178 -1.160836365150033 -0.9892933906703026 -0.02123885477411826
Ni 8.606741567035645 2.5109280746211127 5.925893189266377 -0.14181767950115576 0.5167017468078198 0.4417031818137425
Ni 4.005537712876487 3.179755516583424 11.746584842193098 0.24105146289351392 -0.3141510110926654 -0.30866710515995877
Ni 1.249355815060798 3.681215837351454 12.998024046402051 -0.26574022388944557 -0.21983291983436978 0.05140355128295663
Ni 2.903933108876564 8.953902882277166 8.68465482652398 1.3216488405861366 -1.4378056249860787 -0.47086566231031163
Ni 5.723697296167625 8.309297700960448 3.700209020179039 -0.7664954746703381 0.07986257795459795 1.5833529467329956
Ni 3.143591544073235 8.829036899705267 3.8291886660711656 0.19498012245674806 0.7438440558194093 0.3391963840970674
Ni 3.9425415196889477 3.193629514646969 7.1247384936213765 -0.7523675199093882 -0.7326474157726414 0.20702934031179826
Ni 5.4984714820588385 5.0747330237101504 11.985779895012202 -1.2169733173529171 -0.7611676346995213 0.9260177705401084
Ni 8.60426897332135 0.0796349173338454 2.23104603434556 -1.3739039412361111 1.1908393392700265 0.039817389107254006
Ni 4.696023244225124 0.8161912800079469 1.7791804488335905 -1.2387001675070473 -0.8459819002324399 0.764264014236658
Ni 6.081536553153102 6.312339439750798 1.0877095431010346 -1.3358048203715445 -0.08427844763410647 -2.8671939724427395
Ni 8.56277518769368 0.332413667398926 11.244054895699774 0.45214006087635034 -0.7053759816511981 0.6063571424831234
Ni 0.6980104582191413 5.400877292380163 5.845044869461628 -1.8968480694092171 -1.806596177800495 2.119829047954265
Ni 7.3589517279939 6.6862597136336905 2.8524363080113964 1.90876693233399 -0.19611757849530095 -0.5143756697778045
P 8.511583340053276 1.7334805065652699 3.68435236826681 -0.3241937400406481 0.7404653691551635 0.11785139849354541
P 1.879583321816615 3.7767953210407033 1.7500954205498829 -0.45789059020688233 -1.1441234232707265 -0.7568728639789094
P 4.811511686191697 1.1117697114920249 8.542378121101645 1.4412904982108856 -0.3957030609345443 -1.9483488083916702
P 8.845658224118027 1.5128610429686706 12.974715729655298 -0.7505628626004816 1.288798112604703 -0.06254542683238906
P 6.388037438426216 8.433357801136578 1.703880812478809 1.209870901980181 -0.3619457619784412 -1.0097963957196607
P 2.023643957815042 3.6437606214571328 6.239946474673489 -0.6429776219196346 -0.09458934264181129 0.07977233223363682
P 7.0365071921408315 4.360061862733909 6.272154297240806 0.5975662836643708 -0.574778596345894 0.5582253199729031
P 1.9458854643777115 8.872801808448289 10.796303889283482 0.057752890539752154 -1.0317903834922488 -0.4183555082267376
