# total energy = -340867.0626627681 ev
CRYSTAL
PRIMVEC
9.20169848185344 0.00000000000000 0.00000000000000
0.00000000000000 9.20169848185344 0.00000000000000
0.00000000000000 0.00000000000000 13.46761585012600
PRIMCOORD
 96 1
Ni 2.2482417759783746 1.0118739696771073 1.8253740438966464 -0.2954439216014654 -1.434259559506033 -0.3175525805750467
Ni 2.6689618316462784 3.1143516408080285 1.1782167528959289 1.0139389571331248 0.7533383684630897 -1.5193065098750478
Ni 4.409481493290461 0.9239057326755509 9.078425117583045 0.3894174850361487 0.7346870719104895 2.1647685887794332
Ni 4.6156731517351135 2.5125053532218575 13.097188692940284 0.04172283366008298 1.0996698209430416 -0.33813400427082413
Ni 5.599997236309432 6.772928533626523 4.437511707051354 -0.6875389534697772 0.07995153812397843 -1.1402202315615781
Ni 0.7718909140838343 2.0387375060985176 13.439536042730609 -1.154662118018521 -1.8908052056492468 -0.10729624868551844
Ni 2.969599722787999 5.521405530009192 7.639208629877152 -0.7853298337680217 0.142264023009955 0.9955995353939885
Ni 0.30739745880922514 4.082443929349842 0.8735862448049431 1.5097044680089096 1.4773551051439267 0.06873201525907517
Ni 7.151707247845358 7.640179409061636 8.383146624466914 1.1172448537123274 -1.5023341436867674 -0.9761182867409253
Ni 1.8725640341308285 4.145181109253254 3.0246111566886373 -0.10260141431301038 1.2263084787109138 0.4916430040669791
Ni 5.113623062335451 3.9117064149603156 2.216324764800174 -3.2343238497252815 -3.817527694020393 1.0678004830382706
Ni 2.869512848952651 0.5236612963565869 4.2547972619838745 -0.7128740898004562 0.8029586025933784 -3.609890030700634
Ni 0.5465100337309138 0.8067543090996813 3.5213105564721845 -1.116881813945954 0.5549916435269537 -0.6989708494558027
Ni 4.368294691112745 5.154092132035538 9.561023834690735 1.8723338863179368 0.1862005764919051 -0.11032526531982935
Ni 2.660183411342985 6.57491718508714 10.200978036159567 -0.8107968676908746 -0.012048189413785701 0.7826224621391877
Ni 6.355833947140482 8.156541918222654 1.7770522447554358 1.883083668635273 0.8043729664424017 0.14169683765257535
Ni 3.333361265167238 0.6546309104664773 11.348418788482755 -0.49599433905713936 0.3146603466289161 0.45387555551021835
Ni 0.944940815289103 8.887221185543009 11.1603839213824 0.596216968725328 -1.097571800763432 0.7114396713467748
Ni 4.172197295847037 8.294990672817363 2.6050413133246244 -0.6791034211079143 1.5381213285887059 0.8196751440171108
Ni 6.590937342055729 7.082206819595069 13.168419040495623 0.0766489561133067 0.76526005960134 0.12228089501980877
Ni 8.496149002220191 1.0770588013631979 5.633139913718658 -0.4767786853606369 -1.4094211603061146 0.9849448838936197
Ni 6.88126933095459 1.876217108407985 1.9744470794999323 -1.5913030548180076 -2.760200085488988 -0.276048290683673
Ni 3.7470420215353313 4.640664964674049 11.926705047405873 0.34743496995677586 -0.37714998052270526 -1.3267802482754312
Ni 6.1659661017126455 2.8564832439741776 4.011841137627505 -0.6223386055130443 -1.0431055513947518 0.9424643461319059
P 1.3164593894457806 9.204090872717233 13.36194916189905 1.6679658948883855 -1.5624146539184318 -0.7176082620513319
P 4.638925843670566 7.451139716492601 0.7211205429901013 -1.1023666510489145 -1.1194542026588203 -0.6615569275837186
P 1.8143356864586686 2.4617119778820467 4.267146861448288 -1.7930482639127314 -1.2387135372434859 -0.10155009023036059
P 1.842308849689289 3.802574271567171 8.14444628563494 0.6198595478449325 -2.4142895225965386 -0.745351236492555
P 6.063983678000486 4.18743530844898 0.41719948584815525 -0.9461705913388995 0.19989787147333962 -1.345117098911406
P 5.878725883486644 6.307929905108044 11.246684810628237 0.9970367820611473 -2.064710766823883 -1.7308926163195932
P 4.413603854187605 1.499122305002046 2.4012485376609667 -0.1857719735949188 -0.2050051107929179 0.044190321363969054
P 4.699344195569335 2.3486507092588123 10.872029377476387 0.17796687572820316 1.2014042592700664 -0.16964909989112717
Ni 6.940058982231048 1.273386239089684 7.805008512888537 -0.10566205551620513 -0.5002358879423127 0.0851654782247501
Ni 8.827428549137558 6.650582751286282 7.052411720075087 0.5539233501634395 0.649808785908855 -1.4337769634426598
Ni 5.937055449841546 5.818933247081193 2.1432494767093937 0.36441247835137885 3.305688160400881 -1.3046363651885402
Ni 1.2794685617526576 2.0528253063965702 10.98084774295303 -0.4380573575310391 -1.3139923524821435 -0.7439024198611704
Ni 5.75382202898255 0.49688527409185584 11.610336852796145 0.39678215293133606 0.37841470616774187 0.5804098264897424
Ni 7.557686182626599 3.95337170545645 2.0396972432448837 0.11326120801970171 1.569015189954085 0.46538535592203073
Ni 0.9779105007678244 7.721319985827297 8.855604149733663 -1.872328744111614 0.34426608531049097 -0.38705361278966244
Ni 4.504792685640055 6.793135463381273 6.481155558753348 1.901238999388061 -0.7163389084206051 1.1844583754443472
Ni 3.746075843200063 5.409862541627093 0.5197008853518307 1.0981094184344573 -0.6168508429255958 1.5408245864524819
Ni 3.5761756833677683 5.998798846314396 2.799122616464073 -0.8799785688928586 -0.3433173482439765 0.877186093749386
Ni 4.078836863564842 0.374997736333486 0.2601347751574371 -0.39771160672414085 -0.7837552901920503 0.812655003945536
Ni 2.4389561776618742 7.055687524716568 13.155624998996988 -0.8843571575765286 1.980683258858318 -0.05032831594090687
Ni 8.165946054019264 0.9549062546900116 11.826546400322764 1.6182926960329742 0.26028768541530656 0.7949362465095342
Ni 8.234397488648403 6.4674597508084615 1.8331853656948285 0.5285511899472382 -0.710808208410363 1.1179213109540618
Ni 1.020238313551 6.169030267290211 4.408502432577389 -1.4658491613868563 -0.3008591790797657 0.0866366634536379
Ni 6.425886477296638 9.139826210874256 3.7913896071241386 1.5685685893349695 0.8935830470501707 0.732508319091616
Ni 1.516035026718454 3.794449171852488 5.997802302374304 0.116183009652187 -0.3192001434807986 -0.4001078748704593
Ni 0.8714992996007639 8.522769515781434 5.323236832426638 -0.1981145543206717 -1.7583954497255523 -1.7015321608796052
Ni 7.424013109517644 3.0588193907761885 6.073316040549333 -0.9554162783068837 0.21924336587948692 1.4857389583322476
Ni 7.120200632417186 5.191487834459632 4.064997509124429 1.8441553670011916 -1.0577119884540171 0.8164075290094327
Ni 8.760348167574655 3.5371420786229355 11.530447707017116 -0.4471495496402944 -0.3509851492018794 -0.8991967936925224
Ni 7.6560615405537575 8.036975048808614 11.247600379622133 -0.35448544904565404 -1.7513079467511516 -0.9496554645637064
Ni 4.6675615291882275 7.789513772900366 9.526587398482093 -0.06269892169111783 -1.7037877896830012 -0.3475506695990337
Ni 6.758638295962985 8.244933433352042 6.063349680978582 1.6148528171134895 -0.20225197352781296 -0.29887351610830465
P 1.7549019162920312 3.522428562831566 12.42958614819545 2.1714395730417055 -0.22072483552101985 0.3950515433934744
P 2.8775183265877295 7.65166312870368 4.515045218032014 -0.3393239108138672 -2.0821094219163045 0.3137810293477564
P 0.17622908801322248 6.811143187210985 10.66430471607311 -0.49081048086335466 -0.6349984603689 -0.013280262048673903
P 4.293733328725338 2.079961115069958 7.264863293962433 0.5276826712993558 0.7790529996203744 0.3374351784315866
P 8.615780283523248 7.944553189766394 3.3145419515359014 -1.544675841877772 0.8833605979912141 1.3701053934256275
P 4.939002431207989 4.634371002947159 4.540714275975481 0.14578566300996829 1.3049304993901913 -0.3047166051526429
P 8.884617104886999 4.714913469314798 5.411247397240978 -1.0626405361038862 1.1021637910094888 0.2784574143457978
P 6.890673466751199 0.3906148589107916 0.21614605580744337 -0.8587651680400371 -0.4582083785576173 -1.4025928245303714
Ni 1.1524207115141125 5.377224117291893 11.962933054299057 -0.292062149613426 1.6522762520672705 -0.15617986176009876
Ni 3.023107599164992 5.540075776125946 5.286860678188714 0.8826784843225248 -0.5494848547761118 -0.7687135653675793
Ni 1.4277723353671015 7.796240214453519 2.7445786288437355 1.2524941359673463 -0.043774316872473 -1.5686606348281436
Ni 2.209935105409601 1.6178334164619912 8.603543864949538 -0.304382875962308 -0.08881593049314382 0.33005868346185735
Ni 0.5958532213979791 5.176341838841999 8.93977668613238 1.3104966806240592 2.500462873260513 1.6212548639850919
Ni 8.41576296472588 0.4939407305938958 9.61488137560811 0.9562395455391273 0.6875178704238546 -1.416147937506987
Ni 8.78737355586687 0.1000463863622512 1.1445615408840886 -0.16095671432345185 -0.6432409028833502 1.2862619764464105
Ni 9.054471256227139 7.006550455094359 13.31207871691188 1.694853977528481 1.7065800077161577 -1.5654914930715427
Ni 7.768340664810347 5.12351488814891 13.131100632338354 0.03044211853994112 -0.7804935887216429 -0.5020534007670256
Ni 2.4746219607809152 8.010317728453645 7.101689575683291 1.2798753561937766 -0.07004636319512451 -0.4819381180743893
Ni 5.601138246914891 3.065831084980706 8.804601895839465 0.768240996606535 0.392405364019879 2.0264926038829487
Ni 7.023168722460971 2.4235341310913086 13.017460576883801 -0.11932206950180096 1.0621671960118932 0.9453480954376041
Ni 5.339773204677213 4.002830834523748 6.738481055379762 -1.0164002741894238 1.693824507822702 -1.0066133700059892
Ni 7.6861050859313815 5.260187714946412 9.755590987507347 -1.7603592583201426 0.8770871062776765 1.8372614680948356
Ni 4.898257310554967 8.929364964357562 7.25338877601882 0.12545980696842265 0.7275985404948243 1.9409432599562186
Ni 2.336430853742278 3.9766980109793524 10.14931602048786 0.48379214056399256 -0.08421725537886786 0.5849581079820572
Ni 3.8126133245555285 2.793838081055078 4.631687787684643 0.9951537061058215 0.4683467525431998 0.3180223211226136
Ni 0.060579381621312364 2.3115494611845158 7.853841926462519 0.25867226129907067 -0.1399045216388429 -0.8827191077524732
Ni 6.357563866445533 4.029736600736357 11.446342343016946 -1.7140794014169964 0.397663784205341 -0.7678139363714453
Ni 8.177843850090708 4.558815857129191 7.651100904929538 0.3698714445834211 -2.5856013549020695 -1.5581862176593808
Ni 8.476816233816397 2.8594185857737067 4.185870099545846 2.3360313130145838 0.7490392268671036 -2.4970232514513446
Ni 4.5293888255464525 7.654451243328311 11.982420411236493 -1.688511837360537 0.2723538725512213 0.4440745102593965
Ni 2.6670478783726046 1.33060239993442 6.2277214603934565 -1.3925490671411245 0.1434387600443465 1.5033792971218303
Ni 4.630193431859428 8.759464804525267 5.154124337980048 -0.04258646721195892 0.21435029945324371 -1.1460666630400262
P 2.6479175473342953 8.715867157358597 9.630153434494249 1.0265198791219288 0.6155652913449527 -0.2123947183887697
P 6.37642734822934 9.034328738361406 9.509833866148542 -0.7809018799036551 2.8473972494317863 1.9828496703820173
P 1.5467226909862561 5.859172274320502 1.3901944393140726 0.1719191268722265 0.3526285983425733 0.260792392965867
P 0.826143207863905 0.2487099463853521 7.118591255361581 -0.721775248944828 1.0039818459204128 2.40089998866351
P 7.920251504209792 2.876027651441887 9.415546822834333 -0.8012956130686587 0.3491666079359019 1.0276539927263721
P 8.99593005080832 2.233684689060335 1.961261965817973 0.5892207399131529 0.09870002237607518 0.6681803464375072
P 6.053328111217243 1.2571820481524725 5.800421270177456 0.8499568257197878 -0.32424721898640285 -1.4053161369988056
P 6.5557776523504 5.742108266879729 7.632003700005582 -2.3091977377615067 0.7201847645292565 -0.18033897550480554
