# total energy = -340871.71746045985 ev
CRYSTAL
PRIMVEC
9.23896614208371 0.00000000000000 0.00000000000000
0.00000000000000 9.23896614208371 0.00000000000000
0.00000000000000 0.00000000000000 13.52216083794811
PRIMCOORD
 96 1
Ni 0.9777043660485935 4.609098534518239 9.078697917398213 1.1164141302809159 -0.8613792086241165 -0.5766305619529682
Ni 5.563733201802626 1.7845248120560355 3.260044082302797 -0.36170536383286095 0.723413041658567 0.40547299583711455
Ni 2.625206069425438 2.1285931547383727 4.395919550811626 0.3518071308825425 -0.6613090732389708 -1.5100042586375155
Ni 8.566286370397654 1.0827976073152508 11.896215841323682 1.986396250082695 0.4677777674136073 -1.0621633393571515
Ni 0.7753118754566019 8.569917284139878 12.762350450753713 0.2363954521787413 -0.7493698707336449 -1.2070935963453597
Ni 4.0984793469731295 7.8167382762681905 6.039037364695633 0.4230061196248715 0.46771374694489126 -2.4894361831327063
Ni 7.450311635224068 5.410680486653312 5.26635397514148 0.2935032529353268 -0.27184427990465443 1.0345697460095988
Ni 8.194556562717306 5.51321453426451 13.170773736852933 -1.2018120362314464 0.1764941478374186 -2.307178650448949
Ni 0.600916224338048 8.670058439488388 4.854590802737391 0.3788944740176378 -0.2825230997747393 0.41919368785731675
Ni 0.6137971911049908 2.2696906475405174 2.062589055843153 0.27295422513938156 1.9839878977515184 0.22762901884002085
Ni 3.481824543602312 2.4819558974835023 2.1751205888499237 0.11941925720129758 -0.1647946000123033 -1.0223300094102974
Ni 7.679973858644425 3.0305287584460556 2.606815907074556 -0.8793923573720854 0.40865627866110266 1.014924718085162
Ni 7.125829901023956 2.3297901230956475 10.404383328342455 -0.2549423619429932 -0.28241845587607495 -1.742597306351031
Ni 1.350884691432578 5.02952693338246 13.132857943197175 -0.06445472803995997 0.666711989422097 0.4254180715004738
Ni 7.549981603293054 8.265364000173804 11.06494077550888 -0.1516187247519776 -0.038012988908663566 0.31654213703266126
Ni 1.6455153256298265 3.555505299567287 5.771609942769641 0.07340988035071873 1.1937729679770537 1.4262328325468145
Ni 0.128720049696655 2.8816520560486127 13.173532492179719 0.9577251289457183 1.3517433459786719 0.296382888475967
Ni 6.973728799399957 1.0016610055742587 4.955926556423992 1.0587921088920735 0.1794977105504328 0.05999772070987086
Ni 3.706091210723793 2.991447931144257 7.516455242509893 -1.4056514088510372 1.5858024367147527 -0.6006510932372817
Ni 3.745107365261735 4.706347893425741 12.77499397608764 0.09471481247608204 -1.3770795107506155 -0.8157087031701952
Ni 6.364585275602749 0.9811782173643089 12.460657550743345 -2.281796720040735 -1.1901880788392727 0.5491331278636478
Ni 9.108918576051684 0.507861356114947 7.049548376055327 -0.1946134831459487 -0.037922228967070176 0.49785118976022
Ni 0.399167689694741 1.8195682110999418 9.857168595420886 -0.18565318862886737 1.1658536158589663 -1.7547827926736295
Ni 5.665186290360794 4.703936523230523 11.385835019108214 2.292266252113491 -0.8466228762505484 1.149337106261182
P 0.950005945185522 6.874908816227372 8.706568062478581 2.330824057782031 0.5926109965416246 -1.1428255303949093
P 7.774433049739837 3.118428283493175 5.2263963699411145 0.004705118785153187 0.767299201518556 0.39809444398485627
P 7.504784580323691 6.018816963127615 11.026145432264677 -0.4528645977472008 0.5860819371738551 -0.10702551152263502
P 5.472313630608466 1.042423324736324 1.2755427693331198 0.49116812131308957 -0.01712688948827373 -0.1624016743000945
P 1.6368399363068031 1.0963788877250957 11.483343992967768 0.3444074959843617 -0.18989807994815036 0.3679456883156179
P 1.5745693036793509 5.758536805504382 5.015735004541767 -0.2095791033168455 0.39501554794921645 0.7627565764531961
P 5.76835782664429 5.12760779925383 0.15114948809868262 -0.00154754699277798 0.03965643804935751 0.2863918387015262
P 4.286898824985632 3.4552163207585345 4.0156492427157255 1.2045872849837385 0.4313987145639409 1.2331694674968052
Ni 2.908694510306855 1.963058596164773 9.529864357026755 0.025850899624832897 -0.9154163408751783 0.6504533614713894
Ni 8.3086670350588 6.118874967779738 8.932049653663936 -0.5554492998896627 0.3802407036328871 0.00010541522961272168
Ni 1.78840517788742 0.9298003259635281 0.5402383894947163 -0.7328615886659765 1.0161200239448436 -0.5298030600764683
Ni 2.18186503422352 0.9445179992239927 6.375698828123158 1.0649712411195917 -0.9798289028232932 -1.080381919247707
Ni 9.175235875903295 5.129899062887599 6.798888754004048 0.7849601091334287 -0.25619988849917813 0.2685062166703569
Ni 8.999834101358461 4.8685379462113385 1.5594432681099644 0.5014646181430912 -1.1733959469825985 0.9039037122498885
Ni 6.001881937963502 8.59228482146793 2.905845213110667 1.227500442136486 1.9729390961365247 -0.28052201018431044
Ni 6.434801419218274 7.686191682940906 9.088433940048482 -0.061416198323952294 0.4626592152401193 0.5102737317942889
Ni 0.26565631209295293 4.166783024571758 3.839089825697862 -0.8457330174464274 0.38030343855002247 1.033480369600162
Ni 2.7126159292605014 5.49717568882812 7.126895153834334 -0.9101661482198325 -0.5206327064311098 0.6635371912385412
Ni 4.785063886005251 2.318259893196677 11.34964968383393 -0.8195357902257692 0.6669942965492061 -1.1146475252987964
Ni 3.9845166980918796 4.249185364691082 9.929133675350414 0.5768503912732582 -0.9184674689966763 -2.6048478618365074
Ni 6.215662378373979 6.368909111814863 7.36565591123266 -0.7115525427755552 -0.19148933569467022 -2.3301296028181677
Ni 7.019304619986193 6.602442462100339 1.4921568006971346 -0.8781980799536682 0.5351370706948718 -0.32679852465334686
Ni 7.300908311749509 2.0496646659347637 7.326144548102904 0.8094632364811156 0.5297832625821263 -0.19979425601593975
Ni 5.896280553552258 3.791736428002203 6.186726859927997 -0.1365039805977262 0.1587540502451782 0.42265747803620113
Ni 5.338708939447399 4.340383200694878 2.195295719483242 1.0141747272930146 -0.46155518354266317 0.8926445943963014
Ni 4.93771932560516 0.03841285004082474 10.17443931645101 -0.31257286797226813 0.40549433599335327 0.06775936693316072
Ni 3.282724820587238 7.094445132621069 3.661219399366966 -0.21173805864137726 0.8429294865593612 -0.25115821231021257
Ni 2.028572105951311 3.4795609968673378 11.321659311636878 -0.47185682257898737 -1.0769122155315518 0.3728562382433579
Ni 3.6188476522815027 9.24404769664651 1.8933727692128706 -0.11067673512197714 -0.8204693577836321 1.6436859392950982
Ni 5.412713059231656 1.9803447020469636 8.584422461176244 -0.20630506055126405 -0.5185082038889393 1.2056229253371042
Ni 8.779567906629811 4.208746409348299 10.939076490284798 -0.7773182763174548 -0.8433935706799732 0.5272615246015371
Ni 0.8743203335409981 6.501820880506039 2.8826951353399535 0.05623542545396122 0.6625390889913298 0.3756749386390756
P 7.260580224001908 2.971048293630694 12.442835584817772 0.1894525077702995 0.6332593661906062 0.5243047559660584
P 4.067861412770254 0.47431651739925657 7.707293481890624 -0.1016238808910895 1.0330293981056726 -0.12396625314203168
P 7.905958973491233 8.803598457885599 13.19689876176104 -0.9793509347456102 -2.276634716223821 0.9103175861960323
P 4.623677623284725 4.986029880205895 7.662223956655723 0.9823359855158629 -0.6019957801906343 0.6298117739616379
P 8.206160704346399 3.6707614037256655 8.596483931635463 0.8920761234873412 -0.299847964206432 0.13512766907548984
P 2.176931426237903 3.430261872876227 0.8708298520860054 -0.86956431553807 0.8863240514949122 -0.9491021631633978
P 6.245023813164787 8.145432979085234 5.021251591298719 -0.41631148121351524 -0.6811939850883559 1.2408555232871534
P 4.517956132312034 8.442207053456011 12.19168814534769 -0.22133264430834784 0.07969031404279178 -0.9640711257684041
Ni 0.20709604831760514 1.774592923320945 4.886273065854017 0.38942802655910996 0.7160571155141281 0.7080062201851934
Ni 4.302078446559356 5.398900804665182 5.251885753970177 -0.6430951213341054 -0.9484043657654246 0.7801428902504435
Ni 8.323781983868669 7.455596323927764 6.770695124549161 -0.2510204011807677 0.26657686085812793 -0.5415386033458416
Ni 4.755452999125282 1.7865758625669101 5.8671436256416944 -0.0893329793388784 -1.4629250457615257 -1.005178180221359
Ni 4.807579246793544 6.823318428602492 10.816944747431858 -1.3879074546040548 -0.36657451899970417 -1.5737817581047928
Ni 0.3145258241527318 8.599158612369239 9.918519027008324 -2.1815620061876877 0.4030214489728285 0.8408083264513003
Ni 1.7927012972007381 9.170320745850207 8.435799830351094 1.7203107270386888 0.22025329520124 -0.9702037210287032
Ni 1.2526837189997604 0.2571370612998114 2.7459584346149843 2.536989250321321 -1.2214174691671995 1.1127017144263354
Ni 6.209536943740152 9.05897272442201 6.932027801265348 -0.07175948923148932 -0.19233394308315263 1.3514638670650403
Ni 3.8254771328027153 7.716966679570289 8.200676453971376 0.15317604193676848 -1.1790968540221178 2.3701727347829826
Ni 3.844065932928299 0.8472898899389008 13.24993319981317 0.42527254706154505 0.44075033098217 -0.98394138232977
Ni 3.5757293967218113 5.584428486236675 1.3026656025978693 -1.070876293750117 1.32207101572522 0.8615473587708646
Ni 5.060994852481733 2.8409451706841384 0.19890385693025173 1.215535556465126 1.1834972970826585 -0.25940656836193393
Ni 2.855376435990382 6.958087229512973 12.721324821053088 -0.2965682650138957 1.0059528536038547 -0.020968117611234856
Ni 0.6318242620816502 6.398935752176764 10.936182846050539 0.4262459667184078 -0.11954318437367155 0.51226736518555
Ni 8.035267545338982 7.415720945527156 3.975447728805958 0.2150856349573715 0.834885276098646 0.08424759439617104
Ni 6.507761535814563 4.796224557253613 9.06467501440089 -2.419057119188511 -1.0779326863762662 0.8139315566651144
Ni 2.3962552464075006 8.119175836959535 10.483406978498596 2.113821408307605 -0.3223456310883158 0.988178303229253
Ni 1.643824594803295 7.409244430175251 6.646534504704383 -0.8159185051881561 0.7319755865165974 -0.27114416851383627
Ni 6.18141353042888 7.172652982055993 12.6800007727421 1.1316209199283414 -0.4964568805158547 1.3778732102965046
Ni 5.780728802473393 6.326141936973249 3.8258790278352515 -1.5558629688428431 0.9512423494348522 -0.6819748291184383
Ni 7.897948789739305 1.4044245009394158 0.8086497613279521 -0.8231960126861758 0.3554987208015168 0.8213905840463208
Ni 8.6918254440092 8.549905683209454 1.773661635521413 -0.4603832747217491 -1.2480183595841796 -1.0279311576471588
Ni 2.618692598208472 4.760358890212104 3.4468800014974437 0.16339232034813794 -1.3120056610694177 -0.6414879247479854
P 2.76686713916976 5.479224377374836 10.95631732523229 -1.35451885184128 2.196827674097507 0.9527888679863655
P 4.715577620724676 7.353838349482843 1.9346423076228956 -0.6609110664696036 -1.9432742220822403 -0.8714957282328282
P 8.451723188709167 0.8516266607037858 3.298352532024825 -0.9677069227487786 -0.38642703494925706 -1.397903132364186
P 7.712448825066606 0.24580269748566325 9.098656856220925 -0.5560748492888037 1.1610273981149166 -0.7642413885288386
P 7.574095305245227 5.478235807984459 3.194204437007097 1.7739138570761255 -2.6725840888412167 -1.6470078045794796
P 1.330337230458772 7.330981146942737 0.9025370604115475 0.38766990621742264 -0.9149229461785274 0.3308760371568301
P 1.5349064215028445 2.458969349415683 7.669648389946438 -0.5274240183213303 0.39902081245386767 1.5935823377704879
P 3.1191489228618607 0.049112496872553604 4.194006562568798 -0.7003142508575746 -0.6476498305843233 0.5643941677877763
