# total energy = -381175.82437952235 ev
CRYSTAL
PRIMVEC
9.16745123005640 0.00000000000000 0.00000000000000

0.00000000000000 9.16745123005640 0.00000000000000

0.00000000000000 0.00000000000000 13.41749153535810

PRIMCOORD
 96 1
Ni 7.557820901845144 8.737497682062891 12.747770764400103 -1.1619833342702826 0.21951744547648 2.3827132904521546
Ni 4.622302204676913 -0.3090173597909392 8.354481573410506 0.5423726692113626 1.8487586701011578 0.371920870913282
Ni 4.722484110740898 2.1310290223288337 4.145548908112355 -1.1651905283536708 -1.3262524007964192 1.1233969893566522
Ni 1.5989134883264642 3.090650305368701 4.439459225168774 0.5284542593580577 -0.18384724576838013 -0.4159602685216836
Ni 5.2995843274899705 3.2206905997974724 -0.30028719606978876 0.914571733486696 -0.5316491121462715 2.701277857231483
Ni 7.6588553808652 7.998766134254695 3.470716328244055 -0.2975447699945521 1.457229280928329 0.5507961173883675
Ni 6.812057919012142 0.5412380646323358 5.0764274815912405 0.2938981743809003 -0.4225734029628271 1.0424247232776434
Ni 4.249516971497388 0.2578859010544941 11.824634103409418 -1.3237851702028491 0.14263374764454792 0.5704496299532369
Ni 2.4362776429558908 2.3423387711186248 2.463813915946776 -0.25283380024042257 -0.46465027752821914 -0.307102074665684
Ni 7.27558258358088 1.751725731388374 0.698911807034082 -0.09392445536430276 -1.0035409017282524 -0.5226052567764484
Ni 6.496734269581616 3.399941771948743 9.04342927779992 0.5083011814489504 -0.8753279574947247 2.04948186568927
Ni 4.137894086409991 7.301003925593639 10.717153751158882 0.5869820803906214 -0.3618213205854349 -0.46777056832475566
Ni 0.40218524898728475 6.168631193261155 11.331675503463702 -0.4010686961218318 0.03380614991616759 0.6005904152026753
Ni 3.1041631283498785 3.0957474082028495 9.818518020086442 -0.8850369572523726 -0.7353023368969853 0.3904233005928437
Ni 4.977834294809914 1.6120321109085982 9.966727285930679 -0.2589232009676121 0.0707773278238781 -0.8879155643517482
Ni 1.1162655206785288 3.8153648203829884 -0.13540233660088208 -0.5663340651229666 -0.11195251651060721 -0.2693953041435296
Ni 8.66492813883426 8.806611096211535 10.945533293972387 1.7770390329686683 -0.11639075478761889 -1.3051850386031587
Ni 7.272474817644232 1.0453644535574773 9.175484577989385 1.1382854764327106 -0.29069123740782843 -0.002546163460621422
Ni 8.375099171025614 5.131709962204129 9.635275339708576 -1.1514184142702428 -0.9121538680738226 -0.3862090054011801
Ni 2.159594800082803 0.0045158864318373525 6.83374260794001 0.23650626672499267 1.1156158027493366 -1.4554413357899707
Ni 3.8654649408661212 4.3048792089351995 3.2927596001938304 -0.08366703930235268 0.6688825147108545 0.9766173378645311
Ni 0.6660895817155532 7.54900181384793 0.14007681993745102 0.2633879216071851 -0.2879357861498783 -1.547717199807257
Ni 8.134407741330346 2.450368015358924 5.744148869609813 1.0414099088598838 0.14443249141618353 -0.7040032696733874
Ni 0.6240384833338277 4.5186550020817995 5.88756814223311 -1.3546677187143186 -0.18295301608888492 1.9966768060730966
P 4.547651650039374 2.4313638891445533 1.9113347227258912 0.5895156454457524 0.17903594042266585 -0.4541650617261791
Ni 6.410835252394616 1.7328774518433931 7.098591188135757 -1.4089349646983156 0.08820915014708035 0.6957664835858921
P 5.553311872707108 7.674540889766689 12.748213552290192 -0.5222954388455133 0.5726306967649558 -0.5768133673877357
Ni 4.5494209681095015 4.032523403000454 8.379719566400455 -0.8608328492023433 -0.42420939590435325 -0.3672895427888578
P 8.678945171628166 5.350555355831456 13.150121027507918 0.7665250423566927 1.035899520564616 1.0143968706061497
P 1.9360648389226522 9.005343102036484 12.532648272680957 1.0416027415969804 0.2970320920241917 0.14683004511408262
P 5.037670248404316 3.547326883935444 11.152538007706573 0.8460569764447493 -0.09927337838104193 -3.0616349345665657
Ni 3.170874670299697 3.939666290397773 6.029672802362851 -1.7198944654368766 0.11638766946382537 -0.8230851981399244
Ni 6.3656030484671176 5.310612771212058 7.587148494788893 0.2757289596710413 -0.2309737669425377 0.46585998156560415
Ni 1.9067473301751579 0.17981588714152846 1.3592588973551916 -0.9178863996822256 0.2648675914765052 0.9630604251157027
Ni 7.08113177743857 6.693119407914582 11.55339947674916 1.59913360660602 -0.5846336347631028 1.1342719843979434
Ni 1.2659699978037906 5.975188806744305 4.356002416965619 2.091626874488436 -0.08170554470060767 -2.2614089004130022
Ni 8.785608465648524 6.6557162072611185 1.9357146422890832 -0.12238425336689246 -1.7090498094128888 0.482501189666711
Ni 6.8161924394765325 8.179969973498903 7.193962015841176 -1.1315445581644512 0.5324932053141217 -0.4795359363908
Ni 2.557966389395617 7.661156411101478 8.452067257311485 0.29269335543952174 -1.4519598049992737 0.5258880412927781
Ni 2.5208932169832123 5.515752825384254 10.089779232355006 0.11080374761814465 0.07302961419316455 -0.06870116202113975
Ni 5.385465009774689 8.053954190120836 4.105323049252714 -0.5435173243387672 0.025513828000388317 -0.8709681378641322
Ni 6.621164083912367 5.87681288855501 0.6902907359815041 0.22261768166835855 -0.29775482912282913 -1.5391410281024718
Ni 8.341537132400044 6.463062221542357 7.286341504239435 1.003430601402633 -1.4178204401134034 -1.2364386251663801
Ni 0.8586317245304 3.7005699972009602 10.748094815503368 -0.9642143362144879 1.603302393271729 0.14607979721161937
Ni 0.7641409721344724 2.0558192531717214 9.046435285028908 -1.036589861763421 1.3047286677920302 -0.4832532373413871
Ni 8.80770202289726 4.1330811745612 3.636006389053374 -1.0481634255336336 -0.590426587295796 -0.5460436903050466
Ni 2.5431701232547614 6.095080732760483 12.523068286239077 -0.2824639644020297 0.8238264471813231 0.574056887688521
Ni 1.5877842026418305 1.6804212964171379 11.270746789693344 2.0288999277728608 -1.6746571908656323 -0.07845798429758746
Ni 5.3310928570600575 3.7916027870266706 5.782723670519039 1.5572421085785568 -0.5847506199569414 0.20309298137186957
Ni 6.438108419537766 0.8741714709587546 2.908978926116324 -0.1443458452396482 0.3208561910269829 -1.329723132953839
Ni 6.38101353383439 8.038397025535314 1.4095478673318196 -1.1439478169248105 -0.29114940799116956 1.0031776048515626
Ni 2.2855739136563087 0.704611211408165 4.357397703029211 -0.028541044862486327 1.216377592750447 0.2717542912940094
Ni 4.010622362225668 0.25626967941841433 2.531102090573335 0.19607901194788166 0.30752887779045746 0.37482904569901254
Ni 9.054159779359939 1.3420781771726775 3.7660888537573918 -0.28295093134077726 -0.402046743764385 -0.40190713286272717
Ni 3.1027696757765146 2.140278980529654 13.478272691319424 -0.34041971498120727 -1.125401421381191 0.3294387904896714
Ni 0.17236916658005572 8.435943544245477 5.357242094693376 -1.3793603363649922 1.4689357707319797 -0.11721016536512073
P 8.420193863186004 0.4598338487395503 6.977403901273418 -0.7857062432708339 1.6591228426754587 -0.27451282787575304
Ni 3.501544632939513 5.729675297749104 7.468954380723947 0.28858807502189654 1.701385865109728 -0.1310108186936389
P 0.7658021142811409 8.374869984747102 3.334152475583664 0.6296765339353543 -0.5209759487031415 -1.8352179553022459
Ni 5.297329134509394 0.7048798177265831 0.5205462106629892 -0.6912264296236935 1.0460918877165857 -0.28543204589141813
P 5.312171237905952 6.940979784401765 8.530975176258698 -0.301677561216003 -0.2339829860825067 -0.23792268745654507
P 4.998937767335471 6.216356943898884 2.026443989482041 -2.469819951563675 -0.07349035587966699 -0.011650182644418645
P 7.341441552574626 4.43887067480555 5.375194714261925 0.2520835523379594 0.7920866928758811 -0.05616214901386457
Ni 6.142448952803729 8.64414552709862 10.608258182785802 -0.24417586745510853 -0.13939132944785027 -0.45261700051276893
Ni 5.9009507874080915 6.292795151508831 5.5168969232865965 0.10187199234615359 -0.6775198786708784 -0.5615358724033749
Ni 2.890955717173993 7.703574207528827 4.088377015819399 0.4836954670851283 0.5487963133495194 -0.061160630669720474
Ni 8.449722223309731 -0.11162380183251072 1.5739789379692688 1.7064542807715706 0.8787272129842608 0.37912690174341807
Ni 3.5971428134332193 4.674134973425612 0.9931200662525688 0.2034529358144496 0.3957912497729764 -0.7524927326333427
Ni 6.380573496179644 3.358119859845531 3.1433824010742866 0.2515644466096958 -0.09852261625794645 -0.15075946207547586
Ni 1.9063622972272543 7.812914397282225 10.64515625688142 -0.8426572067345811 1.5935157461986105 1.009192443587075
Ni 0.48767814808875776 9.007644132272764 8.579814772210005 -0.544020746337747 -1.4577920954103345 0.2063096885369544
Ni 3.6787881332910013 8.032584861512202 0.6012527835239785 0.5052613661813621 -1.2242904198396205 -0.856735539204518
Ni 8.305674063538193 6.301715081468591 4.674748275906914 -0.6057081960452149 -0.7934246949610143 2.152547364122893
Ni 2.135062700830678 6.75800662708743 2.121547127614158 -0.09974903246587982 0.13354798329319578 -0.9868942943105069
Ni 6.581982397737635 1.5649572493018487 11.729101011818809 0.25555891248106954 0.8979958314058858 0.12347234422474865
Ni 4.897344073795842 5.515927006955926 12.336162292385442 0.026961359080192277 0.5595854335452234 0.3173551198522599
Ni 2.6052246000251773 0.7514752216386817 9.090457385405852 0.721237631273803 -0.30887356474380995 2.1382533160977237
Ni 7.492108612069646 4.19832592432853 11.829048231133594 -0.6997509221549368 -0.7485707718711173 -0.6645360648167007
Ni 4.22607579893099 7.735302755926287 6.283116156594632 0.06042169562116691 1.4807335346978563 -0.17684124676419222
Ni 7.580446171260034 3.852236308870301 1.0449345000989851 1.3915933880960742 1.4003130273572593 0.5197924699180015
Ni 1.8320051010262133 4.252074690365603 8.1566003070514 -1.0801530910663528 -0.11089116512562838 -0.12329185278282637
Ni 6.653351004866855 5.720141148562927 3.1492734051772073 0.17527235961517557 -0.13057424537685255 0.30579955380417656
Ni 1.2617071330234326 7.013668504495226 6.512179591263222 2.060622455687122 -2.21746849027631 1.2245729840770458
Ni 5.805169257891574 5.616237257335877 10.107342235250082 -0.20156728875596253 -1.7393381759837854 -1.0971077166428203
Ni 8.3021720972025 3.688982338959298 7.804163148423451 1.1336983712826605 -0.06149487408068764 -1.2166655563045112
Ni 0.3512829765293536 1.3266493569031237 13.153663330628628 -0.8055705862949287 0.11175762689098173 0.8996086844189604
Ni 1.299807059963579 2.3579967776666924 6.69959529540027 -0.5654159241840714 -0.7512390627318998 0.038751666846901
Ni 3.5311738350257857 2.0738149597606306 7.553376521532202 0.7900907454917748 0.6575552626234933 0.16187562659329538
P -0.13614214990792484 2.354274792503627 1.8852652419174953 0.7664851902576929 0.6354885126314411 -0.4618686010180239
Ni 3.0965449764520776 3.9191770370986325 11.977606776866287 -0.4137833154750229 -0.09321637355368462 0.04402962741638868
P 0.7226738403904003 6.419269307443925 8.913427486665938 0.9880857435154466 0.29171762178981375 -0.31586696534250763
Ni 1.4481914241246008 4.4499357883322 2.039016231976198 -0.48304626353690355 0.23223900680820647 0.833813640301022
P 3.331323400161689 6.046319060143871 5.269800195479421 0.2477461013048701 -1.5373790511060426 0.41672748570501134
P 3.990765663055226 0.8977263199192964 5.913705462179946 0.7079547981219678 -0.9608341068883453 -1.1252163019535784
P 8.579450824399725 1.7904857148106403 10.875480216081835 0.1224575298069891 1.2703761584540896 -0.03931268155669359
Ni 7.801180059822315 7.405778724679041 9.26269820766994 -0.6153053528153467 0.43298868475888014 0.9834374461101579
