# total energy = -340864.1483564819 ev
CRYSTAL
PRIMVEC
9.35118577091373 0.00000000000000 0.00000000000000

0.00000000000000 9.35118577091373 0.00000000000000

0.00000000000000 0.00000000000000 13.68640560807454

PRIMCOORD
 96 1
Ni 1.8463916166057683 6.6213034102895065 4.030495694081364 0.8235999329928139 0.9046812138458614 0.17834534211354444
Ni 5.148351394641709 3.6974214213190906 6.857792091304826 0.9077649949775076 0.446856700990224 -0.05635626730254165
Ni 4.414292668321445 0.053682351752082726 13.598716804196423 0.45442808557957864 -0.9149450576657145 -0.4357976149625849
Ni 2.000386942725109 6.6592598730487005 1.7705693975886778 0.7934779167964529 -0.06450512166192116 -1.039764402836661
Ni 6.724774280067895 4.900582378315619 1.2250343154690664 0.24499347826039738 0.5748752698247583 0.8062478148676114
Ni 2.121381934506634 1.3783086651708818 7.390385132414652 -0.6067129831606455 -1.0654019008991071 1.3349679262925462
Ni 2.6995657463817144 1.975531491132614 2.9135620204311095 0.8418023149334536 0.46505625471738615 -0.8569579396279694
Ni 8.186186932561013 0.2038109625841785 10.599354849605561 0.20604949289703223 1.0948870548424177 -0.5061100873349026
Ni 3.9899078076659897 3.7424660828394245 4.531787511295192 -0.3787762032722186 -0.8327520318057271 0.6203357161504026
Ni 2.827321645424854 2.7238040197179623 11.240385175219425 0.17889967195511772 -0.8728604697908386 -1.0469874029476613
Ni 2.9397322487331246 3.5637742752845014 7.074243051600658 -1.1702936539081907 1.667459130455296 -1.7708421601293374
Ni 0.29168405461377794 1.7345233820681398 3.453435894727509 -0.02595502930286498 -0.882096643677126 1.0566066712049802
Ni 5.449431520647563 1.3627295897934941 4.011704486415781 -1.7916516406755205 2.039417796585049 3.065747156962727
Ni 4.537036331829002 8.240395756068047 3.857581984170911 0.24143712836770678 -0.6620508365010017 0.13730127968804096
Ni 0.04323240173153603 8.405734070442351 0.6520516330807222 1.4526799709947495 -0.2059877864211614 0.13578150060940486
Ni 8.414281054172802 6.017310325880458 2.905582653672691 2.0109901373719756 -0.9201561695530088 -0.2802417599397302
Ni 4.26471110185284 5.875882993342876 7.3681723259011775 0.8327720864103851 -2.384562427845751 -2.0111415753481756
Ni 2.3456046652383282 9.535684594587998 12.062335695940689 0.07396035353755004 -0.4819039224023442 0.13058504401012994
Ni 6.968120185557548 2.4918478584117776 9.506248932239295 -0.9752245712820623 -0.09054011227310214 0.8510438881363794
Ni 6.749115416446851 8.422033187118695 1.4440933214568275 0.5570081597363504 -0.25525860763183134 -0.47820667605641515
Ni 0.9689511599364726 5.705261259047667 10.760429958418912 0.5867820485646733 0.053494629484030456 -1.161864292193915
Ni 8.217345083315788 7.906558426552594 12.533462458321159 -1.6054307524686418 -1.999356924008421 -0.643338090582847
Ni 2.1204655183079635 7.826287848497674 9.559051337416939 -0.038639052528436676 1.7275620092844637 1.0421840680217471
Ni 7.821172749919384 3.25302502326411 0.004739180913121314 -0.35252061200979934 -1.719699575817251 0.6749174080510247
P 8.123898684608564 6.5439129974304056 0.9992003754411388 -0.06716441366163915 1.1323403145928692 -2.909671681990976
P 4.0790433097651855 1.7243492920257641 6.11635901994098 0.3209816608612536 0.16302233860322893 0.05078520097266738
P 1.5200539380222886 0.8797539400116522 0.2883812158242861 -0.11286500102254757 -0.8917511360477546 0.20154466304814322
P 5.549966118115928 7.854883774370454 6.660844899024971 -2.392849093334576 -0.3488403349447347 0.19228097835803012
P 4.47154997836691 3.731618707426598 12.21778606655506 0.7693203457136427 -0.39072720498650776 -0.6856898160761803
P 7.884891729284042 5.798371015069666 11.008386933577587 1.160126483567202 0.1685314413469162 1.1504858751536444
P 7.563238994736619 7.283049417586158 4.3326091261071475 0.01902693472446401 1.919341622526043 1.383301066180295
P 4.4717276508952235 7.818386096580571 1.6663195740414198 -0.29350762381070095 -1.5985134565235182 0.02572105891518796
Ni 6.610147445748556 3.8608146890676474 11.484263163175449 0.3415597421229215 0.4691977876895855 0.32355379246380406
Ni 7.412563339541032 0.4820592335831721 3.606190318504365 1.8052653748042136 -0.9587245167445101 -1.0226089741032969
Ni 5.926416800869529 1.4690619223963008 7.507362854819149 -0.18319264290351675 0.4599428447502208 -0.7970404373367306
Ni 4.200861205888373 5.546234995021344 2.7233486169743375 0.4069449523969508 0.8698188547510374 0.10069725531176206
Ni 2.9256867678106535 8.442512283803255 5.619870906821608 -0.6408636609004253 0.2733573741150711 0.6710499546758184
Ni 4.599782787880787 4.472915251479214 0.5049378445185364 -1.2599706468500493 1.2158844551641126 -1.0857457546627818
Ni 0.5192189753206652 5.037913891516289 0.8920591652752204 -0.7560675944687947 0.3423953506503393 0.6433941406317628
Ni 6.543838187944801 7.712044412792065 10.296542884007938 2.8950184508541756 -0.3558576468028323 0.14593170166952932
Ni 5.908462524324159 6.444350923274915 12.918489113480883 0.9946759951384546 -0.6819894844064577 0.5763233151251945
Ni 1.0209063476896336 1.7116223282870937 9.763238217666286 -2.45005459601129 0.2077489920866422 0.8396934961205668
Ni 0.2907648330593979 8.138673558015691 2.954456625737467 -0.82276869534077 0.6532705192052104 0.897824338825028
Ni 7.162484580346866 6.562671475946036 7.056875094398724 0.699611311253279 0.751019747632242 -0.8691722223059741
Ni 7.748607548881852 9.12360589431468 8.032729299619463 -1.7199533436992702 0.3128834572341515 -0.38223999345110293
Ni 8.213342775835883 3.3622655746198387 2.47666433818953 -1.1228686276570081 0.5210440829369155 0.47421658106041553
Ni 6.9136588800365955 5.669137628685814 9.172355495609638 -0.48572432458969894 -1.2923081826404905 -0.49952343525632037
Ni 5.056504048689307 1.321200974096628 11.767461951884398 0.33745471881561234 1.857184432271008 -0.598034481550041
Ni 4.77821276223609 7.231458926075325 9.019382254087386 0.4979221522074715 -1.4797058647642904 -0.3198737725090556
Ni 7.26471174242706 0.6590042396492023 12.896563388368422 -0.23280079284894745 1.228013891437795 1.1514078727472816
Ni 9.155708514825228 8.917552517399473 5.804993524782911 0.5832550092480213 -0.2606460971959898 0.06362066217443882
Ni 3.5994396975470204 7.1960366346410245 13.335650183182537 0.27606808817801487 -0.4701953757161644 0.44163273358712324
Ni 9.211142343659056 4.503054122992612 12.402661813213866 -0.6214785715055942 1.3520919875673423 -1.1107633597530417
Ni 5.133632628348787 2.9693474538472824 2.0933900952301197 0.28239428750635887 -0.16451486398835538 1.0883981046839641
Ni 2.367804380091821 4.306389336520918 12.921253323974014 -0.2220209286246241 1.6838889938765451 0.8385059035703688
Ni 1.1553109397659806 3.975422821015585 3.1587127047609997 -0.16194273238580498 0.8328741592058884 0.25462483070257436
P 0.39765917192281747 0.2627383943957911 8.214183447430377 -0.039211637202455046 -1.2186836151758043 -0.30292120381511706
P 5.191609979693206 4.327999926675266 8.947021844016698 -0.3858336243396323 -0.2965775209852763 0.3584086953594602
P 2.7972482322113614 4.134299466070698 1.8512233742573267 0.48360265026100585 -0.3180796567231102 -1.4993688904108564
P 8.177415520373744 4.712034421032145 7.0104782514260675 0.5908796156728147 -1.2078027065972425 0.1592369034188677
P 2.960828523673933 7.341456923472811 7.8691770617139944 -0.9405200779213416 0.087450674714501 -3.971995715295708
P 1.8202737549436772 0.021428242033183685 3.815413747372116 0.4761320529155736 0.23321165513412095 1.9167995728304794
P 2.9119405248306056 6.801407246885237 11.269126044470564 -0.2577906300250657 -0.8860682267303643 0.6596550825753155
P 5.954769595914091 4.180578484103527 3.779733363212476 -0.16942027170977272 -0.5936710623750227 -0.9487118697035145
Ni 5.37605276645407 6.011849233431242 4.959597711272819 -0.35374908510026176 0.7737243883186095 0.523918062050601
Ni 6.909946459313413 2.7761987131990566 5.823374215396233 1.2356251281261492 0.7426389797677145 -1.0987375389367593
Ni 8.624477006353429 1.1004568844455984 1.4283403140254063 -0.530730456986744 -0.7014596773159274 0.11954241304272316
Ni 9.04395249451601 7.403567498896947 8.746297707832326 0.6363966262680072 -0.3959398595356987 0.6207856592036277
Ni 4.176800605080438 -0.06567431229467699 8.087872306577998 -0.9826002949208432 0.01570738343292779 -0.7489075863852458
Ni 8.64074806947267 2.3777166369345766 7.852630138616583 0.5799357150668012 -0.24663101386382041 -1.5954618141813879
Ni 3.9170059639432315 2.3139696040128164 8.930680647004703 1.1730958992436764 -0.040986983935322956 0.10646038304778441
Ni 0.08654335342295805 3.912059186707555 5.266693455039941 0.4596728789182858 -1.2099148678442389 1.0274881565724692
Ni 4.720497244091289 5.574428819908993 10.946838364414065 0.9614272603876539 0.12244878805624074 0.01745496225165381
Ni 1.9753538186043007 2.110066999808771 5.2230467957818645 0.06330801603002645 0.0861044450992517 -0.9064082238392971
Ni 4.8872569386921025 0.4894765940809776 2.1480543214807772 0.3680896700926499 1.269159769548485 -1.1510800570942177
Ni 2.5738764593784316 9.132601734958767 1.8643758169453797 0.11767784903015863 -0.8634679728323451 -1.2102820213756704
Ni 0.3350342812851429 6.560502000863471 5.82149930266324 -0.9310525047505384 -1.1469503511965602 0.4385191276588061
Ni 8.885562111117334 3.9783777956970106 9.627414115600573 0.35308368360212095 0.557706985575588 0.3348141958689717
Ni 0.8041449280285378 2.7282832376686037 1.0763317604563292 1.067387049649936 0.8148867214895321 1.7833482630161483
Ni 3.0690872005310865 4.500192660168193 9.615274406323907 0.16933928196019224 1.2931905852454437 0.03509041594522989
Ni 0.590860279210967 7.993028840727087 11.088985738250601 -0.9080293043824879 0.7110979717366399 0.8997943180672052
Ni 1.3549774568476032 5.717950818043535 8.158233433145872 0.07433110661340747 -0.2980751885767253 -0.09242858754506662
Ni 0.8728686619802173 2.491735644183369 12.607287264072575 1.0745000065456334 -1.2169203526277945 -1.936419918164568
Ni 4.561629950221878 8.779519665271248 10.545950228068792 -2.3364899978185565 1.0192495707127607 1.3031196714336977
Ni 7.558572753071965 5.1062897613599025 4.714460118602909 -0.18470985087899155 -0.3499250833684812 2.103936545093725
Ni 1.3769059873157752 6.62697958000984 12.98637311095664 -0.7564350051105425 0.06699626351489107 -0.1567053952462656
Ni 6.667601130693737 0.007125603503943254 5.774349689241675 0.38341370204423 0.06563460728067406 -0.6890708167332713
Ni 3.4936777872719573 2.2228329481736684 -0.11203842611738178 -0.6021778142944532 -0.16219907137098516 1.292383001742484
P 6.061625594916137 0.4955099790950776 9.356040836328743 0.49836078240678683 -0.2990069563623754 0.9106448876284639
P 8.374650729173181 2.242180551388443 11.763972089380893 -1.8172104629812318 0.09867071180003652 -1.9653183463664734
P 5.965738536741027 8.431496587047814 12.174810822430295 -0.4756276024753292 0.9067206128733933 1.6252755551087108
P 8.554539488497795 1.5488555899804843 5.424291793009767 0.4550788317897001 0.5821766885821781 -0.905858264873098
P 6.60075885530504 1.6365510094817703 1.1748399559833496 -0.4243454072615853 -0.4322235244580815 0.20713886930646905
P 2.138859300581266 4.818993283076899 4.972106792384663 -0.39151884764986766 -0.7635232794158915 1.4340250748977241
P 2.8122007781468015 0.7872482705859196 10.015971778480885 1.969464507324363 -0.8177954104958947 0.2160929931759633
P 1.5808366450769227 3.4046357970297687 8.633644908814407 -1.8083221593526664 0.876834109726606 0.10465803973172298
