# total energy = -340859.09829071804 ev
CRYSTAL
PRIMVEC
9.40004783754148 0.00000000000000 0.00000000000000

0.00000000000000 9.40004783754148 0.00000000000000

0.00000000000000 0.00000000000000 13.75792018163891

PRIMCOORD
 96 1
Ni 1.5161525109549452 8.03065824288582 9.054458809802663 1.4830608972794523 0.1853477415733066 -0.9031796895996703
Ni 8.7054218746461 7.351081786648142 0.9946491386564604 1.3119079591492888 1.3802674215602937 0.11634858869577382
Ni 5.847252738368728 4.995852808259156 8.238132338072148 0.46040564331925227 0.49277403234762873 -0.037295394016348675
Ni 1.8435185758962749 1.1469750333661963 8.111903796090163 -0.7415218354441357 -0.30913324616309984 0.4444534908653701
Ni 6.430939306922881 7.8345920457185825 1.1799081008595045 -0.9619044571343885 0.3039041365536766 -0.4630610786642283
Ni 9.080925584409245 8.409931371819743 10.271842081256022 -1.5578445180492462 0.5368620238057787 -0.10020206084289841
Ni 0.829666079574029 4.693002067999586 11.246907160310496 -0.8548460354912891 0.10686096092031273 0.4188447891583303
Ni 5.093998707416464 6.384324469845868 4.324953536152509 2.004544895967264 1.4948406635231999 -0.003082752690381788
Ni 9.145804714376082 5.704080610213862 13.224607658638618 0.5628162817776953 -0.3915700126027773 -0.031184653132920487
Ni 3.4368924795892037 5.218116938665684 3.851240946911746 -1.103127954694971 -2.138024745026686 -1.3277510968291326
Ni 7.413140902272751 4.931725682116913 11.016131286614348 -0.9179766454031868 -0.9006384112350553 0.40467466830553533
Ni 6.974478271291528 2.806497073479964 11.95969116543746 1.3098929856017891 -2.0892334345555956 -0.8715980581386474
Ni 4.877647207080806 1.7605725540435702 10.75530910010655 -1.2633714450014824 0.563003715198153 0.5031772299588237
Ni 5.562478290042835 0.7159612212858734 0.1681452351648487 -1.6745456049884322 -0.10456933667265861 -0.08809190784292571
Ni 9.36551203177899 3.0512085180506197 0.15527844972604746 -1.4579178223549214 0.24331917588176805 -0.4723422468558381
Ni 7.773002932484344 8.232684070362966 3.125124853979513 1.7294209168700732 1.8790776327996737 -0.35575197446290346
Ni 1.7610895566729785 3.193647442476507 4.041264793348373 -1.0992075365946425 -0.6163769886129707 0.7870349893845865
Ni 0.6320610945807152 8.745898480504865 12.468542073387155 0.41284280593862444 -1.365809337153435 0.38597117835876105
Ni 8.652386804916617 1.4337140916838416 2.198639221993803 -0.5263688375839386 1.5988986077770788 0.8731144947831738
Ni 8.777200639703585 1.146213629493795 11.712571428618546 -0.021149637494421638 0.11116627316388596 -0.57599421392055
Ni 0.36902707682383035 0.053326471211513314 3.8391064251971425 0.3363949100925303 0.0705137897498463 1.5180453837744372
Ni 2.692258292476347 3.3604324907236216 11.126828129604126 1.398844927452165 -0.6416843570295078 0.07466663557595528
Ni 8.872263323180059 2.990559409597123 10.242152030256277 -1.2403055643209542 -0.4878845654658113 -0.30874552380637793
Ni 3.843388146973424 1.3027056253917808 6.8435609854632 -0.7388404319572308 0.13352021537905392 -0.8324249874836115
P 4.76384082827633 6.8465342205846875 8.889927893019768 -0.041685295553928206 0.6181559348902645 -0.9358118738123948
P 0.20253625007308818 9.365389831157493 0.7900185579318784 1.5908723950384924 -0.10263998086042969 -0.05905026919493702
P 4.9720142870195305 4.4640169034107515 1.6414852283808838 -0.7953933886516108 0.6735629509056593 0.3331023553841876
P 8.455643804307243 7.941884191392514 7.904901583303769 0.4946630218402255 0.4599307605653627 0.6783775986854833
P 3.4927381636131067 2.8879954879703256 5.07840590811351 -0.10746234194973751 -0.9444086143424703 1.1179485646475715
P 3.8545272036252207 2.070012727816143 12.876271027043707 -0.4712621264177819 -2.3894356967776527 -0.4891660032813962
P 7.052103866085231 4.152085716969211 6.302874935604105 -1.8627904656038758 -0.9109122823572376 -0.21978509731556986
P 9.352934767812657 7.328878873727008 4.392600980198631 -0.5517055165765145 0.7905563722742837 0.6084883298935133
Ni 2.4548318849564454 7.622592767517761 4.163724856164363 1.290763720971506 0.03449623400465672 1.0319320512764358
Ni 2.9559202334267676 0.6030713471426212 4.10975260166848 0.3869430553537271 0.7293828860887568 0.10930402314416658
Ni 9.174098858276427 0.13023296234794837 6.291868419626393 1.0095354287487905 1.4600680359287048 0.7293440624310212
Ni 1.2208124088935075 5.724375313430089 4.00542617107779 -0.9845527906615239 -1.5650898867577498 0.685151169963891
Ni 6.320281944133892 4.136895239712414 3.4880183996089995 -1.1872475081537102 -0.6718642230469977 -1.0343735708383928
Ni 1.1714245577133047 4.047942587310766 1.8406449812815455 -0.8309977681187818 -0.38202736321966463 -0.47106955079100166
Ni 2.9712893115919052 5.057047119485483 8.89807209444012 -0.29926946599514265 0.5306890622258473 -0.2265231873703518
Ni 3.364577911806695 7.254374094805369 7.051250341744318 -0.9080601576204232 -0.6482589249232319 1.5811435977865027
Ni 0.421794245190802 5.740815997045273 8.43649402691396 0.34172712093872115 -0.5150387572831001 0.38683146947652736
Ni 6.168236170848818 2.8055100684601846 0.99738361256364 2.0154718272924126 -0.2885939885591675 2.054133762638985
Ni 5.238280041212607 3.7101142691597744 12.977103459864377 -0.06051117001117966 -0.39558633285102196 0.46849896185034795
Ni 1.6126910019371843 1.1405736008093408 2.1519454245152074 0.9405902690376445 1.1499680549769613 -1.4229523620233298
Ni 5.821872609288685 5.880209305981555 13.64371537016606 0.40979064937586196 0.5004148367223382 0.5885717934752445
Ni 9.006063603670924 3.8204802304667336 3.659221470325603 -0.8372265226373129 -0.9478747185141998 -0.520475097807323
Ni 3.7349961957060245 5.209901296881996 12.766084606649871 -3.270704445236844 1.2914319506831242 0.26591017380840654
Ni 5.097617725822323 2.017795462245906 4.105445499763118 1.1683128760327361 -0.8585821054949536 -1.0957812845219128
Ni 6.8766613738074795 0.8932621030151524 10.161847421837455 1.1642939846813303 -1.7030429410971766 0.1632866480082091
Ni 1.8418265672909386 3.3667117226589807 7.091396065920261 0.7487399504591299 0.025216608474943666 0.206686869370715
Ni 6.251388993753285 8.365882747794156 8.118934091845334 1.172121451145549 0.2514150655160251 -0.4532338081611614
Ni 5.939410807072708 0.8221939815719082 6.072911226038517 1.7234107061202513 -0.3435479761975438 -0.29628647210741876
Ni 7.769966717042546 0.8249331555029913 0.22680623350707482 0.3569079424442176 0.02089406984018982 -1.457782839438954
Ni 0.7414513309252635 7.360651035316098 6.540377483511247 0.44540222793188455 -0.5995275211557998 -0.14691617706998572
Ni 7.363010447315761 6.799900583412059 9.619840665261421 -0.1515099670882552 -0.2593813715509533 -2.0339529168157355
Ni 2.060330678574497 7.118270802601685 13.432641996674269 0.43863019931537356 -0.5598739113199197 0.7163509926054631
P 2.325524827317528 8.907898904418001 5.93681733388264 0.18335616506457456 1.1946995935563811 1.1273354051791102
P 1.3635521348492328 0.637085420133783 10.16634628471809 -0.1533840441825165 -1.3551418301372595 0.96869371214208
P 0.2477721001367521 2.0753895551619896 5.2135635555077675 4.5888481008832 -0.15356453562443875 0.2416916675806741
P 4.795312188335584 3.9594505372516817 10.885362521541374 0.8253626813201914 0.42426647439453385 -1.8655785698719742
P 1.1509982538277734 6.078672515339687 1.9228211392188221 -0.46892113698943116 1.4445717400653186 -1.9637666856086373
P 7.5380393374899874 4.267095301893037 13.381187074981215 -0.3612417939328811 0.1204700670633151 0.7091179651921335
P 7.128056252369213 0.7861993185077222 3.6058545789085175 -1.1033151310051128 0.9383025014447324 0.936843914621335
P 6.769124826890555 0.04029706494564365 12.155562781615085 0.46337860990464713 1.4008493594767035 0.24127797708202317
Ni 4.463236699442735 4.4901584363631954 5.9438889898481655 0.7811525624618805 0.8631165030301973 1.2013965459605827
Ni 8.530881786957861 1.315517890553299 8.39607382134204 0.15194319797093186 -1.132097602454444 0.2882800568631745
Ni 4.709141950084933 6.263844057098122 10.96145778855203 -0.4579432978216887 -1.2250686927665417 -1.5100479673912575
Ni 4.043195563168017 7.105712338730967 1.7874425907010902 -0.14731032718461082 -0.4283411586845397 -0.10720703140582183
Ni 3.3737617585145476 9.226419524372545 0.03471813657193782 -0.6830909450007525 -0.00910504762506174 0.6458474872682619
Ni 1.5929603015894025 8.1653609279662 2.160186446427976 0.15896050982902946 -0.3639468515688699 -1.8195113432002663
Ni 4.043411764267588 9.04460379968136 8.755884151290692 -0.5583263643271417 0.2118105637505255 0.6051289265029772
Ni 7.763029481760667 2.2952566733776245 5.170831878180001 -4.6899166234914516 0.47409368232930615 0.03462221805955973
Ni 1.3780658086638948 1.4792667233586156 12.956397034554186 1.5860176380493523 -0.20209873577940032 0.14909415855791097
Ni 6.510181709939461 7.431489795592841 11.620035477992706 1.1704052397853908 0.2946180832660603 1.2538480788920792
Ni 6.722368989096432 2.9595110516892036 9.154272277441008 -0.24969988259713125 0.40672049509097047 -0.025103479935847085
Ni 3.358110678915188 9.274030766517145 11.347862733757445 -1.0981657255936894 -0.09734916477513557 -0.39517521345553236
Ni 0.018384613501758813 4.6264215293796065 6.011591894176352 3.1552804252378692 1.8227586464929704 -3.5127316417800665
Ni 4.584675917066839 8.401753330227285 5.5410020008172145 -0.6607107775333395 1.667098661792084 -0.6971625926024704
Ni 2.2364875744856128 6.421012856438242 10.97005601228148 0.07283189636006167 1.3586806965284535 0.01868369245243234
Ni 7.550673001743164 8.233248073231412 5.468208970601308 -1.1149187766823123 -0.8205531757466901 0.5697772864765606
Ni 7.7071743976889575 5.527378511529915 4.5352843058675125 0.8741884445736428 1.5894189504214176 0.6693903075852083
Ni 3.142529982499738 3.2101727265219573 2.242939767300628 3.0952076283156886 -0.8713383767193573 -0.48982034903594346
Ni 5.203819465950592 8.76674778654173 3.375230985986848 0.45757537295930867 0.5820571322851783 -1.2256793297673472
Ni 4.408481420964493 3.1599388710390865 8.416792466714382 -0.6215407922020973 -0.9666612550930835 0.1420717044934908
Ni 8.100697999098934 5.228908193548605 1.7450408550513643 -0.23057781705569966 -1.2564832025220811 -0.15314441736788462
Ni 7.803929089770767 5.984888238365023 6.834645980122638 0.7033047009444661 2.4196327891863234 1.8185780327527197
Ni 5.674968662154271 6.780837286458604 6.555084798310742 -0.3026674359330981 -1.4588264502121198 0.4474053744048424
Ni 8.718027338755855 3.471851257385012 7.507242900863306 -1.3321235148652155 -2.368377590555773 3.6479197317798464
P 6.750277731036672 6.54954911015695 2.9273553681495694 -2.302241361048332 -1.853255786640563 -1.3694996415208285
P 1.3390180100718576 3.4256312223159107 9.464004792700392 0.46500097599941853 0.5617251055960455 -2.534058192717455
P 3.9777900305239653 0.8308232254591229 2.049159661760155 -0.30072162506063693 -0.1084704714992777 0.09832284154231453
P 4.494858460266907 7.683110275301953 12.618034793687734 -0.8877821240976775 -0.36347531124909016 1.1689528236095803
P 5.784770620592785 1.0436497078669975 8.23115750259904 -0.8767402644612191 1.68996476775698 0.144861351423486
P 8.849975809828658 6.4313153088351775 11.232406646562767 1.1688926597956062 1.4279292464126312 -0.3538154195618229
P 2.1898821374564075 5.542070786252918 6.5984359387890175 -0.7553412578257314 -1.1684010648711685 0.17852249112135704
P 2.1154243587738057 3.56543813335572 13.302808536358137 -0.7340273268393036 0.8038435763014931 0.6971111705392445
