# total energy = -340860.2574877794 ev
CRYSTAL
PRIMVEC
9.34068517751409 0.00000000000000 0.00000000000000

0.00000000000000 9.34068517751409 0.00000000000000

0.00000000000000 0.00000000000000 13.67103692821896

PRIMCOORD
 96 1
Ni 0.7230054660446759 4.826210633239739 12.70285461380427 1.0913407322520559 -0.6459469889606038 1.002914580998163
Ni 7.913307104189722 1.1840252606887136 4.084536873679661 -0.3109774984606902 -0.6428932897359445 -0.8384570526103043
Ni 1.5185058583536089 6.8686075045015835 6.162151864560475 -2.1289790898846497 1.6302562961527536 -0.2689237638237498
Ni 5.4211188760076805 1.5773988787752116 3.1001809028304876 2.299930710637284 -0.379196835749405 1.3892364578281238
Ni 3.1523691793887076 7.766247355812608 4.322152697296007 1.0093932467439712 -1.3147960793303612 0.20217458332265825
Ni 1.7801664739079868 2.36484666634101 0.3061970027661464 -2.4683541656514265 -0.4683426387781418 0.19064061454112974
Ni 0.8014046394474732 9.313998899644414 13.080024011140983 2.6674513956003416 -0.04742579758213123 -1.6532519857169783
Ni 4.549231293896079 2.4560584576839046 9.600376836473915 -0.67668761257757 -0.6936244975422249 0.3970834862218387
Ni 3.7515461153101253 3.3071069710309384 -0.013701851174694493 1.181442728546475 1.2255104082896506 0.3216614605370976
Ni 3.7383383863844877 3.1192377688517645 7.415539185684834 -0.41690129227871425 0.39555702227498324 -0.46651664131299647
Ni 6.197544654993385 7.975702881575338 3.4470565898053698 0.7226034012730781 0.5035448977108875 0.34394238342248507
Ni 1.5850021965584289 3.8809706499590906 5.6022954772142795 1.813022907262445 -0.5005837582000346 -0.9265415042540625
Ni 0.7375050117386416 8.40387055217103 4.106300670282727 -0.423789020537483 -1.0510831702835899 0.5419749195523117
Ni 6.187410011510841 3.313766879605182 7.919030142034658 0.6394603527949955 -0.9379993683820168 0.6915028232135317
Ni 9.384960085392695 8.841901986377383 1.8016238960352677 -0.5993814824962387 0.40975054016654594 1.4022428973901204
Ni 3.412385834341309 5.731995562077747 12.360175696706538 -0.7819241505205824 -0.903488993309973 -0.34084831787819364
Ni 2.01924131255841 7.557912712278362 2.107171721177417 0.5290111603027922 -2.653201056328914 -0.4270862032315161
Ni 8.571741347257 2.8423238143047653 5.992261613326186 0.7083582042079736 0.5435903436685476 0.13896581187465742
Ni 6.730561517378528 4.503508639659164 5.9875174792941275 1.3820764497445746 1.5380709349667445 -1.2351921543537887
Ni 3.2274215852709562 5.685805873578965 6.080713232181439 2.8954745645549878 -1.5888548503878313 0.9775923001832907
Ni 4.2547194883618795 6.857305275364369 10.444412363344734 -0.6871509740027392 0.5161898401684077 -0.1080801780393945
Ni 1.9960670724845009 0.34790876676213506 2.5849057379852 0.4198071530715996 2.4010164596367165 1.503309620226159
Ni 8.40450571876717 3.5668060426854695 11.1840433150434 -0.023467744104637003 -2.853805981171608 -0.9375016028099918
Ni 8.3794913637015 5.687122910197434 11.261147869472298 -1.7822298331409887 2.3387361135402562 0.4530579447049294
P 6.45623493264228 3.3612269012962463 10.262970486677393 0.28962320115463025 -0.5810986250266508 -0.19855806961599354
P 0.8580801811937246 6.825602989668743 11.775630010140933 0.7700106869124481 1.1601905040359182 0.5070685945934299
P 4.909268006370412 9.074139443434053 5.1834834369523355 -0.9363376644088777 -1.0266492056109418 -3.47366424346496
P 8.4817531856802 4.7348400502478105 7.308290371857902 -0.1411985578599181 0.10722014403194438 0.736449563127551
P 1.6370204726453288 6.213442501267384 4.14133944874514 -2.1033781014870936 0.3584472619068795 -0.20288986422212799
P 8.940418193575898 1.1366493051647852 10.973795699172541 -2.0935721711402655 -1.7729196114836565 -1.40858066668269
P 5.3522967071787555 5.299306999827169 13.489486025480323 -0.9346811026420612 -0.6457274167506298 -0.588410842417348
P 7.768349009991015 6.488721835897844 2.8160970382952852 2.667005052091542 0.7767217803840365 1.0162084698935918
Ni 4.976530280764696 3.9093756737659255 11.80663548071785 0.5700991885923536 0.41286568875675994 -0.8797368851956978
Ni 2.723426231918314 5.410909507043238 1.017607876225678 -1.1350741685842645 -1.0909558381088114 0.26037073204741606
Ni 4.024835883985026 7.406528226636344 13.825109923018273 0.5217462512102627 0.7012290493623601 1.0894540567523043
Ni 3.8238990631587746 2.867879929114203 4.167424246339013 -0.10663958893812603 -1.0724426097959725 1.9225575583601793
Ni -0.08347957210340147 3.511116877300284 8.938520166335666 -0.9899670196985595 -0.11702041795181782 -0.12990704410649886
Ni 1.0437748718496394 7.249016251478615 8.456520258579976 0.5395046036349483 1.3035133073276908 -0.10173058167228285
Ni 2.1185421373168647 1.6361144261773042 9.812947480763306 -0.06151801400913922 -1.3232683784674306 -0.6258268211719609
Ni 4.219663896666039 9.247680034459105 9.357305118610421 -1.099000562790159 -0.12738016391958706 -3.527313396248983
Ni 9.14837920970065 5.337248863261356 5.362874099141551 -0.3666603938452911 0.11295087586813449 -0.5905114337001185
Ni 3.3740423214419146 8.090976278089691 7.09558241949552 0.40665621751193837 -0.6962879033070009 1.2424043558315119
Ni 7.644949217320152 8.095207608502218 8.13969449008223 2.2865447762486815 1.0719942094046442 -1.6549118899179047
Ni 5.2867064154419605 6.890035036436105 5.734562382380976 -0.7288912911643189 0.11140949952294361 -0.36326448078986473
Ni 8.377567182542602 8.256035526919213 13.67033943897771 -1.8491440784650348 -1.6383064201507398 -1.1646539391239104
Ni 3.375060456132788 5.1325851090253956 3.7817230671064888 0.2931564111188693 -0.2880597133222523 0.07591104950601765
Ni 5.647938735626677 1.592381337895949 11.905286193783784 -0.5000692804574614 0.21795730007821176 -0.05136935561091153
Ni 6.409923815235412 7.656298149883553 9.909109835282004 -1.6778291608357105 -0.7752143426005746 1.3256913860866264
Ni 7.361571508588894 4.193201735388576 13.117920105217506 -0.4448376136776661 0.6196021804184877 0.23238041748207722
Ni 6.123697197506757 5.354417042727638 3.5149465582476047 0.010070239751808463 0.03859354400248192 1.2875328727390343
Ni 7.136106048329316 9.080612538303548 11.704129866854455 0.7517746235203956 4.037331817499356 -1.0130899788692682
Ni 7.52023238803082 6.837932694182069 5.9944762897959665 1.420922476077495 0.09804721928342468 0.07516620092019312
Ni 2.071670578795754 3.967708253073286 9.729376369944578 3.238701667078003 -2.6232240503508497 0.774311371170331
Ni 0.915149899856993 5.652590396874886 9.93628749304865 -1.4320424972500563 1.472079201456968 1.095654014915429
Ni 0.3878915699206869 0.7766097904848809 5.6491044531443 0.042520646971029995 0.40759158484201413 0.5792289188077637
Ni 6.284777314425161 5.966876433056592 8.02679923202931 1.042494400173314 -0.33857983355899113 -0.6884378111349627
P 7.098332317229401 7.232529942034661 12.223642900591935 0.02162349180704663 -3.821530387421883 0.5606740386237119
P 2.5708554792511515 3.7199559178373485 11.83630149703173 0.7241692030983011 0.21091479140913355 0.12969415676474438
P 9.445861353140332 8.266291599309843 6.810472947721255 -1.486863301744678 0.767895183231342 -0.579239460330725
P 7.330140102765152 0.35595950336822213 2.004433524251611 0.04653336767484889 -0.08303660480720537 0.6085019567402682
P 4.7655148605673245 4.187886885488514 5.578562664163176 -1.4518531042180802 -0.29422007649669324 0.0417202625569217
P 0.5584702296569699 3.9697071597140825 1.3655680167566187 0.19735222223335044 0.7463699075650565 -1.6295456432389743
P 4.222101815512992 6.302038900743816 2.256527409985877 1.2017503297555756 1.5753164495817644 -0.31103431984055463
P 1.6238687878311153 1.9420592304420414 4.074967341653977 -0.879425524602866 -0.2323361945077031 2.823200340470609
Ni 8.913535701462754 0.9130547841582515 8.748697826873357 0.6220953791539867 -0.11822343712098347 0.04954052993228888
Ni 0.8816000266214162 4.232124370772687 3.498691897797537 -0.5009174873903696 0.35989967808268986 -1.3484415352989487
Ni 4.794078676023195 4.003810001515712 2.234858888372232 -1.2268633227731194 -0.8731116665696963 -1.7147460884667178
Ni -0.04207138037762728 2.1313482167772952 2.4106412438542524 0.05627347778074825 0.13359092071598927 0.08623634269142567
Ni 4.914041096526706 0.7790196872761217 6.962386116147706 -0.20051159379793854 0.9190516236349203 2.269018080218828
Ni 2.88240469465831 0.36229996050734725 5.468743293758922 -1.240467286709799 2.3855512741215823 -0.14228921982093556
Ni 2.4288397009022153 2.711208615627837 2.3985151662791013 1.5547167710535417 1.899067188547723 -1.815729764670647
Ni 8.613484869582797 1.3686812671462332 0.2537359781989952 -2.07583772997498 1.109504033424644 -0.24892340944242294
Ni 8.6591047762821 7.804105153079658 10.19334408484953 1.930812342169804 0.806838911484391 1.003718307846381
Ni 6.424812867503775 6.4968015286281675 1.2879441202285227 -1.2841071348869368 0.277504049293593 -1.4143612779202093
Ni 1.0058049863597402 2.26414473879695 11.792828079799973 0.6858535953475544 0.826667516174544 1.1566686069255887
Ni 6.34598682478563 0.7630368407664622 9.634676766734051 1.5888126842959862 1.1066238836633715 -0.8099807995474825
Ni 3.092915717852863 1.0733101185701956 12.547523688649466 1.0214139253539312 -0.8973036904348677 -1.013683646589209
Ni 6.868103107498765 9.098686764237854 5.814100185314209 1.3894079504089814 0.056155978366277476 0.46885480252786993
Ni 4.4539563044749295 1.381870314701396 1.1811903627191724 -0.6154583334534433 0.3423452141386943 -2.3158589518317663
Ni 1.2705480280424495 2.557339507712681 7.272813515257857 0.4814058997200032 -2.1648518925218587 1.4821368428032862
Ni 6.171390736328755 8.848683323859712 0.2673593676176958 -0.866173030468334 0.9459661886375774 0.8023816470439858
Ni 6.4045902839648745 2.2209627509446 5.616827715306576 -2.201277996559377 -0.4806908759308496 -0.7547337061487195
Ni 7.0094556971958495 3.6662749997781967 1.7290038045888299 0.8826216629426606 -0.2579826914312138 0.573935017398676
Ni 0.1414263811104587 6.4398793927916484 0.8921120337875497 -0.16965012833239168 -1.176977750796586 0.8787164143509834
Ni 4.213153439055594 8.842602537770185 2.5315891066503062 0.3313488630281906 -0.6546766555241176 -0.7455181010877225
Ni 1.6610727371315501 4.93109718777014 7.730260497798601 -0.8666139746604946 0.6752125706939405 -0.43161288745727605
Ni 2.2795848914943186 8.315675802159806 10.523827803301357 -0.9883379687355689 -0.20400315189096482 0.7416671027727485
Ni 4.972616533650238 4.803746285243871 9.437786330752628 0.131752839065986 -0.5482792645037848 1.4043182918619104
P 2.68401788090186 9.178783140148282 0.6683615233375518 0.5859071021588877 0.12922801576160323 -1.0386313176734823
P 2.7476933321649946 0.9567570481783232 7.834447435004722 0.4557293208895054 0.24496519612562329 -0.4462998000454894
P 4.592469325859853 9.053702024134692 11.27287696792486 -0.01443108782366547 -0.5412760937130743 2.556194876715494
P 5.638112334756967 7.969547370003912 7.7014556926636075 -1.858841765368773 0.23973377252335487 0.19112681014892888
P 7.488399332741872 3.4410991007609764 3.914660633473228 0.4085405790188448 -0.4686455147305413 0.8086348270425494
P 3.538148820377226 5.855283266525762 8.456480093633456 -1.6510387801157438 1.0402878794402988 -1.0060394997803899
P 7.193495218427702 1.2465798297233641 7.43085137099445 0.2250257768892189 0.6895873513583736 0.4753676639457232
P 6.389112768526556 2.2927272356232953 0.10426820116768676 -0.27399706458159906 -0.38272104685257957 0.742929771535256
