# total energy = -340898.42681402137 ev
CRYSTAL
PRIMVEC
8.97717853309430 0.00000000000000 0.00000000000000
0.00000000000000 8.97717853309430 0.00000000000000
0.00000000000000 0.00000000000000 13.13900821030003
PRIMCOORD
 96 1
Ni 6.3685631080298 2.0135991134372313 11.292307672696255 -0.12348494263023896 -0.5249087080986443 -0.15851108099643668
Ni 4.643741875668302 0.40916902779080383 5.820515331923348 -0.14203365216670377 -1.1217257723018166 0.7266945406233163
Ni 2.7732659205869012 1.5341369818041244 4.653258582697907 -0.2724158361374083 0.6354419756642218 1.1486228538029766
Ni 3.365885388422433 4.319863226282257 4.7565446133161835 0.08604968060191633 -0.049264393452766765 0.17393461464035853
Ni 5.0786951558225 4.3673525010550325 2.812483623001333 0.4034089142192343 0.671944698575946 -0.8503625457986387
Ni 7.204697522460093 5.990713660924678 2.5959002121945343 0.0918241211918483 0.24808728669437272 -0.3854983524874006
Ni 5.1485016965849 4.718324275443767 11.261234066704104 -1.006189395094693 -1.1196380365348524 0.591962050103716
Ni 5.6089232324159175 7.7494865827362025 12.255029282508572 0.055021607651518145 0.31308477461168016 0.5696495026494448
Ni 1.889130532203862 6.555171719504596 0.5570877949526122 -0.0019728074556546672 -1.1773621307191982 -0.9784639041549664
Ni 2.807738286395494 1.5530608742844665 0.4653957904910535 -0.02561152992051718 -0.25030332050908505 -0.9305166868517265
Ni 0.4130902594015312 -0.07927207787400971 4.650775495098257 0.4277909426080246 -0.010446906364936847 0.7546331760151133
Ni 8.61319888981337 2.201967251916841 1.4301417540767647 -0.34526418755770216 1.254877548597858 0.36924332408111893
Ni 6.797582473132052 0.8166296984947912 4.729688485828428 0.17573695795641991 -0.47437033302946047 -0.08802994425673873
Ni 0.8266616955758074 7.391476700328213 2.5027449276218294 -0.6454422814100432 0.09789321020406366 0.8621626237573603
Ni 7.615870256513522 3.9147231562453326 3.650502347218925 0.13362408794676986 -1.1819631198263192 0.531370147453272
Ni 7.4128603397438555 3.860752358526254 12.355502763072726 1.1929077917632809 -0.08282680278924445 0.7813459094196092
Ni 7.908634004885872 8.601770941460678 6.796743106933327 -0.98589259251887 0.7940096209302068 0.24290728515533008
Ni 6.8054285272249455 0.6927778494309662 0.43846066383165205 -0.809931691477102 -0.6297068729526575 -0.7881757878572491
Ni 1.913871636414404 6.427264878868964 9.29341766638855 -0.5712893522457129 0.04918237526192175 -0.7838787031437918
Ni -0.023565991532327288 4.714374316861533 1.1722408787819325 0.2688216910282467 0.46273017768737085 0.7855244662773311
Ni 6.331110318927339 2.047308419065165 7.0889412930541305 0.12058396693336007 -0.5468823841562581 -1.3059620259784994
Ni 3.3195721240457328 4.286171875011515 0.580135803279951 -0.14500816141399542 -0.14507783830966628 -0.19768697986494985
Ni 5.838774913187587 5.423032795228801 4.898445977665102 -0.1105756907677386 1.4019770453232434 -0.5810076079747413
Ni 5.226270994761943 2.8354059508283287 9.113163999641854 -0.00936755725782903 0.1934246050441701 0.47580757969661924
P 0.2295186274457577 5.6566189822964 12.308412972747472 -0.30026962512488287 -1.2892352001421215 0.23310906811798562
P 3.8858256183448483 6.001261845774964 12.54692493771069 0.15544838291071292 0.6985918688498292 0.2528872791861774
P 2.4267198952459887 8.438745378157542 1.435607060406002 0.4247472706856943 0.6532787467353265 -0.6254329281676518
P 6.163991162184433 7.659930249062629 5.845781601081755 0.22726597907364732 -0.29219070477149034 -0.39141420375120334
P 4.823644534731894 0.9431244289372749 12.42525813391713 -0.5938638951121191 -0.01512220035341912 0.8841946638567353
P 3.8707349811249925 6.021550269401896 7.9792413099790345 0.46409620479696195 1.028125790156468 1.5724815512361305
P 4.779135683252987 1.1386832874722708 3.6820095509372632 0.05177456146913019 -1.0829861896397737 -0.001692300100758376
P 0.24351584431262172 5.49651100203696 3.4796163663371416 -0.12413208929593461 0.08354362635061095 0.3328323895522526
Ni 1.4716647959546463 1.0387942212347157 2.707397668074561 -0.015307062670715573 0.5993927953501483 -0.730793136172722
Ni 1.7132945350442508 6.650293903907682 4.801111816455965 0.21835376418568198 -0.586005575409965 -0.9921935950362333
Ni 5.895474773199845 5.538425448901626 9.050253727476893 -0.17570636182880062 0.6152372185815727 0.30992231772329853
Ni 8.56198408592326 2.4129758348155312 10.023302683546031 0.23028008330962274 -0.5145852146854493 0.6437728641274203
Ni 2.1987803535152652 5.094477035794247 6.976984205629989 0.5654367501196779 0.0818829508187364 -0.32931640597919415
Ni 0.627913245485657 8.995671583895426 9.078765246697747 -0.8155858044390857 -0.08409744197155193 -0.3687188190362166
Ni 1.473280688101924 1.1156927330879463 11.294632761952617 -0.18035440212377324 -0.21204376280725415 0.3617130771423448
Ni 4.199434375417082 6.668023831634757 1.5927373105251532 -0.3487359481563865 0.824873914609231 0.1716555887981947
Ni 5.449874559230803 7.835290455756653 8.04734039137248 0.21347201061334847 -0.10662416231915832 -0.5475056195625538
Ni 5.393704352755709 2.8858217858233957 4.835549171268034 -0.2521953953254753 0.11519442048667258 0.1162855966683223
Ni 0.7900078753683897 7.352856878008275 6.8912656158062005 0.7457770111760641 -0.1586488921258816 0.4763763077158957
Ni 5.06473564310574 4.492305849932585 7.0154424387352 -0.03446409521514065 -0.18234340752934403 -0.0002784504723672624
Ni 8.0278240051048 7.0882186301771535 8.993191189449355 0.8812286392498759 0.4348290804017285 0.16734384879671826
Ni 4.568037328568337 0.20983436793833551 10.330256658125059 -0.09147856492697148 0.05912046031124012 -0.3522717292237869
Ni 8.02531937227652 7.000098645078938 4.7221862576757605 -0.3124620534260167 -0.011307454593019236 0.0036211416923550535
Ni 7.248434336579745 6.0022583125991185 6.974711184009485 -0.28579945653316585 0.20068514326132533 -0.5602035267451966
Ni 2.2515302549452887 5.2487408727877 2.5649316391919554 -0.1214486289265005 -0.5416841277847703 0.5140175151074373
Ni 2.1943546044674433 5.136193984729801 11.406432748751328 0.41093659005484706 -0.5484628412695006 0.18656644447175613
Ni 1.1203967746722439 3.3726900897981915 3.851437638015058 -0.012190114308288683 -0.18965742469225402 -0.6925268936026718
Ni 3.5578264439832457 2.603166340550127 2.6141768500981053 0.11921614005155598 0.3871505433788429 -0.23302036505892126
Ni 1.0105520173717384 3.404693731492888 8.268982442318116 0.6072886531584573 -0.5543295844629228 -0.4364686728876806
Ni 3.7964937141361745 2.5888926265825063 6.8182784606672415 -0.7087387274758439 -0.4531998695994324 0.3801103487026099
Ni 3.8383183892148813 6.773945561888816 5.962599830715624 1.0154186270024448 0.7177162483841059 -0.6691113428922089
Ni 0.9166417520791112 7.554322720059431 11.719089027174526 0.051065708327563665 0.6835280325381712 -1.5821296158488558
P 0.2598552070751789 5.538838399117042 7.937156296721045 -0.09454666232933394 -0.2970202649496497 0.7096874645423584
P 8.358731785331504 1.4767009931469954 7.830507415000711 0.8941376340020603 1.0945145019943472 0.3349270672977522
P 1.8913478953170708 3.0606523389802556 10.326287847467775 -1.146187761998923 1.4255491762162287 0.7412241016980589
P 3.9258728120615496 6.182044268340964 3.7171309667583454 -0.17803423863102885 -0.5737951493867022 0.42188691841876375
P 6.856266289614023 3.948037466015043 10.225761401549903 0.6741023683488971 -0.024363516446029007 -0.3466047607459966
P 6.314242200345479 7.589279853512206 10.071483201070697 -1.0294465658504206 0.33511990003484865 1.0330952183466016
P 2.3751370270334435 8.588583466103172 5.710396770675665 -0.052355887893896925 -0.31075381248565837 0.25697096233724775
P 6.880540580537574 3.890718180679661 1.4185665799950982 -0.16397236122132405 0.06765806546860606 0.8316402867987871
Ni 5.1806669274943244 2.9169725955514725 0.3667922562284439 0.27262640948631756 -0.49129924757431515 -0.4435199233075071
Ni 1.4457746128838178 1.1763156201466514 6.95295319624639 0.005158147162171761 -0.20115874046363422 -0.01127557291381929
Ni 6.833320621122679 0.80495308229499 9.15523464941409 -0.7184469559025434 -1.0553002936887308 -0.060947229107333745
Ni 2.75993481037186 1.6047873773545478 9.046194247315785 0.21349360787990326 -0.7454257984842323 -0.01412641209905309
Ni 6.292795720679663 2.026023528614078 2.3844670087482536 0.406137626004307 -0.11503449787004058 1.0499328587292305
Ni 4.041292397270163 6.7740712423891605 10.481131610198526 0.1667085292055645 -0.0073438419595809 -0.927790289059499
Ni 8.258151476342057 7.255005631312009 0.39917922344918866 -0.5062304149628507 -0.5975233462415774 0.07425371640825276
Ni 7.6223248479240375 3.8315047106605267 8.133177479953734 -0.010136059992737383 0.048561710958787335 0.1308544956214327
Ni 3.174150807969328 8.195724176385559 12.376644018666276 0.2739163319423347 0.8400920171105661 0.18206290017444773
Ni 0.090440585765278 4.945096783957012 10.1586480143663 -0.7002299186738844 -0.7618790589442492 -0.14059434861701595
Ni 8.686174374620155 2.396637369770834 5.698112399484915 -0.8276350222941359 -0.1823503495078795 0.5100729286373925
Ni 3.761904645005834 2.574645844150674 11.361431947885361 -0.15337016022544553 0.3894195419186777 -0.015987890787824078
Ni 0.919702969980343 3.2031381176557723 12.602844680902958 0.5032366224418495 0.06884745779101692 -0.8378289321080022
Ni 3.0299593653605736 8.223095593924725 7.891721898128892 -0.17579943576323917 0.28075340946882615 -0.019644513703804878
Ni 5.584568146885003 7.731514271187036 3.6608171254257145 0.036682700133014244 0.3375231101597026 -0.24564936667684145
Ni 3.1190488857471554 8.408707738575366 3.529190141979905 0.7553970507643313 -1.0265553603455546 0.20405225996134535
Ni 3.436185674007613 4.367657725127295 9.299606533312625 -0.2225955701811715 -0.1859025856355121 0.009479914465977223
Ni 7.1659430424612145 6.06711842795513 11.470919413477747 0.9069658961149799 0.5705686720296045 -0.9618121545308983
Ni 0.5333620096412763 9.223961235591393 0.5055641761188004 0.8409229976522936 -0.6017821215179313 -0.6406142638937806
Ni 4.574743280979539 0.2571818032892938 1.5388930910242786 0.3241361473298353 -0.4223510025393759 0.14010506768542325
Ni 5.943888697368006 5.566622766871624 0.4375369121541249 -0.05436520501444184 -0.0860558512495034 -0.4941896817482327
Ni 7.8980050254282235 8.796459013671862 11.112434638322028 0.18831685150395955 -0.17085828970787992 0.4080901217449875
Ni 0.1485085677955648 4.841670709352638 5.697796402798336 -0.5084531336457824 -0.08809319339450634 -0.005813007137351279
Ni 7.912655780896874 8.8599186891669 2.4247386319298543 -0.3050251375319973 -0.5258566738342104 0.7314492816994823
P 8.506020354555874 1.5917255824973855 3.6132928396564155 -0.5858258552989911 1.0611063588475467 -0.02448024452955139
P 1.7195785600614424 3.0891099951295367 1.588243334920002 -0.46875812904900566 0.603932849312347 -0.02539915679939497
P 4.645187201422255 0.9314271652267029 8.169638290821338 0.5792497447433702 0.5107380730252172 -0.7867503682646322
P 8.322060010766894 1.5807554702530886 12.357474151492404 0.7837182663065277 0.7325363441160738 -1.0614696557242362
P 6.350878066195705 7.583803774568653 1.388149205758313 -0.8243424675857931 0.7199574790097989 0.09748723301489663
P 1.8566241685077904 3.1521118345161785 5.991663446420134 -0.2855024941180373 0.04941763120117941 -0.20428674456965462
P 6.952079716769 3.94146617128278 6.015077723634189 0.5596653948535393 -0.057999973553551715 -0.7842412286895332
P 2.3540945204044483 8.395080381466657 10.116418468532913 0.8563223629264993 0.22360369973071165 1.1261758376533704
