# total energy = -340860.45599428046 ev
CRYSTAL
PRIMVEC
9.32634442020131 0.00000000000000 0.00000000000000

0.00000000000000 9.32634442020131 0.00000000000000

0.00000000000000 0.00000000000000 13.65004778030849

PRIMCOORD
 96 1
Ni 4.760501999078078 5.462495952229122 12.045184742366361 -0.3222088484001354 -0.37410039506310405 0.2921976467500258
Ni 6.9949449281565945 2.3875442009654253 11.111739829524149 -0.7284531751856358 1.1857701522772353 -0.44293062646294046
Ni 2.898161564257836 8.542399992440915 8.72349988325641 0.2361625102323288 1.606623230114846 0.08633687282503195
Ni 1.330710817290429 0.8250429450427543 3.3719034938932255 -1.9285407725268078 -0.6491873502747723 1.1119226701684657
Ni 6.973802105095702 9.174614235780933 5.503180264994246 -0.9682021172176422 -0.3066477607370848 -0.512793155782033
Ni 3.7957849203754854 1.2395178204269914 13.196347572571923 0.6263091601250181 -0.028429201874970392 0.5643944248980924
Ni 6.668075204893173 6.915447167340075 5.819411427046569 0.012384746817598024 -0.17681630706352774 0.24599646560361504
Ni 2.5593820990231904 5.181446559666259 1.8263901745410958 0.1916762548944957 0.5310659859492918 0.30845241804599133
Ni 8.893480906117253 3.6462463121009554 10.457260803875675 1.658409618658518 2.027313042901715 0.06410814333381863
Ni 2.268353517807854 8.526032257781955 1.2454279249588347 -0.7609079532802314 -1.7748484530752529 -0.7729546000321205
Ni 4.491772707645977 2.6787499827269268 10.414494851010337 0.2021054206476197 -1.9977972928307854 2.1143513126691458
Ni 6.4833856040661475 7.1874313530148966 0.9289141746670992 -1.4570135653730971 0.27865410373763616 -0.32619380118981245
Ni 7.9665448491260324 3.6257376804684442 8.25904326224009 -0.7004872861003292 2.110514712531875 0.4912817640728184
Ni 2.254149495081017 5.731243896350294 12.649663369693679 1.6024973808719305 -1.263908805562191 1.5260191460085333
Ni 3.269275465995399 6.747759492600394 10.867417581740199 -0.36889982469877114 0.2859534656125268 -1.2873287271480283
Ni 4.319701650974835 2.7591897043414844 5.279333074002481 0.27140873502913254 -1.135045115118542 -3.390127559092884
Ni 9.182345775400465 1.5131341163954433 11.118196457845745 -0.9657017193932916 -1.896460347052495 -0.21702733206477462
Ni 1.2330733163532919 0.8084178032746254 7.8836942674491715 0.24924248334473847 -0.44284937960304377 0.8980128006867503
Ni 1.8074828762652473 6.5469726211059225 8.734352017757361 1.2839963203406854 0.04539591163629601 -0.47190490220810344
Ni 3.3624083425221207 7.358765628467771 6.558465475476428 -0.31972979073202357 0.04737000464353132 0.5212070908773411
Ni 6.882618434576799 0.6182368507853803 7.579462380275606 1.107872411358492 0.5604675790398606 1.1170849310956954
Ni 6.417411042825408 0.8750228254059328 0.1835648436761011 1.8197782237084081 -2.556605996110984 -2.21137317601185
Ni 4.503244111424053 6.957107948378014 9.03208624069338 0.5157185569589441 1.0812622649701313 -0.3953438778229127
Ni 6.938306037795411 7.6023510950334545 8.402450731617295 -0.9294075129479477 -1.0742881476451434 0.2298669070316041
P 8.148166082601035 0.110682259038271 12.811525809636786 2.137497668878622 2.6115640975144183 0.02338392614157908
P 8.468759175992389 0.8099249405514849 4.495670187027162 1.4064903598125646 0.02663765719218638 -0.3997052401154019
P 5.2303259313743045 3.279431855194037 7.002679265679489 0.5467409734823874 -1.5066248006423213 2.5257666421326244
P 1.9617499412190327 8.028145354779847 11.788986327451516 -0.7572531301364636 -0.4622429536383072 1.110541987770855
P 7.384161264636634 5.525663283764821 7.233228367854119 0.051576072305078914 0.29904449446853015 1.4701187352964875
P 0.6016415533197635 7.335347177340333 2.4276064465500626 -0.14805826109422887 -0.5271543095997115 -0.21894897456751972
P 1.8090217231135257 3.475238458706807 5.552635072160102 -0.0017889735796227252 1.5025976817607993 0.2595891166863852
P 5.43483401433825 4.579645525854946 10.17646602051862 -0.38681372886471443 -0.11060345868188048 0.016974680181125607
Ni 0.4785869656213335 6.842673700933304 -0.13011649578034817 0.22332576347897667 0.9654258400240857 0.8254673252188558
Ni 3.0543964879085106 5.113923825232706 6.83145317582322 0.31043910945871694 -1.0382402528826506 -0.43632083445590664
Ni 3.848031102460674 3.4114555884317967 0.7154210913781153 -0.8338498928555961 0.21304443615762664 0.808654110316259
Ni 6.762513769654797 4.956672330027713 12.879720973511313 2.219670125913319 1.095044149245572 0.20916875525230427
Ni 9.10716611210366 2.746039558547105 4.002412881452241 1.0962589954892796 0.2752633328885324 0.26003648863644896
Ni 8.879892422129728 6.210897795786433 9.180886202480734 1.6225833529885278 -0.875950421570072 -4.5482187573976125
Ni 2.8011675810936154 3.2083091517699653 3.638966167556918 -1.4012198554422448 0.09581858706322208 -1.2468181686284914
Ni 3.35141258231533 3.661550843482925 8.847510421269682 -1.252847405541707 1.0275341793190562 -0.6773383587876914
Ni 3.1841352667351908 2.2296585143320518 6.998884376088188 -1.4284522087956368 -0.2669910655774112 2.648095873891865
Ni 5.530363761410472 3.155009092752319 2.932412564562701 0.20434845104552551 1.4268519541880522 0.7806239436519201
Ni 0.3095404424828999 5.307156357653809 3.4312125166947856 -0.6364372496979555 -0.15444925222223724 -2.258990777889813
Ni 1.296865512972837 1.4501160063723053 5.771459093985305 0.830756598642253 -0.8164417246814778 -2.645312397609457
Ni 8.201037129770071 5.728044960174781 1.1474985094377514 0.6869784529806169 -0.02804353640077751 0.6338090680464891
Ni 5.375807579776101 1.073396971569194 3.8024252776844203 -0.33798128074304373 -1.579670869895718 0.6630543380648516
Ni 5.106005758722473 5.102125999395904 8.123157489730376 1.9867379496928297 -0.5371091068195781 -1.2483027235938178
Ni 0.9607813613088132 0.3264537682971608 12.665456601529282 1.880970478947012 -0.475135236219943 -0.0749016344048968
Ni 5.472419182814385 7.899684285154466 11.10470963101365 0.3000927332273864 -0.14628162880978032 -0.1466014740430443
Ni 8.19405169771334 7.830380218914723 4.117387124245528 -0.8566748611699117 -1.6201359198893002 -2.6265703411152637
Ni 2.8375683038138027 1.2477716353404853 1.8537993684950695 3.076452973416005 1.2307050651167128 -1.253829309839002
Ni 3.294354006450071 0.3405785170954504 11.097147830864655 0.6114037037680954 -0.8986877152665877 -0.8059883905586377
Ni 0.6817334022831651 8.413808353992044 10.069749323176639 -0.4661654286211649 1.4805538145868824 -0.8333372148852358
Ni 7.76120672149847 1.7802965819456604 1.9086587923189713 -1.4851476046051522 -0.019218481909979806 1.56822123329788
Ni 8.899160649939082 2.2149695216893934 6.851027307733322 -0.3124371137253522 -0.5418782460734474 -0.03441678691697298
Ni 4.670633343138613 6.916491717927997 4.59956100197503 0.10001925540813096 -0.6171228656400598 -0.8850906933084434
P 5.249510222082843 1.4621283381334125 1.6408854512017101 -2.078083331476047 0.8987427368742392 1.4886360773743847
P 5.326471217185838 8.556445467310658 6.834960814002842 -0.5670436895954815 -0.7221174627755951 0.6505747175406021
P 2.806110543697176 1.385792208114264 9.163154023616299 1.0682581394009796 0.3392611758967318 -0.1353976349074249
P 5.59574143660097 0.9957738060042127 11.57782016712402 -2.049395219512735 -2.2986395026296864 0.3457172159347207
P 4.107760471416479 4.906729755042675 3.683752206648543 0.6810335482510916 0.5053032751628911 -0.5255789946927916
P 6.235183596955629 6.909282453602425 2.9391965475774753 0.7580154622237849 0.017086008948009282 1.9226426618748176
P 9.017894342214436 4.773409659914547 12.77128543087153 0.18806668316636643 0.46276437335941595 0.09484079653098505
P 4.072031245502813 6.46520855856739 0.24666595816560102 -0.40505364891150886 -0.6228772516253337 1.0706803756892271
Ni 1.9259367782045513 2.419533562720548 10.87929281623664 0.6794446064974169 0.8403624971631334 -1.1243732372269926
Ni 8.494070875060437 8.429803034869606 1.111454985713255 -0.24407970819687644 -0.05050263673524205 0.8591382351087397
Ni 1.4538931759089888 3.2023216385784816 13.052380522522615 -0.5358271547833611 0.20731781808649455 1.3693890840848932
Ni 5.904574009533662 4.940127394822585 1.5702738314581577 -0.4367370960577188 0.873089297972193 0.13392593545790482
Ni 0.9357681052658863 4.184283128326328 7.47179066525324 0.0003396427276058667 0.49842017488981255 0.3075705296616703
Ni 0.723095740295984 8.405666455212971 5.078650657566802 1.4260389713684538 0.9614807393334086 0.5710610382849907
Ni 6.852848742821012 2.2451215935711164 5.85266264321728 -0.893695404258319 0.8420339713282853 -1.2663102159148318
Ni 7.390876232701849 7.626608917169045 12.54616892438855 -0.35590366954941927 -2.151244329040753 -0.6352177754685576
Ni 8.903422789391586 8.548508748111356 7.683352262589022 -0.9277262685907829 0.4387212163672831 -0.020122996002120183
Ni 5.9618004596005525 3.025671346740645 13.489018523059876 -0.9538327358698476 -0.037688772800025416 -0.15463000077447564
Ni 1.2525560500869513 6.023932566892863 5.241427079274341 0.9192123175825008 -0.05482080449462171 2.108539591083375
Ni 4.661027208267542 8.253078132275489 2.3162629496842584 -0.33045231935585023 0.5386828790646012 -1.0251355971798926
Ni 3.552861624271788 0.23822002055468583 5.8492641232687195 0.206210958175561 0.10906028256447668 -0.8941479184147053
Ni 8.406198056851467 4.716714811486153 5.542192364184239 -0.25274046919566795 -0.5968990823940171 -0.47052833357555096
Ni 2.6096324433778846 7.3477885209500515 3.4502130784159846 -0.9665326999350194 -0.4458079480107355 0.22801802674832342
Ni 4.9650846927983014 8.34398201245834 13.327320226780586 -1.1759868476382263 0.19753425633716945 -0.26180283650825237
Ni 8.263001362860752 2.6677635488646723 12.984198415530434 0.4785157226564017 -0.4702282858366289 0.15316421486222653
Ni 0.5003574516694335 6.390756350144317 11.246752656185382 -0.253762225591963 -1.7559284762422984 -0.01330623019060289
Ni 7.304103923148013 5.579597534210849 10.413048334972956 -2.939300303490686 -2.627679515019042 1.9748337420560766
Ni 6.1754670128978875 2.301937684478466 8.954199139578055 -0.14051001643332575 0.8960075973312635 -1.5098147683345289
Ni 5.39326649674566 9.332313395523606 9.241069103765227 -1.2245459874938522 0.27381425914683166 0.20966137861800666
Ni 9.047449528045918 3.5926384837136536 1.2620176266177303 0.3188137066756574 0.3396766661675956 0.8777147125593465
Ni 5.650860132802945 4.567885005396285 5.406988347460036 1.2163485392847246 2.2321435757899817 -0.6461742744800614
Ni 0.4025492786273057 1.0571318267001173 1.0039893829051127 0.7850732376725253 1.7159416514367158 0.752147176368466
P 3.3720238037377275 9.405898253904923 3.6373415183389173 -0.08301912130570864 -0.28968002253449465 1.1083035853586396
P 1.6186710311537431 4.721238088585638 9.639281632183746 -1.2425172272602922 -1.7117340411132713 0.8597812680093773
P 3.458236532619463 3.2142313805497036 12.238974057556206 0.3218416948687038 1.3003027708101929 0.708322980094664
P 1.6540645086641488 2.9836841436439796 1.7220628866689882 0.4511591850203197 0.7832680661429865 0.08691511392600516
P 8.914940824892337 1.6985045403735246 9.039170532002181 -1.020715870845642 -0.1597063868561185 -0.48249219080564654
P 1.126594440796955 7.4608517957481135 6.96283525655697 1.333492113077968 -0.628508224658866 -0.7836624733679278
P 7.9549988345916764 7.515317647832637 10.501637416442215 -0.3276498169100486 2.7807372862103916 -0.2223124917231139
P 7.711478652437737 4.0934165535216165 3.165090871194677 -0.7419779491449481 0.4608003076545096 -0.7166384419388948
