# total energy = -340896.0193383994 ev
CRYSTAL
PRIMVEC
9.05172509805576 0.00000000000000 0.00000000000000
0.00000000000000 9.05172509805576 0.00000000000000
0.00000000000000 0.00000000000000 13.24811464340604
PRIMCOORD
 96 1
Ni 6.524447063310423 1.9757652411279787 11.353236321249385 -0.1660593256573398 -0.17483372941586017 0.4239399442930505
Ni 4.597153808741786 0.35553274339480306 5.995129349392472 -0.03608491864801527 -0.40890593277806353 0.2805765175713297
Ni 2.708475212373364 1.5578471049104607 4.83728430170851 -0.2520043623605918 0.34437741407737466 0.0022399450741122716
Ni 3.3090300008425793 4.314015855506266 4.861514863953273 0.3672553471168127 0.21388287289852195 -0.6617546454168216
Ni 5.004300392390562 4.549614149841755 2.77814271783604 0.04457213018342001 -0.03036575677605093 -0.4612463940529928
Ni 7.1573255612107145 5.962199174396601 2.4967399802538206 -0.2152080194678487 0.5640231576016028 0.8430390155540319
Ni 5.228430151344037 4.201548174273806 11.864600844104439 -0.6762106729411516 0.41139681752071733 -0.47823830062529893
Ni 5.694449153402142 7.8128062160556695 12.516513309014439 -0.8980369690564662 0.41911038411489115 -0.5809631278900511
Ni 1.713735910237255 6.503972061704965 0.3056749377612811 0.8829854740399825 0.1411687330632472 0.6333917780034124
Ni 2.808913151283253 1.5319863270206306 0.3412464060677052 -0.8571178622446012 -0.5618153513170067 1.0043646831811281
Ni 0.6949688044929716 -0.2689023055675694 4.45045250413539 -1.3362905017587117 0.7033373539546145 0.3728791210614933
Ni 8.575423086197798 2.478679073665239 1.212590784735232 0.718904355154936 -0.2646706449743506 0.1273128010167614
Ni 6.767503978920403 0.8148706673428333 4.72062114600915 0.45071824082815926 -0.03265969501655021 0.4081824243484777
Ni 0.527228575823106 7.033172103199895 2.405499498961662 0.5870260462546792 0.7103567226952411 0.34914861021377286
Ni 7.471375154801071 3.6828028749779484 3.696700893309081 0.8772244031864892 0.2718131695564029 0.2112922293532103
Ni 7.658130341858465 3.896541253806284 12.480014944083612 0.32353193808693315 -0.15143489087594564 0.02421182135951314
Ni 8.145457104208015 8.937383459406941 6.746403503127969 -0.7612313980579213 0.3711523681783737 0.12708937215204563
Ni 6.9609031320159955 0.6819288896773997 0.34194700957091584 -0.34532203737883105 0.12608844169135705 -0.7614540555916886
Ni 1.7843031571497907 6.532656977747271 9.127407224306832 0.818595537799687 -0.17525796143747235 0.14357657117379144
Ni 0.000791120751687483 4.882952969082525 1.2891964372936568 -0.08434092544092572 -0.2479854710091858 0.23289849476907631
Ni 6.474825507695425 2.0534471437707933 7.170713967432921 0.02107276150989919 -0.11223302386550348 -0.9973838809879211
Ni 3.4385782868626174 4.3699374116152505 0.6736556131666176 0.493040398635138 0.27517051606440995 -0.9316389733816278
Ni 6.03189745572376 5.498452155275265 4.860692967337103 -0.6182027289677999 0.7800508447572695 -0.8444690631323392
Ni 5.05223832718389 2.8543256548440783 9.460306129720005 0.3416080788623536 -0.08178062091291721 -0.4059494212529009
P 0.207420274884653 5.443589650973459 12.414847956215205 0.025355190935336978 0.5536356437196918 -0.12108456071886242
P 4.041694713463727 6.144564274902868 12.699987245814548 -0.1054208860396765 -0.2774793667032447 -0.29677163927395345
P 2.176469136175651 8.406870917809096 1.4128448090579744 0.6598767116678184 0.5458930236597954 0.8025469689772565
P 6.2895638552379 7.911261827223916 5.890761151553718 -0.004222008501147568 -0.34749899042549187 0.7477251360413704
P 4.800446497095896 0.7605078182526195 12.704040608201339 0.17915009740302695 1.1506632812717732 -0.7878567139549334
P 4.16856368892885 6.263033249709341 8.149153828635809 -1.253727494153815 0.0009847325107724977 -0.5558537344169331
P 4.690305109149291 1.0580561174456509 3.790550081702342 0.1474134284213784 -1.1324950950031785 -0.6378757819166949
P -0.1198937162974987 5.556564228797389 3.800459910065585 0.22010982764484027 -1.0817322626280146 0.03860074309133352
Ni 1.4044203687422359 1.2451914769466466 2.5512159759046305 0.2805338372588524 -0.2283000767651165 -0.4918108971034111
Ni 1.6012772807296431 6.4705983521915575 4.914016678414803 0.461436912797244 -0.03577947159245451 -0.7051273559755018
Ni 5.922968998906744 5.625945699754878 9.329825516040655 0.7282246041145974 0.07558349096326983 -0.24676805366231697
Ni 8.784364050856862 2.3892570838949805 10.079151738588934 0.2679809402945062 0.7014573633230823 0.5091617296770328
Ni 2.3758876862949525 5.239627134980621 6.945178475610601 0.5029869683248885 0.5911860911696399 0.6411963616494957
Ni 0.7197723409205923 9.130384336609236 9.170225503526312 -0.6650297166236676 -0.3473745490324856 -0.21560936867132544
Ni 1.453770372611803 1.0722582737316653 11.412892619030522 0.29176570141892977 -0.316599472633158 -0.18901747711540995
Ni 4.083667561582432 7.036584603467473 1.7743462598173396 -0.199192874986515 -0.8055798422663093 -0.6862408034836439
Ni 5.657880185017503 7.935900622259308 8.082422702713721 0.23171064510856224 0.17662321721611518 -0.4715657737011298
Ni 5.212200408692142 2.8352717740397058 4.713360757508823 0.37323367618743464 0.9084198549526872 0.46661742855691896
Ni 0.9224250723279707 7.543716539783753 7.086270426328888 -0.016303879366346113 0.2872343892074795 -0.040437539189756164
Ni 5.2427499800530715 4.666861141793792 7.000211152339543 -0.742751594086179 -0.021613721615033745 0.8846572053154506
Ni 8.11617477432576 7.220008755780918 9.058940882731445 0.3969623872629422 0.46920241567527576 -0.024866167114060398
Ni 4.777889598775469 0.35589933825113423 10.433539438790504 -0.15431889729196002 -1.2073183107616563 -0.09151481748154562
Ni 7.907242861391544 7.259130310572604 4.712142395344325 0.9259786897720569 0.030183208451599632 -0.6043442258181527
Ni 7.349466524552478 6.056147026590702 6.88806571251166 -0.46506422513718615 0.834635107761053 0.07088145750191019
Ni 2.2881131104469716 5.32412498643374 2.5389880008078958 -0.11650594020924451 0.16290458207844202 0.8348719063622074
Ni 2.3021342322360323 5.3893788708606865 11.445880725065418 0.24373903702800603 -0.9037856986147855 0.03376115561084508
Ni 1.013440165671422 3.5314761389743863 3.782124736214118 -0.1580228285061085 -0.39089047003724936 0.13508627431459314
Ni 3.504248550632556 2.5930657205654075 2.754878879805011 -0.32584798781461943 0.5562167741833066 -0.5731845123858967
Ni 1.290051825291763 3.511354154637987 8.24165159450931 -1.154074363835851 -0.2728207848853108 0.3026959751781884
Ni 3.9566990171439844 2.7139152990068216 6.874128771763684 -0.11891223565789198 -0.6524559937237151 0.8608405625118272
Ni 4.059381783816099 6.844235450454212 5.932810034161144 0.2147616759590495 0.7624871248418933 0.22195562260432744
Ni 0.799558769590493 7.331118678286225 11.265825624740279 -1.075739278269373 0.4094695185910173 0.7010632132084572
P 0.18436010066269612 5.6975901019242885 7.8953995846008365 0.3175680071940144 -1.342273973035656 0.4259613455984535
P 8.572807137716818 1.6702604757938342 8.026820672491858 0.21384147813762527 0.14014826221853283 -0.4962439931741002
P 1.9950273116038477 3.4226381994058475 10.344220638683508 -0.8132350448187221 -0.9477741883805936 1.0606517878086312
P 3.860660216510069 6.2044052278709 3.8453184480657314 0.20096770749875065 -0.02837906536332532 -0.3087902610013843
P 6.800922947058049 3.9185550486358487 10.27960942672075 0.820341059735884 -0.2926481040238831 1.0604576695199543
P 6.351151791101535 7.703506638519898 10.180182565476345 -0.2515127674361539 0.5441331035458952 1.0101098131950217
P 2.3556480295355335 8.575567913795362 5.857746795516765 0.633634747252154 -0.37070113957356804 0.3618750566415058
P 6.732338027887155 3.838184783713273 1.4391292076706759 0.09744995201905798 0.5382128814067183 -0.15960559961219611
Ni 4.945355560182451 2.5291605431407667 0.7182489356287273 1.2484518475771724 1.0669677027243303 -0.7255707114315182
Ni 1.5307009820922597 1.1281345712164117 7.021209343641199 -0.2703173017371667 0.5577959457449684 0.6739295902164586
Ni 6.95096433813324 0.7730145864746629 9.197370721172028 -0.2596708777669141 -0.6388754268258029 0.02364720710529476
Ni 2.783948494153344 1.5485147765924996 9.350625474568147 0.13867656276901277 0.07264472004992004 -0.8674508687394932
Ni 6.566157411408546 1.8669182498345922 2.4019494124764007 -0.6597808095199024 -0.5377007176569901 1.1452701352806598
Ni 4.080535664785134 6.8120203617213075 10.385368874668591 0.03569153986433853 1.0425123978954431 0.5845842695824062
Ni 8.151702794352916 7.231468239438084 0.34604472540946185 -0.026208540074567768 -0.00207976534716416 0.3530579725705081
Ni 7.6535773242600795 3.9919916923251004 8.262716768574839 0.4659756812078619 -0.19501328968752865 -0.4170591580128172
Ni 3.0412437729487296 8.32185711803966 12.477299426629308 0.6216917159576648 -0.40481016544213505 -0.058687229428563435
Ni 0.026039096869329315 5.091658588895549 10.211089679968758 -0.25435897863569745 -1.0316721127468298 -0.37471617427023207
Ni 8.716385597250763 2.3582820814662093 5.768983771315417 -0.4130022143346242 -0.8331695789591199 0.06882868873793953
Ni 3.709080032210772 2.2559251768886113 11.476497279190221 -0.1657919309285661 1.0661230953358478 0.2921842770135871
Ni 1.328123380001117 3.2318097361669973 12.649868750505412 -0.6358289266899954 0.6732567325191502 -0.7263178740101879
Ni 3.239630426435395 8.415524366763481 8.079971495624969 -0.3272551525747912 -0.26683474250520495 -0.039229892034900175
Ni 5.642754752797026 7.866057513334588 3.7640013727240875 -1.107207009860351 -0.044045054035356405 -0.7500596977118179
Ni 2.8725015183382254 8.385128674724962 3.790298443751576 2.012069486479083 -0.8311029262380784 -1.864946078494298
Ni 3.430848113842696 4.579358117691242 9.316511333962199 0.7080059630748774 -0.07277044699450692 -0.5136627028711799
Ni 7.351276869522015 6.336098772679838 11.602804142542302 -0.08889769157367271 -1.1049387826514647 -1.4294850209355252
Ni 0.48294753786824146 9.204608480360235 0.3190316629465219 0.1893982574935964 -0.25916231356161173 -0.06205666012142862
Ni 4.656189158198374 0.3112019209532762 1.6629430614269674 -0.7170786148001069 -0.06370165192401932 0.5942472465934668
Ni 6.062383665010756 5.693100446399837 0.3791794693868898 -0.5770295971635997 -0.24473251128952692 0.5085696046189887
Ni 7.992618730154889 8.89883216328066 11.295209333940827 -0.0165069965160877 -0.36485213699195873 0.08999529551322565
Ni 0.16039837464591 4.6577641583218705 5.892748005157785 -0.2705147624599535 0.47558312239063905 0.10381986010114379
Ni 8.093219600112038 8.828980002631091 2.370577944499302 -0.10655062876874552 0.31011155091596915 0.5777531055931857
P 8.601546364108213 1.495842789703833 3.633308948683303 -0.5971793326385973 1.0696038547955966 0.261456251802111
P 1.6969359089199556 3.4024256978209717 1.5938277111799999 0.11829825622297689 -1.2126235250246535 0.245294554440584
P 4.794074082803126 1.0501539616536237 8.207551031490635 -0.1730450129465536 0.1466922339846377 0.06837900279503062
P 8.621342486350095 1.7057341854719033 12.315565922568364 -0.8878587429718838 0.508874280343601 0.19609418145653326
P 6.297583683452948 7.929636828664712 1.4726341671943741 0.5401481507562181 -1.6177599634579558 0.5100333336487086
P 2.0019156742129347 3.1778795595245026 6.1845113470006625 -1.3462956926005394 0.016314163778991256 -0.9012750163777897
P 6.856844503167034 3.7943020216517063 5.8909992119172125 1.303200404072962 0.10794648067500766 0.19327985193618968
P 2.3883066527859733 8.341191602314309 10.300541540431016 1.0232039273748186 1.0856598798171948 -0.28709966340182813
