# total energy = -340888.83341247577 ev
CRYSTAL
PRIMVEC
9.09000735921528 0.00000000000000 0.00000000000000
0.00000000000000 9.09000735921528 0.00000000000000
0.00000000000000 0.00000000000000 13.30414460223880
PRIMCOORD
 96 1
Ni 6.595200121858695 2.0363524837899654 11.300047818197143 -0.46218176138306855 -1.2795015177941256 0.6927366956206328
Ni 4.6570015348907425 0.19340717237379854 6.080166681757987 0.27734206979443204 1.042697774433372 -0.8079570842492343
Ni 3.049497406747091 1.7308282546656222 4.565383353184031 -1.3480579267072847 -0.9303464798224492 2.1149570645739444
Ni 3.5930889221993194 4.443059127444652 4.770506635727666 0.60673792286131 0.11668643165116678 -0.46505316939359265
Ni 3.7073684916423963 2.6217398519545125 2.5737800654178744 0.6696641300718854 1.0719111627725346 -1.0073098818523814
Ni 5.734312818068888 4.541176664238206 2.9224281972939594 -1.9608865358473646 0.015717153624940673 -0.8360736399797923
Ni 5.279321601961368 5.109129398757206 10.94654380452051 -0.7371414469882531 -0.5402905898713534 1.8108621521657007
Ni 5.5908725058026025 7.810343182913501 12.110815549759915 0.8823306140648031 0.7901560515120715 1.6934283008255482
Ni 1.9623325558568623 6.626142506076341 0.25164230295263 -0.08586584672588438 0.61340839290295 0.11011057820586198
Ni 3.1227628640896934 1.8290821415658938 0.20050555892948563 -0.5251388218315794 -0.45223287770047277 -0.14235915382692257
Ni 8.224656617183783 0.044932814167520804 6.501349434404671 -0.4223977966169113 -0.4709458807289438 1.2336381796031075
Ni 8.748195576941498 2.197563759965034 1.3396079834696428 0.17034766862004855 0.29655438105682475 0.10538617614699915
Ni 7.061844727086963 0.7227837347004241 4.599295442725973 -0.7561030756924204 0.17874077777975023 -0.9150119063479081
Ni 0.7775537545672209 7.84788491229625 2.5290245063890855 1.089837151123336 -1.1193302754864465 -0.4593792589372669
Ni 7.860538202199587 4.094211924412759 3.6342666544278543 1.3896784304615486 -0.9695748291954528 0.6944503358776298
Ni 8.122993977615588 3.6456382533280522 12.670627273907199 -0.7521788009373497 0.6824201441859731 -1.61236167526052
Ni 8.067154063911417 7.583565685421784 8.676350887710887 0.1074191474166279 -0.8384051163264464 0.890048551534351
Ni 6.588400796537074 1.011635981776124 0.40157197129793387 -0.1405722371298289 -1.5990083938820654 -1.336367120632918
Ni 1.6304200360792218 6.8186688567607465 9.062968888304813 2.1123113994209812 0.24646440637896908 -0.040946874726006895
Ni 0.13092700847251101 4.61031525835084 1.3637283173478807 0.2883782730039356 1.0064472767417698 -0.015607881740586024
Ni 6.672683342502411 2.100427943939842 6.994666847508919 -1.726241490700827 -1.2227259035659783 -0.8342666686780407
Ni 3.8924683065142833 4.666491502318245 0.9401548928300913 -0.5498116419879111 -0.5762035017178786 -0.6006541785610752
Ni 6.422835406954176 5.957608842835766 4.660402106552263 -0.218863613942565 -0.9989990479938409 -0.5046823537494406
Ni 5.264441260314986 3.163186125727727 9.1649724031398 1.6855010755586712 -0.39743007092798005 0.0446214953641167
P 0.339899000028411 5.550031103837303 12.539993872664486 -0.14844624056126693 -0.16017741295526608 -0.1575338046848319
P 4.070432465801314 6.364604821378902 12.611876739924977 -0.12589586606457673 -1.3846079579171766 -0.05297989463114102
P 2.5256130267190264 8.787746197896544 1.0244910698374028 -1.2712595895003076 -0.6546422027417564 1.2614906830390016
P 6.47671187912162 7.877072925140802 5.648713130072666 0.4287412223364358 0.8176303456729402 -0.29289852947179235
P 4.803950589903213 1.0882829217653078 12.348108367481649 0.6146294097942447 0.6110650894817541 0.30257436199865956
P 4.0697507152677295 6.501400338444512 8.07014740325421 0.36991695310937583 1.231271222032828 0.38661446836971486
P 4.869580441269663 0.8766339231141975 3.681190180153443 -0.07428945474219463 -0.6842044897799054 -1.3451068144987608
P 0.4295246521756307 5.668019396183082 3.6312860410950205 -0.7466951521149592 -0.3483240574299485 -0.38821138054318943
Ni 0.8007932667560665 0.3781361149554156 4.758958690689448 0.08789830377488088 -0.48142544010402893 -0.8594552521285262
Ni 1.9811034205482363 6.794116747544572 4.633341155372496 0.004280372542908757 -0.6545326737470857 1.3965252781800528
Ni 6.294202716277356 5.73002233471086 8.926655141616267 -0.05066333068282243 0.4983744092535417 0.23858911739595043
Ni 8.861393435537954 2.470763923790334 10.166787541229455 0.04215246499833386 0.24868918194442977 -0.17246548629399974
Ni 2.5645000771547153 5.5479676722223195 6.849492161885192 -1.0924594192375314 -0.45758180071721194 0.35644591520613456
Ni 0.6800261592353951 -0.03300217982978314 8.980310726610831 -0.8130154726087482 1.5012342257543694 0.24685598539043288
Ni 1.3004527778240773 0.9524509454538306 11.535969862846015 0.29868325447436944 1.4081608055364523 -0.9023278831223364
Ni 4.205764491721496 7.029393401688316 1.3624111753169943 -0.5859652090903328 0.6648631091388162 1.1629770656421197
Ni 5.881643653380166 8.055509764797785 7.780503416558841 -1.2362825592044902 0.1536838348111224 0.9246597138503173
Ni 5.2507062595650265 2.619676420339528 4.64041863491182 0.7748384473183946 1.5120901946322667 1.0123502724897662
Ni 0.8059273027743175 7.445033976997309 6.76807115015949 0.19425121471052353 -0.00205971074250613 0.15899881926613263
Ni 5.096285218704464 4.850227816122962 7.082514494264548 0.39894702179313873 -0.7065643455323444 -0.7400748185849642
Ni 0.6091913697952012 7.314601464911826 11.263315099447583 1.2458843439603122 -0.454574638459772 0.05577262688492975
Ni 4.843010350474076 0.28344460184330356 10.272927918302239 -0.9877607560758602 -0.027756344177661877 -0.35912629025177506
Ni 8.526399403348508 7.430262715436301 4.496853789548066 -0.6832585809268684 0.35049458271870604 0.9040016712803335
Ni 7.34684372014684 6.286230780037969 6.7722616434392595 1.1516642117324616 -0.8038530893831898 0.6954507521176861
Ni 2.2604120691544574 5.596108349900535 2.4755152705090655 0.5495578741058923 -0.0372830527211745 0.137715227297008
Ni 2.642510518211069 5.253678691891457 11.523172041829557 -0.27867750077640396 0.17066057187477707 -0.053496686366559486
Ni 1.450801495497358 3.448485089022382 3.4622573588015104 -0.9188878443635465 -0.0606194134542698 0.768657001098031
Ni 1.6857327293707525 1.0869376007123668 2.5441648222389417 -0.22460360175013577 0.5758869989187243 -0.8399837736674759
Ni 1.1640754010857322 3.5009435200799697 8.012167701875295 0.02315998305623108 0.33468358382837843 0.69958534311135
Ni 3.849490752877084 2.853135073060379 7.170481220113378 -0.32325760137962395 0.41880879371407226 -1.8104001249276174
Ni 4.352268136385357 6.791162495232371 5.808536362161355 -0.008567172843720728 1.0865469104078382 -0.6667027334507163
Ni 0.5182376676085579 8.918596850309292 0.041015021101185614 0.8026102181150242 -0.13677754597408703 1.7798600473572315
P 0.2071412641230464 5.607270878637101 8.21830270221077 -1.8942756806963506 -0.10128603793569653 -2.615640838686953
P 8.53037173645753 1.6412189645312083 8.002589561378784 0.5398907833297735 0.9829407089793976 0.639913124061698
P 2.0749122939695335 3.4289597537405068 10.38609305287308 -0.17665098513025707 -1.2610659367967574 -0.7908363654085476
P 4.302773047647086 6.075624405202888 3.52051612339884 -0.8855146682197395 0.8660737858863083 -0.31689437816575744
P 7.010358926790623 3.858889820233443 10.46782039783854 0.6911755217811 1.514817877976075 -1.449524970305536
P 6.352115151603624 7.624879767757036 10.200925971948546 1.0998441417373765 0.2951276759126272 -2.0064503405200926
P 2.6009782757050703 8.652050571691783 5.76936843050583 -0.7700777927049577 -0.15733428707951613 -0.0611842848188043
P 7.0236576071990875 4.059042686886888 1.200946287943432 0.24827112057040468 0.49278688786343516 1.019100446729406
Ni 5.502354016521926 3.273893322374818 -0.13719093237509009 0.24715757579125178 0.0473527782523507 0.437819273378304
Ni 1.229487092281435 1.2830090541714154 6.91363125208487 1.7628881953895834 0.23457228292707344 -0.18228735748042801
Ni 6.941011262514356 0.8152727390887008 9.259524839143062 0.3115457122593344 -0.2897404434587849 -0.853092286024976
Ni 3.029544841130836 1.951206387148755 9.087900959818372 -0.9108302641663926 -0.8243064721415352 1.3461403979695978
Ni 6.262778561682644 2.309398117494319 2.2439836992964817 0.040328524415717645 -0.5061584240743348 1.153865847369471
Ni 3.877142554519293 6.943592824534863 10.351648288914232 0.07406808276000791 1.2918317572247042 -0.9109513631252892
Ni 8.055664294918731 7.224528584414574 -0.032944912784962 0.12531402541917774 -0.4943637454322518 -0.1272202413029551
Ni 7.76801101978143 3.9293737353990186 7.8362469761875975 0.3248090050271438 0.8031025843704105 0.7435740899874742
Ni 3.2411511167485085 8.539779893821004 12.249870842594182 0.0716738714962185 0.08847834464806698 0.4504210213027146
Ni 0.589009735999662 5.025564963353912 10.229955818669307 -0.5399051815074766 -1.3594304302102846 0.7151304899348007
Ni 8.713726269963441 2.627648356578916 5.666008686609362 -0.1588718067699651 -0.2001480398109327 -0.4934376340735566
Ni 4.026436831367295 2.9809133030684385 11.355020545222594 -0.534761689633324 -0.3960352474629824 -0.37924234427535974
Ni 1.4708086011562995 3.4243329401192435 12.502236710113124 -0.9422612289821644 -0.3335463849001417 -0.22696130334903492
Ni 2.8595980681187654 8.784082925029413 8.039894041575844 1.6761155205787135 -0.625637073758658 -0.35966493636406444
Ni 5.625105472595685 7.946965989843937 3.4390014845998587 0.34319213552002187 -0.18474584632324959 0.08915454477948516
Ni 3.1172634097854406 8.242082160822218 3.329348728778046 0.961629349096131 0.9051147018388542 -0.3218949167041424
Ni 3.5672733019942338 4.756055342417087 9.18402414905101 -1.047472570114196 -0.5761538794268658 0.009073165945861793
Ni 7.558268195622223 5.925966528070306 11.047668315667531 0.44015074972495816 0.3071352418964646 1.1824871106505892
Ni 8.027567082927915 9.088198203051014 2.167817620683653 -0.5995437191057158 0.4343120315559939 0.509356105076026
Ni 4.559411218509826 0.3252777235847912 1.4817893297505753 0.5792551440600089 0.23075239496035096 0.4771643508348298
Ni 6.017502899712987 5.934956545106514 0.3816084976731419 0.6269596492248234 -2.0672163068545557 -0.7315616389076305
Ni 8.052646412556728 8.805326271655924 11.386045648504979 -1.4736462888337718 0.6710849216788121 -0.8074240945638999
Ni 0.24262865189792476 4.977760615938932 5.846785294097609 0.3288955163916916 0.25531388634979907 -0.15793438255736028
Ni 7.688800697785966 6.330817264934429 2.4360555496251646 -0.13166516444818613 -0.6241586894409186 -0.2672252930754043
P 8.747368386294083 1.8183377531565939 3.5144094566193407 -0.17978130322912264 -0.026443796013825425 0.18462346181277234
P 1.9650141079556303 3.352949114249336 1.2879703800544915 0.9952177265745377 0.2558386485050175 1.3785488962072903
P 4.942182328092909 1.2032351517348547 8.068457570931633 -0.03638033840124702 -0.8965038202413915 1.048024585962924
P 8.34890792443143 1.4829619406683416 12.590257067003929 1.3443519386106073 -0.10465341174603267 -1.0855709196478143
P 6.498064305833503 7.7576029616353654 1.3426676798643726 -0.9231846719666875 1.914554485550045 0.0303169058159865
P 2.095264819898825 3.529204352198847 5.98134376041235 -1.3359238624479122 -1.1203124368940578 -0.38553666192450375
P 6.564239557626821 3.9294010054203623 5.719730628655861 1.8525088811722097 0.9513228249638003 -0.0949032743378043
P 2.2569124164153878 8.56199587120876 10.308357130031585 0.8441656729593073 0.4113579938629819 -0.44984329442237364
