# total energy = -340888.68017945887 ev
CRYSTAL
PRIMVEC
9.10730314389906 0.00000000000000 0.00000000000000
0.00000000000000 9.10730314389906 0.00000000000000
0.00000000000000 0.00000000000000 13.32945873140531
PRIMCOORD
 96 1
Ni 6.5064304959373525 2.249094079418673 11.401726220783518 0.37690829682554444 -0.3643214612994693 0.1827270161210079
Ni 4.945639075870485 0.33558955387034495 5.857777392108444 -0.538816319318672 -1.1162336388389937 0.4438438823058291
Ni 2.7024283143652146 1.4208941345130208 4.433978027851809 -0.2527430402988292 0.475665140581484 0.6842322576940475
Ni 3.756434736584979 4.3677715759891536 5.117139614506839 0.2900420338596037 0.05623516834364508 -1.1183033768838289
Ni 3.4223606379790152 2.3655036298352647 2.3605674714621 0.48208544228553096 1.8441787640399592 1.1453930340117693
Ni 4.991649171998214 4.229003596040975 2.5634945814974954 0.4000559385866013 0.795951575147926 0.25364061241243413
Ni 5.277154022257151 4.723448197955166 11.207662338291968 -1.1123559010511423 -0.09479760199787544 1.2077186315238684
Ni 5.753101691226881 8.005793155437805 12.275752294290813 -0.5304802886491509 0.5810227774833929 0.6043316274126624
Ni 2.254248813070354 6.616373861031164 0.25770753921359885 -0.3694541545403444 0.4753681781663555 0.6299871231972376
Ni 2.9610848345797063 1.909136662899306 0.16839403749043858 -0.8313299546472199 -0.5438718794647084 -0.4186301020443629
Ni 8.117321191300862 8.935958467771416 6.973826407135124 -0.9052250021644732 1.1659104372388307 0.010915361360923135
Ni 8.533616023842123 2.531502446565293 1.3727073929033988 0.7076218402625812 -0.31784722899733 -0.29104862074724713
Ni 7.218166246606783 0.6823792693040073 4.722294302630664 -0.9604731240045008 -0.05354836554010132 1.0479898760702469
Ni 0.5512004051719883 7.441759649225915 2.102642267700312 1.368498453949824 -0.2802741558395625 1.0470876759709515
Ni 7.754458907053617 3.831269447567074 3.389641740245746 -0.627606538780203 0.8941206647211958 0.6334601693475026
Ni 7.754067293012941 4.029544547091375 12.576784185897369 -0.26381446762164246 0.008543518694636898 -0.32061450732982205
Ni 8.613222961738495 7.703157467725134 9.024910409554696 -1.159900740709641 -1.4941716624806332 0.9600524915273143
Ni 7.006986098346735 0.9835796460210858 0.1937232693491951 -1.736386806664945 -0.7498085009329603 0.2869790786635638
Ni 2.1869913784101653 6.3844381686153175 9.212815933574044 -0.5366337098450564 1.4226651698002144 1.095358080941565
Ni -0.05013297231874621 4.869665951979449 1.3066548544660326 0.19481274364094836 1.510079334849825 0.24832768483995296
Ni 6.472451147431304 1.914755869017835 6.963815659379067 0.8926677343247529 -0.24754478392734142 0.3920857758969312
Ni 3.342088866943822 4.291343086934542 0.4396669049269692 -0.14332100351955962 0.5586233267422702 -0.29583395795103246
Ni 6.531165931622805 5.957187250238414 4.551436739605279 0.30161225519570634 -1.706132378655778 0.1338112642569115
Ni 5.595545344629554 2.878536237726632 9.316998929348618 -0.9004005841926364 0.38674353774841136 -0.9624377039300391
P 0.42115175737596533 5.956558846312679 12.67447640663033 -0.6418334810128623 -0.8630540252233782 -0.7723071962561087
P 4.285086369587007 6.032249643802296 12.788815867013305 0.18369452224059976 0.535337359631136 -1.0915793306254233
P 2.3454220261215593 8.538278963117143 1.2928481827064056 -0.2536807216217502 0.2985215320855246 -2.2070005008654503
P 6.587330670898281 7.9278983905564795 5.740305019400067 0.4688995397228763 -0.742931571307469 0.3771466380885956
P 4.823355314843761 1.1084316665703786 12.411312682026763 0.6578828211662412 1.0661423786095574 1.081933322895227
P 4.084598195367724 6.126655949514892 8.159495291290625 1.2944684235166029 1.5290453344293666 -0.9089849834275378
P 4.708138821155738 1.1658258917875093 3.9172742660116904 1.1915489637425414 0.3913442697452163 -2.1785520157167704
P 0.20057105067905234 5.651746513118115 3.5028482521017437 0.37405642919904614 0.7837036110185084 -0.2839292360936465
Ni 0.6962997823545284 0.1548314414584883 4.434870543572417 0.0933906943480198 -0.5882599186617804 -0.39659137707676856
Ni 2.4762848668300563 6.504791181348478 4.753031451172051 -0.8040212395299379 0.6622110162279499 0.2876429374998078
Ni 5.997896895862116 5.554498728784805 9.042665097282528 0.32488022458471144 0.6287779333804848 -0.7039415631975167
Ni 8.861032683756605 2.5159198506677196 10.076871331459678 0.4435705740397845 0.9366467110088643 1.4902895538174075
Ni 2.4364404150171484 5.412798197183196 6.992727704344841 0.444143415824119 -0.20046402838945476 -0.4991475399741404
Ni 0.8737501222181683 9.536985839872226 9.041651454428408 0.5532746608358471 -0.4736118575968812 0.12129616250903626
Ni 1.7512342387776605 1.3858128023111187 11.26521867350733 -0.9770670238074399 -0.1729794498159408 -0.05889780277747276
Ni 4.364875453548809 7.2498141254753214 1.360737664213638 0.5779639360524111 -1.5902193348355258 0.1459214172568842
Ni 5.607749131013393 7.998516420123859 8.166200087959119 0.08787542095674544 -0.45826854237159137 -0.6527845807077274
Ni 5.885157588663948 2.8591832182746484 4.74412815149381 -0.5398015660500768 0.581400986758418 0.22864511880936106
Ni 0.7386487425671049 7.545418975062376 6.832387255137409 1.3139897813789823 -0.18786382312694097 -0.635876234988163
Ni 5.400057079906338 4.091228312149393 6.975412899365023 0.15086307753287567 1.2226212596673138 0.05142077767413725
Ni 0.764107298132317 7.772855659662091 11.444247309027926 1.381634991331782 -1.1471853500255018 -0.11732252257326893
Ni 4.753684444816619 0.6744613798397463 10.2705217423827 -0.44049656310015106 -1.1599177099905056 0.1477384158609649
Ni 8.540856329942985 7.4409399919314785 4.525004613320341 -0.6973808792608635 -0.8504049690007999 0.4869731093951355
Ni 7.617393992817213 6.308829336855143 6.934318014812935 -0.45229921216203395 -0.6667330724680195 0.385705069181568
Ni 2.497395595813444 5.482632998669226 2.534929524786367 -0.3264118307378895 -0.24115970633660405 -0.14865527124827946
Ni 2.529599020181545 5.50773272648554 11.501470316943553 0.11160413203225296 -0.8519741132601327 -0.3355667577642802
Ni 1.0176591748631205 3.5667842532588083 3.5762940993349313 0.47881988416038185 -0.28970804755895263 -0.9742488376323544
Ni 1.378800178792047 1.080863859567482 2.2487334302091204 -0.11758297532350717 1.164335379442227 0.5256209036743206
Ni 1.1148705299833443 3.4391089686953435 7.924069680261131 0.24977547303007303 0.4517631371529058 -0.40141373816607645
Ni 3.709577661252999 2.3881534930715396 6.5788872900352535 0.07089868389309079 0.2177827221735604 -0.058141384227422446
Ni 4.789876868017647 6.6503896387502985 5.798395042587141 -1.5529344823421383 0.4844313168098883 1.7220235959647376
Ni 0.4717792562623552 0.23783631420546536 0.20471396293726765 1.0304521242967997 0.2460481447771569 -0.5547270770116575
P 0.4832253150140038 5.827663183110831 8.059097290755695 -1.1788657118479182 -1.2238862424226664 0.2510188585188709
P 8.729359293056943 1.7391943838527089 8.026560539087857 -0.8486982707223384 0.7567846751404773 -2.073344531239481
P 1.9082441471786968 3.3410142051577822 10.037895716378872 -0.9401796638627873 0.35420776990423514 1.5395822294049484
P 4.407707100834776 6.189132049957532 3.5578326848732296 -0.29433114815326084 -0.13262110060355223 0.4872831844363866
P 7.15267562878127 4.266006569233168 10.379690075968103 1.2234108454481447 -0.5420391971313439 -0.2699961709523221
P 6.561192710509013 8.129625158020687 10.13719992979089 -0.34481861537985126 -1.5950396390423045 0.47027302303163526
P 2.3329723425493887 8.549772379845804 5.734413504913719 1.1078413010102404 -0.448412218402802 -0.8088777962912909
P 6.876624159318172 4.071028313493157 1.2996039802732202 -0.18248121865878894 0.1622396948009335 1.0414639020262708
Ni 5.322736075131118 3.1600065526362857 0.12942115460061523 0.2595675194198304 -0.8362687867097339 -0.132184784397082
Ni 1.3060146110460447 1.2363346337156311 6.484928152913289 1.6633713335391676 -1.0936873781073617 2.424115507548025
Ni 7.157630001760977 0.9375877644999006 9.302949092591641 -0.6290131893197425 -0.5369514981957914 -0.6071811810463155
Ni 2.92783407033538 1.8189106093883394 8.78869883825287 -0.00816068143392143 -0.37765751628674316 0.47885793648716884
Ni 6.304284792522654 2.010482733704801 2.4682294570863954 -0.4240800694153406 -0.12558681946459013 0.06839520074494672
Ni 4.3066433564306985 6.987487362042407 10.439578791551305 0.17032170047811956 0.6269635058795654 -0.19659503235235173
Ni 8.201846072963855 7.493571097537603 13.64403444853458 -0.5780431260297787 -0.2825297846429586 -1.0508342874975773
Ni 7.701764050324592 3.7186212134016206 8.265517051595719 0.04738851658629258 0.7854892421640214 -0.7264649411110133
Ni 3.1273659777111518 8.843774344057072 12.472041090971597 -0.0004291171176186158 -1.2249357667331033 -0.29119980161313075
Ni 0.24133351866172972 5.2597681803118155 10.563049234194308 0.09424455770788286 -1.0976502194098514 -0.9230849131640296
Ni 8.906569200114214 2.596191621702913 5.699170062713583 -2.016442418735798 0.9711084922311599 -0.12102696800804963
Ni 3.585700122153759 2.944427576896093 11.45540375553554 0.6689686466667576 0.34842253068102574 -0.704052120633452
Ni 0.939008503810258 3.576692999218224 12.694696441353763 1.2997019040014004 -0.140752471461435 -1.320229591641107
Ni 3.019863369894108 8.45135886069374 7.8568759967238435 0.40807083847127784 0.0887987041019632 0.1602496609540982
Ni 5.922515746683731 8.203394314520015 3.4888129870300015 -1.67428540934851 -0.18816052843175335 0.3850280977192014
Ni 3.077002590619636 8.354630192646907 3.1597351549987946 0.21105620208300427 -0.5440775677176114 2.7791712272748526
Ni 3.5202095043282458 4.343090784123329 9.092903714319224 1.0282378902543001 -1.2301026556460235 0.5028489000851275
Ni 7.347508167668936 6.285305172504802 11.362630389299529 0.13974588457379158 1.1297910658084542 -0.9212046654221812
Ni 8.086820832644534 9.327244645529078 2.329296634949003 0.0026461793735954426 -1.1730935852508313 -0.1730151881498827
Ni 4.440830362833301 0.4615936482834851 1.5799941690148713 1.3301813035371803 0.47924643017483914 -0.7643725147900643
Ni 6.421841863151457 5.947333148098627 0.15116028750973784 -1.3749586077528706 -0.7123009909058056 1.1689535949405288
Ni 8.031539501786398 8.993826272758666 11.453457524826417 -0.6037814113361473 0.8544074052919738 0.08982328871173563
Ni 0.41147615838030055 5.142684689453131 5.749115424584936 -0.45051949455379187 -0.6158028612770556 -0.7490366557639423
Ni 7.4180806607199585 6.436276938836819 2.4882901140025764 -0.09794077561254745 -0.41675705339136615 -1.1627271544148428
P 8.598623954594247 1.7547587651437395 3.67719755520143 0.7962523942177964 1.9082431986200363 -1.788436990392965
P 1.629824778865003 3.425265867722631 1.3870231629159042 0.5672408932079522 -1.0443661632747303 0.9194190342766682
P 4.807025920077923 0.9262947084432135 8.067175468757535 0.05032831594090687 1.4727284050051928 -0.45663177809911676
P 8.636774447998652 1.8074627291760363 12.389705605015076 0.44704721973447525 1.0358195592563 -0.8280831655751482
P 6.385813371409317 8.2256252418058 1.3894757596869247 0.21043913732429562 -0.44796716044558327 -1.2385775258862541
P 1.859392572430254 3.299330078084027 5.4926965687842575 1.6767811791871703 0.2168195869293427 2.127624632739284
P 7.416222770852569 4.136937867269161 5.924384565315047 -1.916140599090242 1.2322603254189746 0.175385231043956
P 2.3878711666701227 8.514253897086869 10.187291919244917 1.3347846066371463 -0.31461843764738723 0.5639018015323901
