# total energy = -381173.7021344425 ev
CRYSTAL
PRIMVEC
9.11245460504130 0.00000000000000 0.00000000000000

0.00000000000000 9.11245460504130 0.00000000000000

0.00000000000000 0.00000000000000 13.33699841550413

PRIMCOORD
 96 1
Ni 4.8671170266314725 5.3831462301601265 13.124913790246945 0.12611286717138925 -0.7267765588141613 0.03291603400173041
Ni 5.971273176158515 2.9340555376179407 11.630663473933666 -0.005173573781139477 -0.3900870002993475 0.3770031705321959
Ni 1.9664404109885885 4.798035506704391 7.270264544504307 1.0111629370498842 0.44634530857144417 -0.8152009102958412
Ni 7.470499804044434 3.9119859630940748 6.68711755506048 -1.853609570435556 -0.45279183552773633 0.31425745476354267
Ni 7.298128608827355 7.5388978898606425 7.012914240695748 1.3865694525189216 0.9596285166160183 -0.06866979456257206
Ni 4.252636861317805 0.8759830147798918 7.667881042737555 -0.3119354914985854 0.19461605424911 0.6265117630541274
Ni 8.876351107475426 5.714848697758821 6.346344549942273 0.4813789031368096 0.06355715592635507 -0.16381063883247918
Ni 3.9898792268240175 1.752051686635013 12.542126742768179 -0.9327730869860711 0.8965940659623527 -0.6791530433989271
Ni 6.995704458538475 0.3772674753933644 12.476735767039813 0.778386312570653 1.4950903176401606 3.234933458284822
Ni 8.825239348436908 1.5162942557481296 8.343639732923092 -1.6960284574525566 0.08568869771807178 0.13559715251274065
Ni 0.570519860811329 2.3996009504601408 10.184385675976293 0.04289525670162935 0.8867580537085374 1.3731166694481254
Ni 7.092742989827684 7.833330417279709 11.063627304596828 -0.0022222044622993986 -1.2900448405276104 -1.308305072289379
Ni 2.6821599492596335 2.593049253656556 4.0713591527678235 1.5795556844740926 0.6447467980049154 0.10954442128974681
Ni 6.97501918611604 4.658952108914251 4.37450865445971 1.410969478629841 -0.6324900921247494 1.1045199499464915
Ni 2.6516058882761873 6.5644939843966155 3.3656979421178725 -1.2166465301411176 0.5693656528604387 -0.9138006596486262
Ni 8.887522977074502 0.6068348157266972 5.989325860385867 1.091760593398294 -0.3909802015375783 0.7582705156573845
Ni 7.653751270306618 2.2217349449916393 5.099321511387296 -0.34916352261210837 1.106516668661546 -1.3456117791596376
Ni 5.223559809043785 6.232991990803776 4.228362192945064 -1.5859266209974427 0.06511781554525559 0.4745161145787054
Ni 7.146515585671203 4.58438489119056 13.211150417602429 1.0313795212070755 -2.068402099632541 0.37226385607499757
Ni 1.598670847245402 1.7977233101509786 12.478082587860973 0.07232667458886899 0.06283004795234341 -0.9636448368642628
Ni 1.7522794980053042 4.5702150239584505 2.3211846318240097 -0.2280995307185362 0.16545254531127634 1.3947571305360364
Ni 5.129227676833634 8.217502399683857 6.2583200589527435 1.4057881915392176 -0.3350857043628035 0.9274393334779832
Ni 3.192530318350255 6.5523106323134455 9.175121163384835 0.39153118894504185 0.7397881405824808 -1.0822187153461298
Ni 6.95717699959484 2.169210755457317 1.1316420469754083 -1.343247906913151 0.14708766965084347 0.07553901087857959
P 0.25424204547230556 4.040553588031576 1.0227299870666253 -0.4174463661489069 -0.24668037904451706 -3.1730212941610576
Ni 4.01426415589998 8.08984602022752 2.309835069356106 -0.656914800826017 -0.5767555175666067 -1.1270176168283752
P 3.787409593364074 8.747090935972238 9.496102827897628 1.6576573138735258 -0.5823438102876616 -0.32905389634642684
Ni 7.592907409529264 7.0171369522554645 4.537260742377617 0.11183733108898158 -0.16996071759427503 -0.19220075993939803
P 0.5985597955122423 6.1227404000376815 3.9625956258724706 -0.720201990920437 -1.3246071518835123 -0.3414255305379023
P 1.1920184388209256 7.162662855597437 12.315104511063737 1.6787946100727733 1.076410593304785 1.1576600243045805
P 5.315878088740561 2.878824949004559 6.711311122585398 0.5852339873512631 -0.521030970310793 0.13595684984500456
Ni 4.6204702122446735 4.498126393943526 10.274436776915932 0.16756213545511142 0.8220672983983713 1.12338053429642
Ni 0.9046526201082898 4.194253363339595 11.913700876610768 -1.6209165068090663 0.4241235210587664 2.55699474690897
Ni 7.927216039204089 6.286828373830976 9.218293240545965 0.6969630749971546 -0.23901669185167226 0.17685950159663735
Ni 6.743499046716573 0.998223862341668 7.097777621111119 -0.6177826107112457 0.869486154001967 -1.0432680451145453
Ni 2.2750063558205165 0.6554998806482881 5.2639799248517996 -1.3175178491368984 -0.00986095195447979 -0.623383501837791
Ni 2.886534085775211 2.692229211826502 6.470805191496167 0.801602088565484 0.7957723692575844 -0.6575935720605964
Ni 0.7595003274135942 7.025374611405192 10.305872012279664 1.3513461105402533 0.6047013520472554 -0.07413775965567879
Ni 0.8002812964321498 1.6453357283358367 3.6066840995756784 -2.4592799712643 -1.2088218918903761 -0.4950576861754829
Ni 6.260192668416536 7.1682670153066 2.4668645356522996 0.40039686686578785 -0.45957183456404727 0.7403738378826217
Ni 1.8822322160741756 8.783668329586181 0.7183320790655437 0.7283526450520295 2.484724122369018 -0.7977657455385293
Ni 2.437736573846876 8.075648815630977 7.232241004311755 0.7666890787383829 -2.4144712995900415 0.15312641964575563
Ni 3.8098353446555326 3.431258409505735 2.3219446105553008 1.6498195629966619 3.3830909639610773 0.0690001813187973
Ni 4.72009668070039 3.9220552256609427 4.83546218110678 0.9071551293076504 -0.8339717631454412 0.92474121782053
Ni 0.08572906362247641 0.07428199788808777 11.370351622311324 0.4942524166653681 0.602873297699581 -0.22834532818075515
Ni 6.410010537974795 8.729850171468605 8.87575970915815 -0.5128175812620652 1.4507025355534047 0.15899830504550036
Ni 8.443719090382949 6.218156914370418 11.970702926439536 0.11949356208265874 -1.3623262637008409 0.34680299279973176
Ni 2.958932539253732 5.977132484602404 11.600534964589922 -2.1694528816289798 -1.8491471637888284 -0.14130577286174373
Ni 2.8584039377716626 4.177049048655209 0.17836263425573637 -0.12866957215497196 -0.5221884809540039 -0.6351905217750481
Ni 1.1230736057160182 6.7232329472154735 1.0586886449988584 -0.20511489689790485 -3.0944985180638063 0.7835218340250054
Ni 5.882809464847065 5.831697705808548 6.580768828690213 -1.1977733473856984 -0.833537760931816 -0.13339654531699607
Ni 2.3947622369551573 2.9374909330819308 8.7436965465549 -1.0784708182679232 0.12391637374070273 -0.3134017916314667
Ni 0.7053750795688655 7.725183803575105 5.311766549129548 1.092526267919725 0.3635776411549093 0.15152462237627454
Ni 7.558790378714464 0.6467983975486482 3.1542397832317226 0.8234060718144529 0.23697497883129512 -1.2768409402428267
Ni 8.34894956034184 2.4362785810770125 12.364344571883944 0.19440239557640712 -0.6486121944975927 0.683735777673603
Ni 0.5717072136732864 8.283950420170374 2.6802700261316987 -0.5745770218580492 0.08954380979810385 1.1752916213434146
P 6.5164622350844335 8.853424171169326 1.3820331690443124 0.37155705981596016 1.8630002676218365 -1.6490101797214891
Ni 7.979831353286528 3.8542403369526794 10.68076204821267 -1.212894262187537 1.997988582905985 -0.9985326498803835
P 2.6894316881993268 3.6251258856234854 11.10087719737587 2.3094070255588353 -1.8124477514852657 0.24395680946576692
Ni 8.681426586599523 8.213839192849576 0.199685778514986 -0.6737511556570654 -0.5922507849887284 0.23799056458000303
P 2.4257628082243743 0.39055252326326184 2.8664547915977514 -0.05247107331552254 -0.23445709750544785 0.4257818825977957
P 0.9269826906242262 6.433201735470432 8.188850108019603 -0.7948434296854118 1.1958077390188953 -0.4503369462293406
P 7.585371409400033 1.238054560529357 10.283279503065152 0.5212633980365733 0.2035429244250946 0.02629184381699343
Ni 1.6396677814429936 0.8938224675646494 7.3428716731980135 -0.6131998764365698 2.2134863657001107 1.5258175715206883
Ni 2.8858597641191492 8.732000710804154 11.554362156059316 -0.5386075457419756 -0.27571481860365415 1.0530220391775154
Ni 0.7141294149064129 3.748581423411654 4.716002454753518 -0.7090480311861467 1.9732887661664595 -1.620415655913248
Ni 6.724791176988266 6.812052044264579 0.20469216118850386 -0.24935175522909314 1.5797498027627699 -0.3753864608643793
Ni 8.363292564215367 5.7469427636054355 2.180718874638943 0.5954088710017359 0.6088236017457451 0.362243238614202
Ni 4.3113028453951765 4.265366960689674 8.012602474525648 -0.23477642851807953 0.4714127930630333 -1.0362599892278281
Ni 4.198745803561736 1.3758713271006782 1.7936664452688342 1.4988369291667862 -1.0603861928520706 -1.681741608516239
Ni 4.48862210357498 1.2766366942018623 5.269995056272966 0.6801020375757578 1.5504142870234459 1.495119113995567
Ni 3.5547139472939033 8.07072809003269 4.772364810254506 -0.4942259343028068 -0.580471018744981 -0.546034434333666
Ni 8.960513740115779 1.225880320900999 0.9385819343539694 1.191419894363845 0.05151616560142096 0.897080775790784
Ni 6.649613424792193 4.518520067811988 8.817757111791066 -1.0640718692337738 -1.0625042676363379 -0.3578199127355257
Ni 8.758946239682189 8.384488134107254 8.947365379068057 0.36878489638746165 1.6919658573474088 -1.3171563520324219
Ni 0.38536753647543576 2.927102734596655 6.631729320978858 0.7418169980870515 -1.0801240376006302 1.129270417418294
Ni 2.7555607727674354 4.912086991126942 4.8189640816702966 -0.7289203446300414 0.334598737424056 1.6838056901341194
Ni 3.2108099027024153 6.993690606025102 0.24996374793823814 1.5557452123180562 -0.13992354780223643 0.5448316722748165
Ni 5.701471614095326 6.677761797705365 9.018891770621103 -1.1212429191281272 -1.5909438717063764 -0.6823913478305667
Ni 5.925255279359708 2.573785524184738 3.4094040091309665 0.5691476233123618 0.3607504561187594 -0.7511966395297385
Ni 1.6427022288952715 4.956865594071366 9.8564420959874 -0.048877956647625495 -0.6904314445262238 -0.8674110166404931
Ni 5.200395948912583 0.42136537796335877 3.4595908540061022 2.360548838539973 -2.1554773932854943 0.9657536556771497
Ni 4.133591751658473 2.104913274306348 9.916738298230575 0.12550968636975157 0.35710386050510756 0.7779857346981247
Ni 4.739077924073047 8.9235171735805 0.033911089336056265 0.6565605028103918 -1.4823150202523632 -0.18652993480686586
Ni 4.662095905824269 7.1587991747573 11.070016046665272 1.7562285239812208 1.1210079202991856 0.3838911559012808
Ni 9.087951420656637 4.308951832053773 8.487225594635666 -1.0630812231857305 -1.0095837654882225 -0.08778286124293913
Ni 6.278372015765769 4.773377203984079 2.233813503844475 -2.141860316722692 -0.5686809680885884 -1.1376599270335697
Ni 2.126673816396557 2.0471494232553296 1.4024122629850757 -1.9991093267739892 0.9665149593232063 0.25644902839550676
P 5.1201972341152935 3.0624591383688324 0.4671363272367712 -0.16466115975823253 1.3010275647913594 -0.17740868923188802
Ni 5.59115623614555 0.5751972838661463 10.873281792263779 -2.129722138698261 -0.08705960992366941 -0.8090508315340453
P 4.192804483024544 5.828690595720704 2.064126837814906 0.7141246743781056 -0.5017358695266069 -0.637069998185948
Ni 2.0447072853658086 0.7675001514927375 9.660628199521883 -0.7081178060623934 -0.7399920290631706 -0.22353119462156343
P 6.3550624354605745 5.6924776211962325 11.412589672854262 -0.2946916168164731 -0.4344107619173873 -0.6910665070070614
P 7.09343553639337 9.06797691970951 5.074141065006277 -1.5804799960605749 -0.47685941799990134 1.2469096999010332
P 3.5424394706626177 6.336737288834357 6.578714881375669 1.632728668952646 -0.8302112676617444 -0.7890206523560476
Ni 8.404972932523833 3.354504202627248 2.6924734256154537 -0.8667299314130686 -1.1091073122068578 1.0902801521980257
