# total energy = -340867.1684124645 ev
CRYSTAL
PRIMVEC
9.33793419395741 0.00000000000000 0.00000000000000

0.00000000000000 9.33793419395741 0.00000000000000

0.00000000000000 0.00000000000000 13.66701058571014

PRIMCOORD
 96 1
Ni 7.3348257992531005 7.701330372587712 13.209315438034169 -1.1826336635307826 0.4347676310361739 0.980638286098466
Ni -0.010472493031536297 2.193237920899738 3.2757771443964634 0.6727090875457963 -1.235560336326485 0.63820951110703
Ni 3.679874372609684 6.479471040725481 5.530778962450451 0.8119286673024727 -0.2328632706557667 0.49160418040924364
Ni 1.729095909189964 4.80788746731905 10.181936677170382 0.40853106593714805 -2.7617617735491535 0.8006001296635308
Ni 5.70750403322026 8.97141079585864 5.723484039751573 0.3960609584945953 -0.6222069650311864 -0.27044817088807616
Ni 7.225609322662062 0.058597403719568945 1.6321280006858334 1.4518217367595125 1.2135416659635487 -0.06355021394781958
Ni 8.155051249903199 4.0104092240027205 2.356301594161622 0.4474210581341262 0.3300175458112768 0.07929976347259246
Ni 5.892693941201916 2.788568568008579 8.432039586101638 -1.6424893478838358 0.7105392710196924 -1.0430482157942553
Ni 0.6894346112413511 5.942082274366245 12.14662399335022 0.22852633384330964 -0.4704897670281316 -0.34739794607125335
Ni 6.9908910125054 2.990884247028878 0.287094782215411 0.1514678009964101 -0.0646835562213144 1.0117635467483606
Ni 7.056415295699596 5.589024326056521 4.042195551492109 -0.2913898061367498 -0.7860366300270591 -0.554328298911342
Ni 3.40218288997765 4.346350739207847 1.0651613282388663 0.5228207152213641 1.052515274744426 -0.02720715654241121
Ni 1.6525715396906862 3.4163765497261434 1.9308615838950087 -2.454332397451038 -0.9311072692478739 -0.5764040477644589
Ni 7.452539795825143 8.910751576301923 10.975073714949163 0.603484963141651 -0.8242769044551804 -0.372030657018269
Ni 6.489126464528074 4.652765706962491 9.857659175380942 0.42567158227217655 -1.2747470338282756 -1.5594576281726367
Ni 1.2097386934717422 8.819557312417853 5.59497352383663 -1.3625208962101503 -0.4026612374199323 0.8521098675070485
Ni 6.990573522747868 5.82870107919111 7.751435859086703 0.5554269312921596 -0.6054415726473895 0.4370952507280859
Ni 1.1317482683273898 0.10392840454131923 1.4024680494013813 0.6789362994024307 0.6745512829608578 -0.5983574121070985
Ni 8.236478034776132 0.3115069431894149 6.2956127221386495 -0.1481251097764223 0.19048917656493 -0.31065842455837467
Ni 4.772972931924565 2.263505874588825 0.8188537081388787 0.42363501145812205 -1.014619528139917 1.6999313920513885
Ni 5.147237328450624 7.993047432155429 11.687494584635834 -0.5895215589830234 -0.10658842398521644 0.28186335470355334
Ni 9.165107561755349 2.0869255417967145 0.9487415693254686 0.3149681076773221 0.5787463227443903 -0.7170891563230682
Ni 4.257556324373359 6.302302418088532 13.488942674393744 0.08728843810502386 1.041454388944574 0.6684971063469778
Ni 2.2462587104075964 2.7256028787427304 9.431399294505173 -0.2210462234161806 -0.7875003590567792 -0.4594358232068152
P 7.016532979393139 6.863129398900871 5.844190844185059 -2.1439112857144496 2.5453921296730357e-05 1.4439333351503714
P -0.11205427474733162 8.76348301847726 3.036030356756536 1.2836404796631635 1.5114643881228098 -0.7067571782694408
P 6.492842962278009 2.3569785943798887 2.620212153729954 1.058017435509578 0.09369202763852251 -1.9730565955509956
P 1.275029528314811 3.111464989352755 13.190086764248578 -0.25125488578907695 0.44329340911899784 0.6741818154365808
P 5.053428443033938 4.285691519651129 13.373661209640439 1.1224431100838155 -1.0562112355387745 0.06763132599572867
P 5.467761914547355 8.455163112177425 0.9582625268778131 -0.2535197705638537 -0.553206526602073 -1.2055869298928463
P 6.598426982525517 1.7109149516042295 6.459001355505301 -0.5435072970364382 0.468710820750838 -0.40615588083675214
P 2.3532807724980445 1.4297871092436127 5.382847411308589 0.499742750355978 0.20081755507413157 0.10981747244547538
Ni 0.9397043167566582 3.2734874829686142 5.549270873239886 1.759758648621666 0.09386994797728349 0.08789598978203572
Ni 4.200212071402637 1.9836386533242911 6.545171810873128 0.3147192248913096 -1.1176451744745397 0.7998018021319516
Ni 4.152523242234509 3.6431856297466383 10.278630050413588 0.3619046243278606 -0.3675991036094766 0.28789182028582033
Ni 8.058384956668723 2.891556642591561 5.132194850497434 -1.7234014501488704 -0.5925426051975343 0.39671273314598127
Ni 5.89098509927167 4.703078495597281 1.829275133212191 -0.3704054627100202 -0.3943876845572305 0.24694288867728437
Ni 8.806185390865325 3.40755220205356 7.5996505425644445 1.2111058028285464 1.1640247901803435 -0.7297870635057109
Ni 8.114842105905163 6.736833840941416 1.9733519851802515 -0.06832835206275328 -0.37982161381759744 -1.0695064099857838
Ni 3.3756818331577656 8.751203635208004 8.91538692676189 0.3745655076249807 -0.4228688227160588 0.29664385544683747
Ni 5.48238511926192 2.5565022311207146 4.453313038520407 -0.6452391642603016 0.2689309629126013 0.5498229548418209
Ni 1.2996816741937731 6.893571063887771 9.970603355242766 0.928716400418194 4.68426970961832 1.5742363291437083
Ni 7.622471519577169 6.209968926250966 11.380970363052866 -0.08095092592277026 0.4819368325228087 0.09122325438305579
Ni 7.9898912104481985 7.749374043249553 4.276189237966874 1.3344249093048826 0.8541518376377419 0.8975682569501638
Ni 6.067761528678726 3.038825200416223 11.782766724317382 -0.6835745695053905 0.22507437073896722 -0.5701323558231343
Ni 0.3984739243312847 0.6728345658894456 10.104006948597323 0.04985034786322383 0.5160769687396273 -1.2282800006149879
Ni 6.15743370931345 7.678527137649672 2.9683928990879433 -1.5128648680147623 0.9373586494742244 -0.16424309838420745
Ni 8.482448555457093 3.887708770650615 12.139407637920199 0.5531363354857699 -0.19971738003141734 0.14004696075397816
Ni 3.7510481059011416 0.18994011503037928 13.268685088899264 -1.43404127284764 -0.3241772849804159 1.5993362095351293
Ni 8.541520326226152 0.5539953482649724 12.959770356200757 -0.42690802578243897 -0.6173889748172529 0.7686523731123407
Ni 1.1374444080948771 6.918167182162463 2.288909724158414 0.9712637868621015 3.763402372930899 3.3794765071369413
Ni 0.886634036198361 5.651784580773378 8.265944819448729 -1.5493575636241574 -1.0777005157608022 -2.7968107947334864
Ni 5.7883518661824 0.7096400329280549 12.738159704063149 2.3017129993486876 0.381098423647492 0.22515844581234123
Ni 1.4564095592060826 1.0380514381192443 12.368877095350129 0.0519365409682912 0.018560793721322872 1.0007455983713025
Ni 3.383441656349212 8.821817092456758 6.486103775277687 0.3593859716710649 0.0049892256844752784 -0.6599646433959343
Ni 7.2076524754934095 0.8460411031110749 4.096590884891401 0.24058506478005665 -0.5316306002035102 -0.9312728482914607
P 7.744966538380283 1.6782228445124696 11.402769770081061 -0.2595495216977014 1.7085247901473544 -1.0691379709027715
P -0.05466053072617108 9.148224577001878 8.056224158730696 0.17345124724603678 0.13962581405615954 0.3142332863938265
P 8.531986295566144 5.137834028867247 9.750250522821027 1.1470025445907341 -0.38201013682848406 -0.4201971894211667
P 4.091219705228681 1.5344560119547053 9.00543916131225 -1.1443900466685517 1.2823469576627207 -3.1324076344047542
P 3.0990735508749587 5.759955208751369 11.420946992493178 0.28002604438449835 0.08157159022590468 0.4819625435544216
P 5.064083025779353 4.77899589938363 7.78902010982467 -1.0363867446136796 0.266262929162135 0.5885555955253282
P 2.334175359441849 7.229680661905709 7.708125587192304 0.4829423909691876 0.01044433526177556 -0.732714521565151
P 1.819701883229194 3.760852936648456 7.602383755859433 -0.10262198313830069 0.6361271746567044 -0.7812353519836739
Ni 6.048674791490621 4.280424924849714 5.892982483363909 0.3247537263091762 0.2995607719833163 0.9649059629648737
Ni 4.967977008587581 7.1388225636472615 7.473735972314028 -0.026809663993676406 0.25639709211164874 0.4555873959950025
Ni 0.4435696092150994 7.803543398644954 -0.049734770517401224 -0.5800740404168785 -0.5004348913269963 -0.47940249613672914
Ni 4.336975453426606 6.004412984117029 9.66961466096171 -0.9159598720834741 1.8992191407445551 -3.4028231522826817
Ni 8.486659963711416 5.043875736505839 6.0396020547724385 0.15147165765115206 0.9064213364654197 -0.19263707614586822
Ni 0.992482319979345 5.439981560763297 0.9509201093381814 -0.33348750663774823 -2.9517436714603615 -3.237792525000172
Ni 3.4804254393412193 2.6353517461972125 12.64511466165135 -0.8033630371206486 0.3825570104708895 -1.033808185253226
Ni 8.87989904221704 7.286025755933609 6.784850431594527 1.110581839869855 0.7479547355536732 0.11189466668947826
Ni 1.5324857078711975 5.938757969846204 5.819659157655278 -1.409166106872515 -0.22113441225461272 0.8884084448277668
Ni 2.6411225894370602 7.67824699962832 12.268465356770182 -0.9920282731029625 0.8360731257591603 -1.8227110810844867
Ni 5.315040003240377 5.4855039892329716 11.462329914800675 0.37844350252314823 -0.4120874158298387 4.201488526817345
Ni 3.5943482346909676 4.208662901713418 5.9264122872452285 -0.9146110713650635 -0.2863566145882165 0.49098891542274803
Ni 1.701110120856915 1.576131211597814 7.368172495521418 -0.818529460448442 -1.250910079309678 0.603382890346148
Ni 2.886028585636884 2.795394597795519 3.6764118666657755 1.26590655271851 0.053529596487023934 2.212447125802319
Ni 2.049965998846362 0.3956071785794509 3.6144051832263546 0.1851921898320488 -0.7428007021565594 -1.176196135435555
Ni 5.583897800265782 1.0278917658782174 10.206632711339356 1.4895380203633637 -0.274788707244959 3.450898924743986
Ni 4.290071010718263 6.354380076257838 2.5646551813354574 -1.4114549029066918 -0.27639384694854985 0.23738635533710084
Ni 6.157387019643224 0.26725167236965564 8.179214088038199 -0.6469209228380988 -1.5777643969016246 -1.2408706927958049
Ni 0.04230924536476844 3.1034437040080474 9.877776820487622 -0.7577390686339466 0.3710973465707222 1.2285263122978392
Ni 7.863446245544022 1.8091500177582749 8.686615013005124 1.0098084799045188 -2.653523215555024 1.098782790352398
Ni 3.0038826512196035 1.0085155527347152 10.680905447694617 0.437679148256014 -1.1608075687946267 1.8825637915760611
Ni 8.363548641261328 7.272205613546918 9.15665112868414 -0.5168081904786971 0.9674343858136824 0.5973744793685388
Ni 2.198878033062955 5.194160447027057 3.6738971610274405 0.4271491952589676 -0.23987929696228366 -0.49683123313613786
Ni 4.733744271001262 0.5198941469258128 3.435353099292517 -0.15829228011741125 0.020426643285468046 -0.983325603122642
P 2.8943113331348536 1.598187411812249 1.8974999469322182 0.35701464322541093 -0.7776481488530478 -0.7655940459019912
P 0.08353155520669174 4.772683455969168 4.166060445219634 0.03884216967817826 -0.34181428133588876 -1.7116286258836586
P 4.066315435130503 7.968554031155233 4.2387142410572345 0.4467417726789145 1.7734855112894552 -1.3433268397802025
P 4.78657830182822 4.701939267643783 4.047115708940452 -0.37424154862665865 0.1387884057565287 -0.4675257993038012
P 5.958834528043086 7.7878463315152056 9.76527058973251 0.19041332902167207 -0.1316001155382056 -1.902788346153052
P 8.278965634681162 5.6879784131320354 -0.1279605115996891 -0.0044007001708569376 0.07992891241615913 0.5276029671013558
P 0.49219129799432937 8.439363327773181 11.472307497327824 -0.1632408823719382 -1.0414016813297677 1.0940964406203222
P 2.491724982650124 7.420977578752836 0.6579218852194826 0.09483231189055281 -0.2176084013792252 1.7235019802824771
