# total energy = -340889.4011815376 ev
CRYSTAL
PRIMVEC
9.07818917551501 0.00000000000000 0.00000000000000

0.00000000000000 9.07818917551501 0.00000000000000

0.00000000000000 0.00000000000000 13.28684749579529

PRIMCOORD
 96 1
Ni 6.527217890908422 1.9979369132809686 11.593079754475747 0.7289756233480089 0.7059709349227196 0.134646101453381
Ni 4.825792786741293 0.17407699752925768 6.161416804253054 -0.7619777893056426 -0.27270714212558195 0.08680327093848922
Ni 2.7610222460432627 1.5363745499604444 4.9734794888479215 -0.36733068043943834 -0.5265349308481577 -0.6159491570469328
Ni 3.355262341596925 4.103150785973432 4.989663176377994 -0.027116396600817817 0.6050595067176224 -0.055653070587929954
Ni 4.821262770430358 4.751533200722335 2.3697622861566523 0.25696813412377034 -2.0095878577078103 1.1389989575599675
Ni 6.855285484985819 5.954393243205459 2.7643684665086155 1.5358155632736645 1.3384584559443078 -1.8724554994974656
Ni 5.194040445332127 4.157901343831663 11.716461421173015 0.9903886806170104 0.028246139329886837 -0.5973544247638809
Ni 5.411217960776081 8.05045630138605 12.300006502265928 -0.14634513505786406 -1.6432411384481957 1.866445802968276
Ni 2.27791734022604 6.402737763342169 -0.16310146702841166 -0.22132184567507046 -0.0007057678177729781 1.5684400341769051
Ni 2.971100617689315 1.6193401192302805 0.49577987329884415 -0.029821968457438962 -0.9741637341177158 0.9025173734253231
Ni 0.43847925215054806 0.13645698231378547 4.889241157480304 0.9376522694552433 -0.06611848889562806 -0.7129543082190882
Ni 8.472129102241134 2.1562605294387476 1.2593953722987306 -0.06457762677106943 0.6769138696557632 0.9499693962596993
Ni 6.869801509196615 0.7316811535550344 4.745609682399918 0.18044619050663116 -0.7067443227536344 1.393722004403303
Ni 0.7452948057792433 7.6971785764560074 2.5715631650726203 0.3385068142292106 -0.649376840577759 -0.44139259255185914
Ni 7.614358258210169 3.954277564564521 3.6874060425352653 1.2844946001333426 -0.5276448760828848 0.7122973913613797
Ni 7.88017671031544 4.031759907678434 12.49165615024224 0.2267856970031191 -0.8208300835571606 0.4359750210807137
Ni 8.25792923278914 8.956967942157332 6.924732723015945 -0.9462752352375637 0.15194499774314477 0.34408790786141386
Ni 7.001126591268773 0.4608007032634349 0.28711588349897177 -0.5538912113739235 0.7529298201707614 -0.4428707197592824
Ni 1.8325777006482886 6.494091579247887 9.3512164418627 -0.5243978299004969 -0.25740239344771154 -1.1179506215301005
Ni 9.089627518012472 4.52809173486847 1.4809385888327224 0.66645410777502 1.0657914230280419 0.14123198220101485
Ni 6.192187325868122 1.981015168985206 6.931243600166654 1.7221917461114857 0.8120222554575435 0.7027742823622929
Ni 3.646218299042843 4.172017927726466 0.359511717316256 -0.42248032902838856 0.3929823195692716 -0.02716190512677257
Ni 5.862821550763743 5.752221974178296 4.793482604271847 0.005415257478300352 -0.1642837218141558 1.0910334854242822
Ni 5.370511361300651 3.0117073570857453 9.282683377464863 0.14605254351810976 -0.22092718133981307 0.20977887803247747
P 0.28723934686936997 5.662266199378558 12.625853571313957 -0.6226777340200179 -0.32651621752623766 0.20565534278240713
P 4.271079126093076 5.958242395341405 12.38683574877411 0.8397500603901151 1.9005000643395076 0.7819331493816469
P 2.5129153406767433 8.343654571514938 1.2411618296924865 0.17146841248805308 0.14970453844840023 0.17369678759793955
P 6.38840330291137 7.756767809051171 6.195324747986478 0.5309610849403114 -0.5596664232948039 -0.7310463898341087
P 4.767147685802116 1.169479541530592 12.614719172505612 0.5897817546229456 -1.193919520857247 2.2756358426456615
P 3.80182753668966 5.998758352847837 8.293237941085245 0.6957495143050276 1.1716663658860014 0.1644266751499233
P 4.59794839922249 0.7797746754196596 4.071395280851878 0.5935486778645455 0.8040158402132992 -1.0389449922591592
P 0.060887413622145746 5.7930919810557215 3.4849542574680057 -0.028428173433705878 -0.47774644859054505 -0.26592174377263234
Ni 1.4757140910632955 1.0467242698743142 2.5146556295080194 -0.19801248152516865 0.8901202853125508 0.6713353471267213
Ni 1.8667570822328092 6.481427505593065 4.585277970835368 -0.3306585218293854 -0.1542250520265731 0.7776365788888221
Ni 6.053781256376065 5.7211654896097315 9.186140468726817 0.3953539051252417 -0.5985116782967757 2.2534317957447967
Ni 8.561903313260876 2.4397632937157696 10.355011771594418 0.8716664494827374 0.6806959624060147 -0.015593740673198951
Ni 2.2779990439270397 4.974684164528204 7.086659472387773 -0.5922916655289929 1.1137882626222948 -0.14169966586605273
Ni 0.32189351773858377 0.18520231814860158 9.310837565010168 0.700542821928613 2.067112948507472 -1.0757397924900054
Ni 1.3754454935597025 1.0086321888308487 11.530405753258428 0.314532048581168 1.5708054490852883 -1.7816541631431766
Ni 4.274855652717023 6.854713559078828 1.461579350790494 -0.1863432727173565 1.1958684170535017 -0.5331691483352237
Ni 5.40836740943012 7.658242223835553 8.263807360166558 0.5348218534472983 1.5495534816850476 -0.9895823826656313
Ni 5.238260303950506 2.7821835046019654 4.833449331343786 0.614169953659323 0.3172137091783892 0.19986881800761705
Ni 0.7579997312845651 7.13675473492687 6.639238204072351 -0.35236557448917377 0.37246311656999725 0.3269959853761336
Ni 5.311966120440472 4.798857799978672 7.229665460246067 -0.7474510564443771 -1.5154961349900224 -1.419903290784361
Ni 8.255487199948174 7.444323778242555 9.020453533471242 -1.1973866534702413 -1.5699428439746768 0.19099414122580655
Ni 4.889648768166397 0.5074389914313806 10.72406648118734 -1.0380523052415607 -0.2504457596242203 -3.834512401503847
Ni 7.9694788555071865 7.362520217164702 4.621723268394256 0.030334132207167117 -0.21656787592985283 0.35033491721239024
Ni 7.437742091217647 5.980293316422095 7.132605094735029 -0.6474636827154462 0.8503268074646969 -0.9889090107476904
Ni 2.366220884627802 5.477107456537156 2.360182981123986 -0.7022513199792874 0.273840998619709 -0.9084357957922872
Ni 2.8426987124751166 5.111401690866287 11.114221625472666 -1.1002388060726342 -0.15248261541416966 0.9780227028524898
Ni 1.2512740244194445 3.7645343362781833 3.681864715969743 -0.7412654964589557 -0.9116823277540428 0.512793155782033
Ni 3.828145206600291 2.46683445331339 2.772832062113197 -0.16447784010283287 0.13171478673919895 0.35692131218065626
Ni 0.9110870480272174 3.2457975386364613 8.374354283255807 0.5971201972658877 0.5212299736954765 0.14941940310781365
Ni 3.852492909497949 2.5621554378120526 7.010818465845038 -0.8229525292168022 0.9667327317609674 0.06656097574968536
Ni 4.011061636758724 6.787689289692768 5.978881658032615 -0.46602658905045546 0.4168889509835401 0.6498818052386356
Ni 0.7522650392933455 7.533462516032304 11.58789792419462 -0.6733469782401114 -0.8260260259358032 0.0538044474149654
P 0.2337760762113201 5.613425542559242 8.091610455579174 0.2904138153767256 -0.9908715337907 0.5098615839575349
P 8.309348095284419 1.7685038426871877 8.06479711654915 0.8408515209844099 -0.8017468416734644 -0.3113515939706573
P 1.8933743323804357 3.2706626983071123 10.507039663680784 -2.788646256644823 -0.542589413207859 0.09692184742972985
P 3.8651115922077723 5.9093563475770905 3.843512764939275 0.33606426622598895 1.4018353775390566 0.5073750700902553
P 6.93645357283368 4.1429677229268735 10.389105818202339 0.5026797214971149 -0.568970217194233 0.9569645966306101
P 6.356048637315824 7.7668082860850305 10.343691269911576 -0.3125098759448166 -0.2035634932503849 -0.8996081701983282
P 2.315555511819513 8.54734189810508 5.98775740341779 -0.07065442909276863 -0.316135645622862 -1.5153120440036743
P 6.9682453907112345 3.9313551373398425 1.5231376425797303 0.11359390876877212 -0.19701772171206713 0.6339016277602953
Ni 5.495862995010893 2.5888816262276775 0.740052151631817 -0.2921590802026065 0.07076781474218136 -0.2729722228615105
Ni 1.6677177884106018 1.2435847983365522 7.1446963346639585 -1.194665397884336 -0.12634503778685338 0.05503729138080198
Ni 6.845154226061961 0.7514588961101569 9.267748848741173 -0.8339347392599187 -0.2293899673951856 -0.5932810260254555
Ni 2.7769817023050387 1.6822882817553972 9.331259858984282 0.005701935480783729 -1.8279725865937422 -0.2467793665162266
Ni 6.466094444372279 2.0599591005280984 2.8883347685774763 -0.7264898808116779 -0.01986639990662385 -1.4118788778179878
Ni 3.925336298032927 7.13386787082491 10.272460167742976 0.78253530174202 0.5743080844673787 0.4919361098273657
Ni 8.251156903795236 7.429235828124767 0.3388688233494456 0.23381252194291346 -0.981157906047362 0.3782689246184969
Ni 7.6724768241873536 3.780584574429958 8.296891912157694 -0.868830008475207 1.116213584234336 -0.34827726335241305
Ni 2.898139212697339 8.639049763381793 12.316123919016304 1.517219545439032 -0.6365467786926263 0.39969238459959555
Ni -0.18695168516887706 5.316822951555404 10.383113305643525 0.33733182008450296 -0.8255678553524621 -0.24927359369299001
Ni 8.552716185993004 2.2775814472330453 5.8160516288553 0.24759260644614134 1.0739539042341764 0.0877877463389456
Ni 3.5340209611934172 2.5587874296930995 11.616358046709221 0.15831644848712734 0.17316534057450178 -0.5088308287001754
Ni 1.3869294026445411 3.134843912680018 12.828544112751914 -1.0562778271106517 1.0711999956381228 -0.22804425200056858
Ni 3.198890536074119 8.486236607946937 7.905780834570681 -0.6453438081589661 -0.2823076413298235 1.7329813805278218
Ni 5.6749121166553795 8.052998194306015 3.5245351615074503 0.04944308512247614 -1.5278723971671881 1.4823636141021115
Ni 3.033240821393443 8.206483135726861 3.359340264095668 0.7633260758034208 0.10063863415968476 0.8433431770580122
Ni 3.2620111841902335 4.056915569397081 9.145841479937483 0.9632815399875733 0.21453336199832732 -1.7415554953500778
Ni 7.13886995296384 6.288706631314769 11.795637754354306 -0.04185601680383759 -0.2607116603266026 -1.1573316944308842
Ni 0.6576385362531731 9.259843561760084 0.3290888903398828 0.6917182816584475 -1.26560239121453 1.4046044556437616
Ni 4.761482895866195 0.2911311664936154 1.8820683557999942 -0.4523969140821628 0.6579147028454411 -1.8063298115129858
Ni 5.976734666334146 5.446259770315589 0.462786103197707 0.4087154140338123 1.170155842778746 -1.0719098772209539
Ni 7.980536089709032 8.920428231432846 11.198460864659184 -0.1605625642088267 0.35039045304067395 1.1455598986069369
Ni 9.080004637672607 4.941675869324667 5.64576749869019 0.42922099018633175 -0.6292664429811292 -0.038442620246914444
Ni 7.941055045748586 9.028703791634326 2.5995448670269283 0.43136811843632156 -0.18870508808131373 -0.10098958974120027
P 8.573241971321716 1.7485045923204683 3.5553211160438183 0.762320774467358 0.5015669480489103 0.9753474700131718
P 2.122362571713223 3.329916037909281 1.6964511644140987 -0.6834642691797713 -0.031596543859358485 -0.2067694017821923
P 4.694803597662131 1.0987695274105842 8.345163366526716 0.4794819432244129 -0.793264515234066 0.3964265693641302
P 8.72762565345355 1.6298798966591326 12.526560879127851 -2.4577810181212705 1.236120065484697 -1.520290213944556
P 6.5074274388887 7.881002825514429 1.538324544957617 -1.7016422040949082 -1.721169218384242 -0.6493632137310043
P 1.6326215097370942 3.204446387742041 6.092896449319816 -0.019334695772869927 -0.5756720546944408 -0.7008508400873349
P 6.949099490110504 4.073664828101846 5.80818537808691 -0.38147457603998813 -0.478326489463731 0.8407928998323325
P 2.0187532006576765 8.47047687184316 10.188248163123458 2.520311532555324 0.4284064647048364 -0.5689416779491427
