# total energy = -340890.4904545943 ev
CRYSTAL
PRIMVEC
9.09207984448643 0.00000000000000 0.00000000000000
0.00000000000000 9.09207984448643 0.00000000000000
0.00000000000000 0.00000000000000 13.30717789392401
PRIMCOORD
 96 1
Ni 6.37292065750272 2.0476091304777113 11.304407516022794 0.6423849826409582 -0.542565244838143 0.5997797463759218
Ni 4.620004020795406 0.6035013507960056 5.793359662295597 0.8193835809186211 0.29795537516940945 0.42217591041409225
Ni 2.96342706272536 1.8404006295204316 4.599080417317873 0.0691171665126358 -0.18509525924286832 -1.9021748809387693
Ni 3.4568724231445564 4.38562838509217 4.349916513654697 -0.5313930302714074 0.5694474139409677 0.658386500275537
Ni 3.905512013808708 2.8767431729435824 2.2150334174095954 -0.4114212430007495 -0.31961460531039787 1.0636270683868714
Ni 5.122905144312258 4.940472561086817 2.702900786809165 0.4580746811932304 -0.46450809552340006 -0.4785910559790274
Ni 5.178403200031576 4.626213911368193 11.44494470426969 0.5380210771108863 0.16540497990279254 -0.14824260919089308
Ni 5.51351908104445 8.031961569226098 12.332892683994988 0.8312037134820007 -0.9552111042746131 0.23415653554589355
Ni 1.9658804242423016 6.640755147243815 13.413236348101893 0.964704645587345 0.2805274095009491 0.3101758284950013
Ni 2.7491540156845438 1.8198616210227356 0.08274974680835846 0.7568384111965483 -1.5731325545565682 0.1641417969196528
Ni 7.9184742278944285 8.737070549754355 7.323738551331548 -0.06948843380912548 0.8867038034318341 -1.2580150657855753
Ni 9.052256591622939 2.462862603743217 1.2926100891134404 -1.510298907059799 1.0226645099315808 -1.0310817874609983
Ni 7.121644345318913 0.7931812309110063 4.85287491727493 -0.4767684009479917 0.5070421122308687 0.08426919166272584
Ni 0.642517284069717 7.586922442202978 2.01904454305088 1.241258672262843 -0.9308846117141064 1.2796652970654994
Ni 7.838145701963864 3.939370919362236 3.733262560073049 -0.14932247251863315 0.08381976283013305 -0.5284632582191222
Ni 7.590268327606763 3.6531431519802204 12.5769995728169 1.0862874860988647 1.065993511736519 1.3340922085558122
Ni 8.549573678023725 7.128336116126485 9.27957404569857 -0.557444990163453 0.561524302439149 0.06402561092234134
Ni 6.888132457206328 0.6451348938733852 0.13363175356163728 0.4126306899278183 0.5539948268313233 0.5892847603818689
Ni 2.0575649579699546 6.625516821328747 9.12941561849981 -0.6021919553618403 -0.34976644630342985 -0.11786991043630668
Ni -0.0383767600566293 5.003780713441601 1.3344036527970877 0.3445136825449228 -0.6817467722680324 -0.9363294368787616
Ni 6.561008514426953 2.186663400492658 7.021265964789358 -0.1321279630172176 -0.8457438160797047 -0.43742538037399503
Ni 3.5360280707678156 4.391074540953223 13.220947041055137 1.155609569533455 0.1557782554463059 1.2314069762797437
Ni 6.1630572692141765 5.954739534508902 4.718206666604511 -0.8113218869564092 -0.8434509062804699 -0.08045187479916466
Ni 5.586446653935119 2.915811840280723 9.27043195935752 -1.3353070547995196 1.3518400194575364 -0.7380269349169999
P 0.23232991772537812 5.530703112058459 12.499365939369167 -0.30481739239656536 1.0034874227824977 -0.8456535703587436
P 4.132823103428407 6.323787057714518 12.485020455700436 -0.09370205494085153 0.14251162024438685 1.144110824865236
P 2.5272163452866847 8.754181844129151 1.0515663220103764 -0.09241650336020858 -0.7223123523952205 1.0046850426350245
P 6.576574155218478 7.971635619079036 5.750816911228058 -1.1644024852347368 0.18297821289986552 0.2087211261919244
P 4.854852444653526 0.9997014614197355 12.30752941790151 -0.7872375923136958 1.1022445236487532 1.5156987379191316
P 4.237318377737402 6.485644264122657 8.222226070078772 0.40228611346870075 -1.6545709616387183 -0.8752374546634475
P 4.854697879295198 1.2723820297483788 3.5116576597995883 -0.22347925833770546 0.14660198826367654 0.9587335156055746
P 0.4031710082842804 5.733501954263467 3.3008323294574553 0.4573532296461736 0.22580713513993372 1.313385315025764
Ni 0.5572499403366077 0.11168983713512552 4.871650971479706 0.686762737425385 -0.08597563283087128 -0.0625999342194083
Ni 1.8938802435015953 6.502519164420011 4.800937320045075 1.5006220460916673 1.5792713204644544 -1.4776014168267777
Ni 6.323068783402292 5.60695838619311 9.126647989377766 -0.0881016780349386 -0.20344136585022382 0.20702265544357895
Ni 8.689964483784207 2.3998544900251852 10.235960838467122 0.37050239329920065 0.3873536605285845 0.08188166526715575
Ni 2.726487460489875 5.522056544072044 6.931588962303977 -0.8638865484270024 -0.7281176462230879 -0.378299006525484
Ni 0.8683090871378603 9.004068568144502 8.306766047419753 1.5452162877622744 1.0914608027696882 1.9863846801184692
Ni 1.5171680969389376 1.1303091892061032 11.280148937637357 -1.097493125006697 0.6934000402362445 0.13716809654428636
Ni 4.3285301233101725 7.009184409016123 1.3610316272048801 -0.3224916697478769 0.8089377029949487 -0.012253106335740189
Ni 5.968714061317649 7.762854188298781 7.980501306191078 -1.423406161731297 0.25761759478231117 0.3513826417506142
Ni 5.553333298933521 3.2550282493292158 4.957509300406419 -0.703990157047265 -0.7161283350716957 -1.5310443671372664
Ni 0.6661748759736591 7.3538378818457675 6.849377466625793 0.9387925537072734 -0.7212548576649837 -1.386049832570026
Ni 5.286444385502192 5.055696489679691 6.823295017012096 0.026570808509992952 -0.3268512322681532 0.5506361947717355
Ni 0.8995749315034546 7.437675950618346 11.433514141417408 0.2099781385274771 -0.24107280304975254 -0.730243177206523
Ni 4.6747747101225965 0.4115429954576662 10.250825479898234 -1.0063066373988476 -0.7149433136246591 -0.7375345686616137
Ni 8.273319922293757 7.167332046824413 4.688823791986535 1.4743397153563707 0.6505821737397698 -0.4589079757278032
Ni 7.459951546377247 6.222628576729407 6.744357579306475 0.6616551437244799 -1.1703761863196682 1.4981455595267168
Ni 2.4993309362285023 5.385748082187379 2.1522362399452803 -0.2903341111787258 0.02048217911375182 0.8311168101951493
Ni 2.6132910657150554 5.383120471095819 11.198482966753268 -1.361164896402888 -0.0002779362517350052 0.09755305325582554
Ni 1.0598637541285691 3.4109756038013206 3.2245288672993255 1.403783502404363 0.9784975856063793 0.8457276181297886
Ni 1.2758642963506883 1.026068493134352 2.419178796648029 1.6173838110654595 -0.7366498520638152 1.2522830483978047
Ni 1.0314873727557008 3.390636621061459 7.991799124676796 1.4784046294543636 -0.01104237385709066 0.21878262419298447
Ni 3.8871096440878854 3.1377858789981876 6.661892414599036 0.05390626310015233 -0.6892235402610517 1.3011918582833655
Ni 4.322583903054531 7.2624170184352606 5.778868705348439 0.1190875848934917 -0.3511946941095242 -0.2958576121001163
Ni 0.5145617159906435 0.18021866176940407 0.3435178720499358 0.27103078286442356 -0.13026288478402084 -1.1685008236738263
P 0.35190713417513464 5.583737214124445 7.993502071242364 -0.008123143327766657 -0.5908731879149115 0.13115325780877413
P 8.549455480985005 1.5368615420057856 8.166828027238372 0.3433165769130281 1.541578948120003 -0.7816750106242538
P 1.9445776810328719 3.4546175873289613 10.171927138136189 -1.1894401449296548 0.48993424890598847 -0.27140487837439065
P 3.9769757618352197 6.6201434021069065 3.570142463766578 0.12536544748240344 -1.357487961771933 0.6741558472946518
P 7.036060597205228 3.977066682634236 10.51865906043134 0.6298989343588055 1.4161654210084835 -1.5171796933400323
P 6.658248308974478 8.094533263108854 10.1538820871555 -0.25782945368280114 -2.3494897525123344 1.566216029942393
P 2.566866905737527 8.652332365071517 5.747662868710196 -0.9710136185245083 -0.3558118811665614 -1.1414456193282472
P 6.996382760514682 4.000860655736702 1.5082624046753283 -0.2278658174411753 -0.47085460656671807 0.5708543215908233
Ni 5.284153181366991 2.6718713365210123 0.3616647543255231 0.6778011573567231 0.6411832490233732 -0.8288151586451661
Ni 1.9544971402055085 1.386869499869224 6.664394554987954 -0.41149323388926556 -0.07159956661485734 1.4986695503509868
Ni 6.7715083483086085 0.8170270288689114 9.232413427249012 0.7742928592275697 0.8923736001231019 -1.0092037564409846
Ni 2.704448258808416 1.7220763016811145 9.25816310673831 0.770134614084822 -1.080755500537042 -2.0109641692300464
Ni 6.594003672389829 2.0540463230480386 2.4815222793252545 0.35107745180536953 0.07748456464072462 0.04461223939273607
Ni 4.357279279959006 6.822387627437917 10.404682565200964 0.9373668770043405 1.4103904661979194 -0.7645617479827349
Ni 8.287158067903981 7.282728724935416 0.14989293846563442 -0.9705076254223672 -0.24696937103984565 0.047006964877157754
Ni 7.867894987401873 3.885100294429634 8.022644914950938 -0.5429514245329682 0.7024819479328548 0.4654820294008951
Ni 3.0710954729200113 8.815053319070309 12.175043266407473 0.6885738224921949 -1.5520888465123914 0.04983235014109482
Ni 0.08540554334761347 4.931071350468571 10.321300009631452 0.3313648038677906 -0.569521975932645 -0.11912795121312386
Ni 8.80621581740596 2.3771879348305167 5.868132927406289 0.6074426622378183 0.70495612050496 0.27546156494226753
Ni 3.687765792245483 2.866123623618523 11.217099000351777 0.5939708530036287 -0.9789413580120173 0.5056200350723614
Ni 1.4430312774213572 3.6238757467769966 12.462158420787883 -2.5002253033284103 -0.29789186892132563 -1.296947738295031
Ni 3.2853321516412217 8.319162189157584 7.797953253550887 0.12259919759117596 1.8456944293535373 0.5206620170071484
Ni 5.870237743903506 8.19382786771414 3.550195349670476 -1.4320080444676953 -0.12193148210019 0.4315684073725857
Ni 3.2095678498212563 8.69134647992925 3.3967501355872893 -0.05287345096026378 -0.1379887926733688 0.1988666019953478
Ni 3.6888750259934766 4.640024780738712 9.156869153762665 0.1634478561764217 -1.3247835295603767 -0.24702362131654879
Ni 7.204254983304777 6.181750585491849 11.457946378528966 0.34250050876963595 0.20829252329493808 -0.32037925139056433
Ni 8.008249424842747 8.979974556405285 2.632518996290942 0.4121889744047095 0.5345220628186923 0.1380877801450783
Ni 4.681111889814005 0.42164065939637413 1.3734204952787892 -0.2932741676436562 0.16012830488488553 -0.030920086617624166
Ni 6.126207069373024 5.619814587173961 0.5074589831715199 -0.06590431600229295 0.8847150551365796 -1.2213616762286
Ni 8.284294062734979 9.022170899228573 11.504840599037408 -1.072404043248553 -0.2671885263001979 -1.0300502608726905
Ni 0.3496259313278252 5.094710604537422 5.701979713244646 -0.5516584653886628 -1.8674701304677324 0.030029199372238607
Ni 7.404035254982457 6.182987108358466 2.724924531954791 -0.6350336844822095 0.6011925675630485 -1.7843774756116109
P 8.721077581207455 1.8156701721881017 3.65805014750311 -0.5537379736255109 -0.6726121569566158 -0.2164048679894273
P 2.069784713357694 3.443197934972562 1.1855272088644515 -0.8918591223805284 0.4491845777924522 2.302756095901221
P 4.83180402210299 1.2856473743248011 8.0415146175787 -0.9631460428509735 -0.40396452961238816 -0.3387058176138941
P 8.705193717619373 1.7733465402461912 12.551117148961037 0.026463593508167328 0.04789193858527235 -1.2581140532572848
P 6.4204358670684405 8.049291073518532 1.4752736111683824 0.5693705379564452 -1.4257903456927574 -1.3979172734315732
P 1.965134873690371 3.3621329505699684 5.736976947201855 -0.8020299201315219 1.3530337826553214 0.13307181498772566
P 7.271636387455475 4.0386564318876195 5.807984272817308 -0.08676393306012153 1.2793223119037838 1.4254399043318742
P 2.3693596540352457 8.557920207373387 9.97567277504435 -0.11442206109702228 1.0249756745632603 0.6536911516823968
