# total energy = -340864.7272756804 ev
CRYSTAL
PRIMVEC
9.32203680619977 0.00000000000000 0.00000000000000

0.00000000000000 9.32203680619977 0.00000000000000

0.00000000000000 0.00000000000000 13.64374315179556

PRIMCOORD
 96 1
Ni 8.389189632512453 2.9475440440364262 1.9491045277322474 -1.0184633273660395 -0.8517403999827718 1.958475869523343
Ni 0.5845131294451303 2.3482862494539187 5.415133716660448 -0.5242998708700518 0.3646767877563591 0.406317603225597
Ni 0.8947570297027693 8.34760402767093 3.058040007118148 -0.0238364402979654 0.5380920395581378 0.10511518187379962
Ni 4.2555376298969945 4.596062301328525 2.0223030227639933 -0.15744021652976112 1.6178998314699296 -1.5746345930233914
Ni 5.00200902494069 7.623859757622445 12.186782219181497 0.966626030979774 -1.8220888741194554 -1.5642295956399834
Ni 8.236187047382675 2.287310808685389 13.478530292027646 -0.2456977034162736 -1.0680992452256122 -2.1088121280184713
Ni 6.843111234355867 5.864959266093967 12.88071648089951 0.9993955121013112 0.3201655927178615 -1.0030269382063113
Ni 3.529378952394139 8.596903249880498 4.134190816325353 0.648633020433199 0.9001743271144432 -4.340902224862699
Ni 1.1479435411342438 7.9767920596399575 0.7586804662521558 0.37727082237128573 -0.6056439184661827 -0.5800655557764461
Ni 3.2895695633449975 1.1801884653993935 7.319841113341755 1.1621304013711082 1.6172089760504922 0.11348823642884324
Ni 1.3785614021910644 1.9399064743143744 12.450992970981854 -3.367525248312336 0.44737169295342955 -0.8840709937946775
Ni 4.259909665017075 8.52903882413598 7.888143221307529 -0.35523441139653655 -1.6778656705006008 1.4450502223636337
Ni 6.48263740480713 8.309365033934114 8.351211655797732 -1.803494913167352 1.4116919586181624 0.6413192603806053
Ni 1.373946994121897 2.8381126575233897 9.952633120267514 -0.546098197692066 -0.5047864834274726 -0.15808170676850195
Ni 2.1526912795402517 4.053109607226359 3.4813779220309966 0.8844983111400833 0.07435064699743324 1.336277389132589
Ni 0.21228607627294743 6.346358553164394 7.537990750575322 -0.27353812266730954 0.6165443674287705 0.3356171513862414
Ni 2.7436058514522452 4.6275614626734045 10.321396104675047 -0.8713265496448156 2.272781661026318 1.8583727961521543
Ni 5.956772003615638 0.5749673640656815 4.07478520650399 0.18288051097973665 -0.8117803146500665 -0.38127685820688534
Ni 3.8418163278410202 1.9002225649195366 4.195164392686583 1.40625690364552 0.9349281856558608 0.019877712760533506
Ni 5.409046426823749 1.231450344131414 9.217807745427477 -0.1577189241124445 -0.8392178420357288 1.042142159040218
Ni 2.7670694173312222 6.230131402040401 7.240816345495404 0.701167085776173 0.8162974857941296 -0.9830854620873779
Ni 5.624189707284979 1.8398717005967322 6.0622014398577795 -1.6616736341217706 -0.46522131954034074 -0.38634270276556687
Ni 8.547524422522159 2.708004994045883 10.909864574208555 -0.9048015414738095 1.346927155536951 0.6541639775537572
Ni 6.743365443769829 1.116080820365732 11.308793668740984 0.45900824875109336 0.9953719927642147 0.8786048284737836
P 8.534007469592275 6.152497482040353 1.1092878523657277 -1.2345714900506546 0.8201885933184198 0.14292402519145708
P 4.35832240438313 5.741293129840288 13.394498658375335 -0.06410582934097346 2.2876110127296667 0.526137695409739
P 0.8683560901215808 4.1629325192725375 11.677774788802697 0.7822676499029302 -0.2618079787145749 -0.17071250815863503
P 4.658156386477458 4.038306213259011 3.9754178905999895 -0.44952987694701296 -0.7245571825653393 1.5931419077989595
P 5.570345624441526 8.965962675048837 6.142713072526418 0.2453521471513968 0.4843523839428368 0.36877641174702935
P 8.778981266864283 7.769758950936658 4.559124663887578 0.7660650720011387 0.4726433230360247 0.6045149470680621
P 5.142622623557492 7.412035122156414 3.217522339821418 0.6934375783423993 0.6838509630952287 -2.2593641020688313
P 5.345106578447148 2.7304990681285095 7.843459903735935 0.06584235241610595 2.8574548907781048 -0.13640550734664894
Ni 1.759581000193224 1.4733478693573099 3.4039229851318127 -1.0107813853407497 -0.5043157144386411 -0.4978488757673748
Ni 5.929048267054622 2.8051033262649634 2.871475293965293 0.7989463961101917 -0.9197411935027773 -0.9045824834844679
Ni 2.715993979329269 6.90484176008117 9.646098458334567 0.6141403859729682 1.0379741437054575 0.342682542873455
Ni 7.241842701714425 4.228513046073731 7.405632747485901 0.12635197976538884 -0.02965536097258763 0.7479519073401958
Ni 2.5548159681860363 6.681737460446063 2.1885652726161626 0.4093062535402757 -0.7825607556633167 0.49154144549210826
Ni 4.827304738831071 0.3766466306784297 1.911215110364308 -0.34994128131839736 -0.8043541973893243 0.4475856087364485
Ni 2.8874635187722197 8.362519286076319 6.054233895258351 -0.03452528747037925 -1.2999785547015548 2.6496457348774882
Ni 2.1179387274556962 8.57767188857405 11.80256050164043 0.05685454709519886 0.9514796622566388 -1.108428540972278
Ni 6.677738306786118 7.600349581560951 4.738812510711899 -1.851074205608212 -0.45063699396826257 -1.1950808881552
Ni 6.384495004499672 5.347698104595085 3.017367961853953 0.42555588262991867 1.0133483747369774 -0.042491593505307464
Ni 8.623965121849777 4.791657271242191 9.385830927975132 1.7912700889663862 -2.7049041411301613 0.34049427697288454
Ni 4.646736891760833 3.733606128109925 13.226762594551984 0.33859037508195233 -2.018140375263511 -0.1154985819906527
Ni 0.154600382186456 0.6073912714316961 10.643824838846237 -0.24605920052075042 -0.9691791364189308 0.6523708902090766
Ni 0.13234961325656697 0.6793900203654587 1.31358773996624 -0.5854152501241338 0.31524938636316674 -0.007453628064567809
Ni 5.005551398811969 5.208249760541203 11.28838213761321 -0.1450456995201502 -0.0013043206337203343 -0.37686998738844124
Ni 8.663518522733566 8.799983815106371 7.939089083002085 1.0583061703945902 -0.49724235253162746 1.1923966564548174
Ni 8.06919208546134 0.32496246369280657 5.8157547608182405 -2.512857390270124 -0.5777955287953468 -0.3989850741199258
Ni 9.331917862061555 4.339696975449401 13.69695306493076 -0.6149456554830829 0.7493374748338127 -0.3518757793369488
Ni 3.676061196774634 8.660507504942979 -0.09867748520275146 -1.0221610879326009 1.3922582753735828 2.21226637725008
Ni 1.2214757650728105 1.0873875920083653 8.43465693335398 -0.030777133281856668 -0.6537186624862226 -0.1669926361048866
Ni 5.912790635392748 1.6713665687618526 0.11631011724887201 -1.3535811705183591 0.9470419382002592 -0.9277676633516796
Ni 7.412696986748154 7.137445214913208 6.669429575650667 0.9396276480140592 -1.9937105243559214 1.3801542930211972
Ni 3.494598434200073 2.530261724036165 1.5602572156782095 0.3966739094882459 -1.5776376415157733 -0.2586262385524837
Ni 7.4880749739143875 7.791451329879996 2.578517245995849 0.89963593811247 0.3039820409794636 -1.2755427902566936
P 3.2100246258617586 1.8361242419223784 13.091539929645078 3.8952652552121885 -0.44746425266723583 0.5475202748505732
P 8.36368454063924 6.0682076279769 11.185986092049266 -1.3106586601232202 -0.7695124071197909 0.19655209492955827
P 1.5996148537954293 7.9478284922239935 8.0772453927966 -0.5216632045781532 0.670229258546736 0.024431907790119216
P 9.299197513934732 9.117361869900037 12.875995801614206 -0.012377804839062553 0.5617508166276584 -0.6540099684743963
P 5.1994963682645405 7.031080778409779 9.898303359322234 0.2957352275896391 0.5388253181797364 0.5722560870343564
P 6.572362006152047 3.4104763767936803 12.059239980149716 0.12556599352898376 -0.328844351438782 0.14678530791907624
P 7.027473150282975 0.9400341609996276 1.748787014125974 1.2028703022926317 -0.4437461803857003 0.9561598413411274
P 9.24001190417485 3.028804236236285 8.007648932669756 0.6885748509334593 0.5483114032933009 0.18728943868070969
Ni 3.648486612797672 2.6979651607317554 10.956717129674482 0.784204719024643 -1.2593972908450828 1.1263481015651764
Ni 1.5088834725081488 6.743151036930252 4.717678521755113 -0.12936762666326107 -0.9194300900202618 0.6261554081559733
Ni 6.858865476046558 4.286813062365795 0.9376458552474647 -0.5207959714818514 0.11002470336027503 -0.7648445693304763
Ni 4.5138699054783284 5.354419292914013 8.689290224850778 0.6639444539792888 0.6307859649494492 -0.1916438589946635
Ni 7.476692767343775 1.7978479600395496 7.7886668375764385 -0.16179103729928912 0.1568311221908525 -0.7802300506476112
Ni 3.9435290681292683 4.213513889339812 6.235272505172009 2.2907600998816093 -1.1583524223859147 0.22187231886190178
Ni 3.4480628279752605 3.314170417677386 8.660147674333949 1.0088119203192045 -2.1760217930957495 -0.7264402585206651
Ni 6.97583839009082 8.904931302061287 13.240420310233068 0.527129627009363 0.04488426210720012 1.0627917169697696
Ni 7.32355967370295 8.04198106090801 11.107125392045374 -0.3545142454010604 0.18598126139224747 -0.07254984634326861
Ni 6.183092405844406 3.810028183364536 9.598536495890732 0.326319013913767 -0.7522675039964142 0.6864020116518565
Ni 7.611013991320805 6.640664567612225 9.228081561857838 -1.3769573833504545 0.18381305009633506 -1.0948492596259467
Ni 5.674379551819112 7.17019352914954 0.9793041719737154 -1.0516727242384727 -0.31876665548780586 0.5797796491049112
Ni 0.2809214344362949 7.546626685192042 10.202476749408882 1.3661664633825377 0.8373309094256611 -2.880155160589098
Ni 0.5647149883192775 6.982885849687366 12.295576910601353 -0.023429691777849974 -1.5233909643570667 2.6134726273910407
Ni 8.583600703790193 1.0190384203656713 3.602848718688133 0.19839891833030993 -0.9868852954494421 -1.2880087839341883
Ni 6.3417255010222195 4.8093971067081 5.366739296356864 -0.3328128491682268 0.3466847220543126 -0.49790544003692316
Ni 1.6230597756013996 4.529521604767483 8.245950948416302 -1.4235066918649033 -0.31720908119269886 -1.0316255757796107
Ni 0.7849853888573596 9.091372032128648 6.197574189552388 0.42528565968766757 -0.8214551187356692 -0.41710080988403003
Ni 9.017094045269811 4.782391166957844 5.838362563746209 0.475709106445542 -0.630941773801023 -0.8988741202457811
Ni 2.350374385630673 4.6307402771210535 -0.07800773366383362 0.44293165490420494 0.225417870121315 0.15805085353056653
Ni 7.365592736296636 2.346309977715205 4.907189930646682 1.025542345700008 2.1008478788660723 0.29412083191466765
Ni 1.211007118079528 2.8105940057654473 1.5736287448386406 0.8908137118351497 0.6690097843173382 -1.1994394222342117
Ni 4.562773308974997 0.5276626898293407 11.592719595542315 -1.1155137299538338 0.10392630377202101 0.6346343921612618
Ni 4.062543508167768 6.085416107362117 4.489392102027785 -0.34663124310855786 -0.1512852526719588 0.8120759915136143
P 2.04999972541915 4.73754284934014 5.789435855158281 -3.1851473880006305 0.7699728916959772 -0.7113568818249812
P 2.510825277926643 0.12282528856107588 1.8598199265102895 0.3495833837583463 -0.5198248658178337 -0.21580991471790578
P 2.3174209865912676 1.039528256600074 5.469326443669129 0.3142492272334265 0.7407201654784469 -0.6147014006827607
P 3.3973602714334414 0.5006800551703421 9.669988973485397 -1.0525898367361033 0.28557397078592106 0.35135410250552396
P 7.561728384327497 0.4940054770339306 9.450352471429543 0.6222293336286897 -0.11671934177163124 1.7409500005555953
P 8.18380652427025 3.9656689048247675 3.8236998821003754 -0.6462732619517708 0.9317942680125695 1.0044485011441862
P 0.9536536563310481 5.041031069743789 2.039630824216454 0.9477983567503097 0.5095301687600451 -0.9840226291896667
P 5.177151446765968 6.302507693452551 6.644175246559392 -0.08175619543288501 -0.684303220141299 0.1517645063012225
