# total energy = -340853.4625733872 ev
CRYSTAL
PRIMVEC
9.40033300970766 0.00000000000000 0.00000000000000
0.00000000000000 9.40033300970766 0.00000000000000
0.00000000000000 0.00000000000000 13.75833755992310
PRIMCOORD
 96 1
Ni 8.911863528496207 6.768973010412559 2.4369319953519484 1.493117767294822 1.2775176545948772 4.594400398159997
Ni 1.5517881765765438 0.4751755544659639 1.480548692712142 2.612156222572463 -0.4777281937580999 -0.6885889920008463
Ni 8.66769927827268 5.383702333199206 6.047849022513228 -0.8207310960854511 -1.4328534231871257 0.25825831369010366
Ni 6.340947646378225 4.299185911073691 9.38863431947803 -0.08384495964111367 -0.48909375528256416 -0.6573480317086937
Ni 3.42522754857537 3.366719875772135 6.686964505024478 -1.4076121321218338 -0.5694011340840646 0.7370311466626338
Ni 2.066823023173015 3.2586818482130773 4.829548000681999 -0.8014609350019294 -0.41391521306719686 0.07564211211534716
Ni 7.4092014923550265 8.19318926738552 1.5312475088640842 -1.1438819966838816 0.1644575283878587 -2.117531253059024
Ni 1.0807938902440757 2.8170260012795323 0.2706130272478156 -0.045653536173056855 -2.6441096355506075 1.8545914747328511
Ni 3.6251632318742137 6.544032441243439 7.465741675454257 -0.9966714283019287 -0.9789393011294882 -0.5591408898086371
Ni 5.7193506245090235 0.4773874528288497 1.164307388950891 -0.9140197176379677 0.11667306191472811 0.4297889468746598
Ni 4.711117904953921 1.5937230622409444 5.807669573462789 1.3887476911171632 -1.2055905294372722 1.595212417174743
Ni 3.459613966813518 0.9900806764665666 0.043688047775230415 -0.29852590296089876 -1.4507151339588953 -0.4014026824224829
Ni 1.0175860509238714 0.6910974441223238 5.870118805907154 -0.20218178241150986 -0.44588585243652235 -0.83038224602197
Ni 2.104565360304279 3.2473638472402144 2.3521945732841143 -0.2869428261089897 -2.6879580001941252 -0.6218087011515033
Ni 4.706793751758309 1.3570038757802987 3.5704401331504427 -0.06130358400548797 -0.7248654578343775 -0.9414065942913528
Ni 4.58433561332519 8.814908493584161 7.030620940045907 -1.0983976390988373 0.3860303137314706 -0.1825570662020469
Ni 6.364702287954988 5.684174578296026 2.8994180402553984 0.9961397241681749 -0.12189882909004167 -1.5856720817844756
Ni 7.157028158386585 1.0562590210254956 11.345826898676037 -1.1409128867532288 2.5269406078360674 0.49338595490001486
Ni 9.36614402269433 2.322653086691658 10.952352458707944 0.6815289998302715 1.491416725443315 1.7875419893825215
Ni 5.877680433799655 4.216641586702675 0.9792496127448623 2.5941523297958744 -1.0797347725820114 -0.12334533172858111
Ni 4.044455686520019 5.198647377093088 1.488197743701858 -1.6713692641429794 3.331374766533708 0.2180855981259599
Ni 3.2975804263075155 7.318460077578416 0.2964066010596402 1.1469611498298378 1.0139366431402796 0.738840689067547
Ni 5.188241208424518 7.765013498022642 2.347928702153313 0.41950273445730335 -0.039114192392642314 0.4435191519765587
Ni 5.740454372170217 6.603169936359946 0.3762483296833991 0.8009312877507045 -1.307571022336832 -0.37054867315610374
P 7.314446135372924 1.1536276705910333 5.345609363645777 -0.6368704805806321 -0.45087867766542344 0.34045622464609754
P 2.0002592649596944 0.5657299026151995 12.166745762096964 1.7095504031983915 3.5440674757788706 2.1482999017004483
P 6.604984200635497 6.9093575839414 10.39154833060253 -0.06958999238399628 -1.13239405064894 -0.017486843930853757
P 8.175131227627324 6.080163607350696 0.8172489734044787 -1.7933318565914211 -1.0481533982313045 -3.2216768503852324
P 2.4268087767077 5.309674710556939 6.039222336887982 -0.5192628226667767 0.35612169909749636 0.6747328028440445
P 5.599204968002253 7.114378847411605 7.286607989126218 2.8812620205000314 -1.4021608791992757 0.01244825306568179
P 3.3730086985718404 8.669898956202623 2.063764154803771 -0.40008679182453677 2.64038307862864 -0.49891022715235367
P 0.12184805681921769 1.8312130760103735 2.1694285982717596 -0.06021292204447049 2.49102255378322 0.2754541087430998
Ni 1.3436930042042412 0.6511253479954093 10.228305907268362 -1.401515789416109 0.6398750717349109 -2.0973177542256267
Ni 7.115901701363103 2.1512662148168866 2.3355738444468073 -0.2366397069790634 -1.7622371920691455 0.18513485423155213
Ni 1.4366246965777598 8.143574309632392 11.748891558405354 0.3688363184506873 -2.915211895082915 -0.710742388169434
Ni 3.8366801254708696 3.1661919714921534 0.32398811821451995 -0.038131773874714975 0.42170591275620917 -0.7049484071954762
Ni 2.977752895493817 1.1728419513124042 7.800096480938605 -0.14859742142715052 1.2077427998935846 0.33225209156875035
Ni 4.908421495003263 8.484768797432233 4.62006345908728 1.3474151509169632 1.0534735248926375 -0.13706910907257686
Ni 3.032265426757628 7.566130652023601 5.337753505329315 -1.1570355033467041 -1.780563244071843 -0.025394271703388524
Ni 3.3814125963041812 9.393066576503532 9.953537932819545 2.0106880327505245 -0.4367427524846736 0.11985531629745165
Ni 4.508822738063559 7.278762471176092 9.518912594962083 0.6891492353796905 -1.6344934741625528 -0.9434033130064075
Ni 5.818044721032347 8.898082640268452 9.953056635768208 2.0693289823221845 1.1371793878527254 1.5102852802130442
Ni 1.93581058167901 4.902828296848069 0.6448891670606944 -0.10889187530741246 -0.24515468642861007 -0.1544425673540179
Ni 2.378199654589203 6.864734203029293 9.953180720164257 -0.6099101499417044 0.14869126669253746 -0.5069513522892753
Ni 0.8839979181785677 6.675270490730258 5.041329983670212 -0.42728983460188996 -0.4515386798469256 -0.3184774063821612
Ni 9.069920728128853 9.30640490626365 2.616037480680887 -1.3220283354127427 -0.6257599724897674 0.4113695638272077
Ni 8.62793586953912 3.0568472976413776 4.2191871968882655 -0.4566690590949554 -0.2776215487080638 -0.37220137826817834
Ni 1.341408723276994 4.586027673271299 9.748883282337665 -0.16537618354738615 0.24829246072664338 0.8854228798368815
Ni 2.300120488409307 8.303351770210249 7.987760969494945 -1.7132800454441526 0.8689575351920066 -0.05320358060617289
Ni 4.457073904711726 2.2482024490628634 11.760035653217088 1.1500454451821163 0.13650192371519718 -0.35013000029043573
Ni 8.084342811185543 2.0245403251863583 9.251257852520048 -2.07235105697796 0.3625674547228401 -0.5171360061317609
Ni 6.048221275701372 5.2840870040385575 5.894003172079786 2.391105628280908 1.5861654764811264 1.1054717723367995
Ni 6.846055741290857 0.10334914144172959 3.5092430250661977 -0.7856633058480404 -0.34914115401460516 0.26680260371568887
Ni 0.36932874453711684 9.24167421299195 13.457662476548764 -1.544673784995243 -0.07855568621771633 0.05898599161590487
Ni 3.8489005584149902 4.573412426339753 8.514251061926574 -0.08691125727126323 -0.8757812429820594 0.3526553378154507
Ni 5.571520987217304 8.499188908306294 12.831892646845798 -0.10762329300763401 0.719302104813987 -0.6318619716224473
P 6.305705797833988 2.8502843795536075 13.108159974413528 -0.9359990501225364 -1.454339875195676 -0.28029883842991077
P 7.715351538604343 8.827476738850537 12.419183245423659 0.7142385742481505 -1.1369665005109708 2.227622547991176
P 9.312045106084014 8.414896121990965 7.171546972757503 0.8894080897368747 -0.438720959256967 0.42826659669286243
P 7.537309230941544 6.564769575916307 4.420636333805573 0.7526241160048844 0.3373153650242707 1.1310881873533232
P 5.455981493897162 3.7799021139458797 7.172372321997884 -1.5409976216952364 -0.4246045744602429 1.1537018109877808
P 2.6155392630300884 4.87053815287649 3.5782959914669052 0.9741205395846061 -0.4301941527328784 -0.2623887909187094
P 6.398205074887946 3.5816584905931452 3.516507602434826 -0.8508022044392186 1.4906068279475102 1.2543944383138526
P 0.3060381822862138 7.091902651127457 10.10972258611183 -0.2921079152496969 -1.9273025292443324 -0.2988339211196208
Ni 1.172550540988352 3.364717604835906 7.6996332417382956 2.9490882361153856 0.9730851563415562 3.121689476656301
Ni 5.6054467891367885 0.8875719247980711 8.283440924811062 -0.3323917024704082 2.873762112578561 -0.388094395349351
Ni 7.3082231149044565 2.9187188040406817 7.03423912823067 1.381801084596001 -0.8377728820590862 -0.7983182756078896
Ni 2.0713351830293054 1.087684334357953 3.737273483703574 0.22616169026587502 -0.45038374030687595 -0.0015583456260553805
Ni 4.752657976630897 6.097432019134041 4.375027797991509 -2.265822456099665 0.7071032487549499 -0.7725689345579275
Ni 4.724268970868402 3.681461826414473 4.924865497579531 0.17393487175067465 0.26817145903875755 -1.7407322281178343
Ni 7.772054347465063 1.319938362627478 0.2923550575220126 -0.014709795406348859 -0.769984461660203 -1.5615551341316138
Ni 8.96824672603377 6.889607484237095 12.477904305786765 -0.6552453835433941 -0.26262070442385743 0.22348414343371184
Ni 4.334549963947369 3.403512779266972 2.624953696563578 1.2679624068062745 -0.8767988856132964 0.9264106351031528
Ni 3.839923240367579 5.164054151528193 10.559895134774125 -0.6345130360920491 -0.41964054558674824 1.7466812466124177
Ni 7.148389252328395 8.862868992723318 7.4108869720680115 0.44048627868750584 -0.3402898742715623 -0.44749407746390674
Ni 0.45939145526867736 4.733894911895156 2.710406483975295 -0.0877448089161521 0.6327428315655038 0.8382161402440919
Ni 7.739745402827415 4.451734515548449 13.131700288397116 0.12048292257912153 1.5142414366473147 -1.714162448049106
Ni 2.1110515900976967 2.909318471006743 12.23923831035479 2.9852842264199686 -0.9394826377957627 -3.739039884926135
Ni 8.337108366135123 5.01411883963687 10.713342411086927 0.31922379762988246 0.613834167586459 -0.3778732318419751
Ni 8.579589956745572 3.415723811878058 1.1409193603624515 -1.053280949265857 1.840193039919334 1.1771610704519855
Ni 8.438594361569525 8.536630434780474 5.163091557425518 0.2501218006258982 -0.32475346919886006 -0.4951692720526827
Ni 1.2336903070410896 7.034767426947178 0.7516590896934743 -2.8152006100945837 0.8056603177952577 0.16097291227336794
Ni 2.1315255154456154 5.740191162845266 12.252542601697725 -0.15143489087594564 0.3276477600275196 -0.37157248643492785
Ni 0.8381797549378468 6.185842151318235 7.780697953689769 0.2153820831518678 0.5315974329727297 0.266612856302386
Ni 8.546181173142955 8.819345450776181 10.403958650273935 -0.22481571776094186 0.32478149422331803 -0.6766652439800669
Ni 2.7073429154395345 6.792558445994711 2.8791246013017315 -0.9884138162788269 1.1804811359641543 0.10590039677925633
Ni 0.3266249116305398 1.1185456277083738 7.9259857409291135 -0.3192572219709792 -0.7505950013899977 1.0611644657789918
Ni 5.7758560263760295 5.241136882406492 11.616852600544043 1.322918965547812 0.412845891262418 1.2572509339260411
P 1.0780207919990639 8.415347337976595 3.788977195456844 1.1209482707058438 -0.36116877460310054 0.8857080151774682
P 2.5111579650212326 2.766696618215824 9.565841877567415 0.27357797476630946 -0.5712906377972935 0.07322733202626744
P 3.077659634978518 0.18876996772113117 5.679758301836681 0.12919124898639686 2.029837094875149 -0.562835822161721
P 8.709032542622909 4.110004208765674 8.464212149153616 -0.8718425700492856 0.7982401140717865 1.055550462026324
P 0.18938944966806773 2.993216443334646 6.123932497990018 -1.9868181681114623 -1.4464728137427731 -3.7541667132652443
P 0.4794480058298891 4.189728433226508 12.475111466842382 -1.4952985769962248 1.4652176984504444 -1.0151167794913099
P 5.861483659982178 2.2046131047844892 9.905576493647088 -0.09243630085455047 0.07398349346600161 0.6262392261190312
P 4.174857106366817 6.812637557355204 12.308511244548493 1.1870083955597104 -1.372597820830178 -2.0277375320336435
