# total energy = -340886.86379060574 ev
CRYSTAL
PRIMVEC
9.13431447424970 0.00000000000000 0.00000000000000
0.00000000000000 9.13431447424970 0.00000000000000
0.00000000000000 0.00000000000000 13.36899254372091
PRIMCOORD
 96 1
Ni 6.284682469383966 2.084998648985631 11.656451395110848 1.9491291382011207 0.05338612893062419 0.7006562075780257
Ni 4.5049617484091495 0.5031271820940049 5.9967688734143385 0.2061032289531031 -1.09402419262149 0.9434364802371881
Ni 2.817424530306335 1.7367620394441952 4.92609932271688 -0.8791959250905633 0.3695770532714538 0.6508279712019889
Ni 3.674159298922428 4.74356831420606 4.758452679835263 -1.8452090050766865 -0.6544845941179697 1.336000224211802
Ni 4.844876997356413 5.021132731741879 2.7265929059940897 1.3498705544359912 -1.2943532380949772 -1.9447754892181153
Ni 7.275892617437394 6.099721733191421 2.5845205171098007 0.10092891170659393 -1.3588899843257825 -1.846031243867666
Ni 5.016483365614071 4.5176858486371225 11.531678484634138 0.24346032944532262 0.1338418603845308 0.4738946789446226
Ni 5.784834506228828 8.043412535424194 12.383055977741469 -0.7031380934596148 -1.5055693627946134 0.18448307958016616
Ni 1.8668072763039534 6.460253130174961 0.380921014017912 0.05267547601684476 -0.31773538600981405 -1.4084739659014966
Ni 2.832879790597598 1.6566815034078461 0.39641372499900607 -0.68011849263599 -0.8499858791855104 1.214016034496806
Ni 0.4412047500369713 8.89401817894842 4.719454637112144 0.34349424014147295 1.444338798118906 -0.3328938389178073
Ni 9.018765513344269 1.9384294370272355 1.201678457746772 -0.3837525734408875 0.17911744439287863 1.5051394743460467
Ni 6.716096147608759 0.8100986120303526 4.9589472314245695 0.568360351524376 0.40275559690595153 -0.7680728464597869
Ni 0.5909316945501483 7.322852128759725 2.1583033504569338 0.012275474933243375 -0.12060787819276 0.9669924131802572
Ni 7.773575748034004 3.8370880683167883 3.9967138695543394 -1.302400790989802 0.15442765495568242 -0.8248335482895988
Ni 7.587920803932397 3.8470262025939124 13.086225562852428 -0.5864843148185964 -0.27029107648492157 -0.6584021840048209
Ni 8.182400266270445 8.910916660945368 6.660846332361871 0.07260203973744271 0.234183532129087 0.5102287374889665
Ni 6.939722437473239 0.41488787626323737 0.4917503932684919 -0.486686174282336 0.6285239083881498 0.16849621723360658
Ni 2.0833362037297154 6.359191073518618 9.120527258498432 -1.1226318290558537 0.49830704635071593 0.9147229143525795
Ni -0.030376163178838678 4.855993458216027 1.4072873120766682 0.5687233912907496 -0.4886965198441454 -0.20554144291236212
Ni 6.360479011876222 1.9957472610979654 7.210913843717561 0.4185210872703244 -0.20846067344168615 0.04000225142455046
Ni 3.624569104997329 4.292981709650674 0.42719271145139365 -0.8409052570404808 0.16723149158857006 0.16605084101690756
Ni 6.079142122413517 5.690623185517193 4.5440675760444655 -0.08139572676967272 -1.8345453547152535 1.9676639637805147
Ni 4.939344078876649 2.537585668436871 9.889351556609105 1.0151298921174323 1.4719005097872586 -1.8857041369772556
P -0.0038583344840599785 5.4922624098167985 12.50367094821547 1.4384193473106777 0.03963046990742852 1.561119332145776
P 4.043322623196301 6.253077740892375 12.86369813103348 -1.7381086744520582 0.20991668916192235 -1.886566227867235
P 2.279449938040245 8.653073228615716 1.5483028607625533 0.02882335198959552 0.1669630684185318 -0.03859045867868838
P 6.45019624980813 7.900268691438152 5.748065236266386 0.959870200313179 -0.10914204364500557 1.23680192204307
P 4.813601104190169 0.9129263316975126 12.798243459523354 -0.31015731655224 -0.18973172957361517 0.02261362363445783
P 4.069803001201248 6.038156452834972 7.872411772224047 -0.12896344924630693 0.356626920868689 2.24866445626314
P 4.7504007815215825 1.309760235167794 3.833344826196599 0.40414450683367814 -0.6214978547793039 -0.5133161181650385
P 0.2745985055874912 5.441155919669271 3.512101029708775 0.9183995918732182 -0.12292469925139474 -0.14061003234629976
Ni 1.6033371061850472 1.3599258909122482 2.9180234772128166 1.1368443731108098 -1.4925572668056617 -1.9963482190890847
Ni 1.5885577851736623 6.840158408410138 4.778559133117254 1.3067549541934396 -0.23538192331256239 -0.6517337708457098
Ni 6.666670371346333 5.86005558690173 9.160366571595562 0.31620018031221026 -0.22267424593790683 -0.2502909792139109
Ni 8.749010934785417 2.1809911610428907 10.573188364884096 0.06461310799469518 0.8410749498491258 -0.3039555586169023
Ni 2.3007968312439577 5.651345632767528 6.800539232294698 0.5230919666048798 -0.022286065091710005 -1.1354606053894059
Ni 0.7257459570588831 0.11939005888708795 9.401156238580187 0.5248521438290961 0.5775978109622439 0.118904265238092
Ni 1.7727512389403985 1.0975427042299024 11.607454018202832 -1.1029731742846618 -0.18027418370514114 -0.847587811266979
Ni 4.108157988177025 6.977428888112916 1.6480760656298326 -0.5213832114438891 2.0272132840990573 0.031695531331068
Ni 5.936089621573404 7.8754416243745275 7.899417373318089 -0.9908039137775582 0.6204460164760217 0.002284168048486389
Ni 5.101304610924158 3.0173472738021228 5.134321504451818 -0.17930950579902666 -0.6709314268200831 -0.1771379520690046
Ni 1.316419150506051 7.8151551480610895 7.233026192484163 -3.02090583227832 -0.7651232769131597 1.178399827955093
Ni 5.2282441808223155 4.3007824143130495 7.771863064047826 1.4369458480889445 -0.46211414136992673 -0.21905901778282272
Ni 8.221833102368189 7.76794901024475 8.824070338090024 0.48945473816640866 -0.8272789245062978 0.4368535670309251
Ni 4.81630486130968 0.3177188644864068 10.642319598017883 -1.2101280122963096 -1.5095224339050906 -0.452881052807433
Ni 8.202678444666782 6.877554292353655 4.460256585928358 -0.14320350410508886 1.8922015717761411 1.9681856406119393
Ni 7.157091721841551 5.807706829969562 6.677277137451662 -0.24206859130411862 1.1431119512870767 1.2776685783504447
Ni 2.412189797704922 5.322218009354534 2.489894498515646 -1.405791019752695 -0.5745009172044752 0.582496533815442
Ni 2.491621797405172 5.061460730669732 11.527975433498158 -0.8353691577136001 0.35295384289247606 0.8079570842492343
Ni 0.88734568367997 3.2671616436045765 3.875042972313393 1.7787732420509559 1.8902747870670733 0.201994091880736
Ni 3.6694459925924683 3.063027981081441 2.9511116183943007 -0.5695281465802321 -0.8550848909749725 -0.7183798501100338
Ni 1.2681808351407082 4.018623436536978 8.012919453018565 -0.8018789963759545 -1.1610747064130842 0.8414850408033506
Ni 3.57593801410449 2.7185273062085193 7.26683594451849 0.12122468584115252 0.23154969405066572 -0.49462908327849653
Ni 4.426077807584477 6.9431478054455935 6.054683168227988 0.005334781949352103 1.1100956442620558 -1.1876740541681674
Ni 0.5016209336176283 7.3856140043278495 11.419432373190192 1.015953159349676 -0.528918857699302 -0.4248855960357715
P -0.1553701240686984 5.8001984233741615 8.091408791452823 0.5411871335436939 0.5269841025704344 -0.2883386780152518
P 8.608780937154526 1.6447977601224246 7.888093563517216 -0.9679444926808815 -0.37675197375333824 1.6501946869478934
P 1.5832050768221964 3.3511059947137407 10.149926149002047 0.8436645649531729 -0.6846343782284725 1.1355963596363217
P 3.9486637210696114 6.5659828215883 3.86123280208032 -1.4185812295388278 1.1262629980505379 -0.04926876432814096
P 6.7571274887602675 3.9498420476521017 10.266156648471437 -0.5659692255843801 -0.33628795220102087 1.5280235780330715
P 6.401081040241864 7.7555080737691595 10.156142963514005 -0.10819279235785882 0.3688162638460294 0.49275654884613207
P 2.4793909501652185 8.682229960796397 5.895832870299377 0.9198203834801448 1.5411742564824167 -1.7542526312017723
P 6.640829395362892 4.033521503638071 1.6553615949491656 0.8378381880793828 -0.3824181709001801 1.447997735027732
Ni 5.373580260310663 2.7753701459204163 0.3934971383494787 -0.06271897629577586 -0.11627865468978685 0.735007945585018
Ni 1.4885553090101 1.3505997557128513 7.185485738753721 0.39825873747686247 -0.6470345655978276 -0.27265263473856266
Ni 6.95703196362687 0.9414555364656578 9.511021947641211 -0.25089030336080664 -0.43189108081932714 -2.0606047150753093
Ni 2.857323216448319 1.6720819578115513 9.255969048419702 -1.5451828634211775 -0.5718136001802991 1.1234887777395102
Ni 6.590910366112447 1.8625141484452694 2.6989451625841636 0.2356058663979104 0.8616160072252709 -0.7882308094649004
Ni 4.495754359299461 6.45832578979585 9.996984839183613 -0.22694356273722205 1.4487749795133888 0.7436687065838096
Ni 8.05218147743342 7.193016981135604 0.26172916975749094 -0.24193155150562207 -0.0918050950284548 0.0016534764430229587
Ni 7.771876765519717 3.877169440750631 8.453869355678393 1.1012536204903938 -1.3930933696803687 -1.6295556705413035
Ni 3.229857102806989 8.372183920568064 12.88050344302158 0.2561849761008427 0.35408461406280956 -0.5397665990470834
Ni 9.293982412029703 5.016300679322212 10.386236348110291 -0.006951234506852544 -0.6422335446647585 -1.1335345920112865
Ni 8.83412447816248 2.365266823640963 5.843065761758852 -0.6971656779262638 0.22198236207720481 -0.33409865785918585
Ni 3.4792695627673527 2.5909757372326347 11.770408363678051 0.6260407369549799 1.0292889572266337 -0.7555014375526795
Ni 0.7387358658415102 3.191447309943655 12.807655457279925 1.4374415567784404 0.7603729067123679 -1.1510764575497916
Ni 3.3215473526909713 8.308079300754775 8.309190033409278 1.0453958900908253 0.7195525302618963 0.48148071882199656
Ni 5.734833268147047 7.815885893228526 3.800390046008172 -0.8027745116070304 1.6879071138970025 -1.499314125913521
Ni 3.224403916995001 8.752472840016143 3.627034456505965 0.17356977510177204 -0.7903113461430131 0.2738931920138831
Ni 3.457813057788525 4.413545527962955 9.512078787839615 0.02295095236921854 -1.3324888686244343 -1.0133350050005387
Ni 7.275837811549837 5.859772423149348 11.554298701292106 -1.275149668583333 0.6128201244996478 -0.1997438623939786
Ni 0.6543220109622682 8.9098388118234 -0.04010146792594725 0.44140673361924626 -0.38740482548149413 0.9298122045855342
Ni 4.662839241833612 0.5569456502441776 1.6649608461548915 -0.17135168440453072 -0.8665610099353722 0.46725814746471145
Ni 5.773544493391947 5.687663667589078 0.44951880317946985 2.0061829457913194 0.033225594822349235 0.015072835172722428
Ni 7.83757989038677 -0.2251526338329612 11.362922022529478 0.24820787143263703 -0.8284472337827862 -0.045235989019664025
Ni 9.27315617475779 5.038661481445741 5.76803832855532 0.3397244886863956 -0.9668908546053864 0.29765352765827446
Ni 7.936157413473833 8.789530754319722 2.659146040471243 0.06433388619137953 0.06089066483778546 0.45287693904237486
P 8.707742101454492 1.565667192803742 3.5117804152665624 -1.673632863366176 -0.26408520478452585 0.9085021302538483
P 1.9097476892053882 3.3055257648949454 1.443851059960768 -0.7083528048913349 0.28014534357118204 0.7167621120009527
P 4.694827611538105 0.9567098418358759 8.300593729945856 0.8692794373077997 0.0675955876617868 -0.08224701902637449
P 8.449049177867696 1.314564884643683 12.60552951710432 0.5211271295690252 2.2657134413256266 -0.22980648610731388
P 6.256028124505896 7.697916220260641 1.6238911408820922 0.12329005301061349 0.8713103516948995 -1.5808780028299418
P 2.018281615198761 3.55915827819725 5.932704444585259 -0.5833287999087502 -0.04064477010455581 -0.3575951983192293
P 6.812773733260489 3.8197328705901925 5.99219623552911 1.0254333309259696 0.26677020781585664 0.4384941879581416
P 2.4488001305934457 8.411671562553364 10.639418539703163 -0.02961859419738125 -0.6027959074944264 -1.021057827566093
