# total energy = -340861.13114490535 ev
CRYSTAL
PRIMVEC
9.38779057843263 0.00000000000000 0.00000000000000

0.00000000000000 9.38779057843263 0.00000000000000

0.00000000000000 0.00000000000000 13.73998044395027

PRIMCOORD
 96 1
Ni 4.649030987189594 0.04118235925900418 7.188126024025667 -1.1363522639657397 -1.1440560603679006 4.565016031460608
Ni 6.175983271441168 3.6121776925148343 10.705327440297376 0.3709819040387804 0.39310496119006494 -0.1949994057304577
Ni 1.2293781017513659 6.953433139690104 6.945807437486655 -0.25029535008928505 -3.038155106277071 -1.9968830085466318
Ni 0.2907802385329108 0.8815820565430572 4.711054241304756 0.10084123708879408 1.503425319868417 1.3749784052472127
Ni 4.17360511412637 9.350642988833842 9.700673328175379 -2.2229883916532747 -1.350465764817829 0.03677166030239474
Ni 8.570085761937435 8.700857683264582 13.08690567951995 -1.4307106658125104 -0.9470859040643173 0.07886344726612224
Ni 7.168854767737056 -0.0009819628837630704 8.431016911387823 -0.12575805493513179 1.295237954692776 -0.07206313651483719
Ni 2.865059775293035 5.258674100684563 5.405280408207151 -0.05860392568613778 0.7030954131471375 -0.585141684747773
Ni 0.49602456292510616 0.8534233790110559 7.306276061058174 0.4403520671024867 0.5087799208575818 -1.6206923066134025
Ni 6.398107781887803 0.9941294602196378 6.017836553086745 1.688589227565692 0.01737654360523459 -1.6730232548066346
Ni 1.4435511536650436 8.326932600825128 13.05214269138826 -0.48879807841901624 0.023500397114785333 -1.324388608114803
Ni 6.181118392831402 8.164843010470891 6.083184023809367 -1.7225622420770268 -1.4035965832045376 -1.441591317280756
Ni 0.5754846990699186 4.043781359637274 10.325320008408687 -0.31081474763058087 0.7386350008146441 -0.2481906450414564
Ni 7.293928300245424 4.152332380908328 7.941227718896707 0.2451174054327714 0.26642567999224437 0.324795378180389
Ni 0.6761772009337266 7.717355201863489 1.496860660660617 -0.25883038414348974 0.6581008507143182 -0.09454331989522428
Ni 9.102326542959876 6.2870408327692475 8.624626947043426 -0.6478922856124325 -0.7445937895012402 1.5465098097627172
Ni 6.966942170184703 2.7867656027253105 12.912022408305367 0.03803895705059255 -2.1891207923715528 -0.8371529890869003
Ni 6.031692931828946 9.171026393661387 3.313863752125137 0.2374953701111394 2.827937855155594 0.743783634895119
Ni 8.230801626353484 0.23690840288784026 10.65300552885985 -2.127886885261735 1.8930677764311785 1.7534170226743544
Ni 2.9098583114432968 2.3789318210874604 6.94204293350588 0.24244911457198892 -1.0707672789760785 -0.8384894485101365
Ni 9.348014407500633 1.5479433837553433 12.706980860187446 0.7029601731208538 0.5310798699063628 -0.23196415588026503
Ni 5.664480119579651 7.106219429682875 2.8425544251855284 -1.6913037982833774 -2.599744736281987 -0.17348287181492056
Ni 5.46302752376061 8.952187609881264 0.8829526739525162 1.2152427078150556 -2.281121034129949 0.7554489870481892
Ni 2.0315272467419905 3.439329694275392 12.199838337001914 0.40607617663875234 0.5093244805071421 0.002824613932988684
P 2.6799607104827436 7.469695901322824 11.43232356741346 -0.6694756682101631 -0.5941703706089445 -0.16386411777823393
P 0.2026448452094612 8.352852290328665 8.262853420595778 -0.7646041711848961 0.2889971375348572 1.967710500747734
P 4.515630484529238 3.7975583910393977 5.596966885594274 -1.6828165867479727 2.7220274310740087 -2.704196830650491
P 0.5801438594830315 6.334402235719389 3.104878393228357 -1.8697013337910962 -1.3506976783229772 -0.03968420596349939
P 6.242711686142773 3.450979942255793 1.6962282282149952 -0.4751138960637043 0.6488124834338569 1.481882817810951
P 2.2562709507313587 1.490217860119979 11.453111890642953 0.10928396853950857 -0.8924095955673598 -0.5909130400139113
P 2.639020556218014 1.9811148118872324 2.1169054460027135 1.2237340331155184 0.9245381006707885 1.411269269258447
P 1.0808069296822038 4.760041609565294 8.046022685198418 0.12972809532647336 -0.8196311781530529 0.12340498132192294
Ni 5.110112316405877 6.040573781619002 5.4894522763917415 -0.24247302583138888 -0.5809818969431285 -0.575506475650854
Ni 4.978232635802591 1.8941181575484909 1.055803488529101 -0.3988225804001325 -0.3373495606963158 0.4597204443267695
Ni 3.732707534432942 3.08089446612092 10.070828273959773 0.4271281122130451 -0.2569110556335898 -0.2803893412611881
Ni 6.108738528263397 7.604532735925969 12.2452076508131 0.5805129277265099 0.5833347134460212 0.8280163168929545
Ni 3.708890709995973 9.221607808744709 12.226452723000655 0.6789046748335469 0.5924546734694184 -1.971843549079501
Ni 3.2026353330103987 4.819625915714856 7.850228110699108 -0.6572778405923906 -1.0419696380180958 -1.319160012726012
Ni 2.574686028087724 7.087105888274257 3.200590672244781 1.3067744945774655 -1.5801516661868784 -0.29303454082902436
Ni 9.101387763912301 5.678458539598037 5.198755589194064 0.13161759903970235 -1.2209626410179681 0.597224841164552
Ni 1.7723303517066331 2.6365515673228925 8.864210870216853 -0.39281185542967834 0.30533546968356445 0.017010418515067478
Ni 7.191160157907429 3.4528293369795153 5.669143035108955 0.3851373696035561 0.6512917982122849 -1.1284574345986953
Ni 8.20181212936438 7.745481022128825 6.768245829649341 2.7009137890238453 0.940742992565425 -0.6101045253406976
Ni 0.5228698885695504 1.904210032309918 2.4754364296200384 -1.1917199421027669 0.9617432489661759 1.3596137498656842
Ni 7.855872050333126 7.093020196273976 3.6758710345556302 -0.6517903351152581 0.5257671994441978 -0.2713521707595843
Ni 6.768897342308358 4.9384284041854265 13.1720792249483 -0.5869946787961117 2.3227916743958574 -0.2674119551649137
Ni 0.6771497760270139 6.265683609436925 11.273612642851443 1.0964148043408537 0.0809558110187767 0.49364486498835636
Ni 4.171858985097882 4.722743918005154 3.3799800828877236 0.35529586076209135 0.37203425656269473 -0.45962685617169874
Ni 5.966551053717743 0.7099169199035591 10.868104216914439 0.5609967120704532 0.3906840104533981 -0.34773347503380114
Ni 6.740396010423991 7.099056545549882 8.567070403636626 -0.64555206751503 -0.680034417562616 0.5150274444291905
Ni 4.609949615439062 7.052446165837801 10.437754758599558 0.6827222488074242 -0.21339950550420023 1.728880728095887
Ni 3.3317174520519117 8.41494313653525 0.4645688933780228 -0.20339868553774648 -1.5777556551508762 3.1517855247107334
Ni 5.376190461859957 2.58400810403014 3.928658885033196 0.4749624580875046 0.014426202727659026 -0.1766900658983086
Ni 4.226918376238134 0.5284772158207138 5.202451562304365 -0.6312585337104935 1.3527334778060833 -3.289099917024897
Ni 8.24469555625759 3.2328076915994473 1.2176489963309685 1.4020636914997788 1.283649478524228 -0.9257624599961927
Ni 4.4318350667427255 6.240195758295274 13.522613688638385 0.08124737411726653 -0.3541049257777837 -0.84890138787208
P 2.2098483268287925 0.47803943393167125 5.9413457750694105 -0.5052703650424266 -0.4037189892604854 -0.032451949881118304
P 8.393736117850539 2.6224323304473702 10.790363923984783 -1.7793355423123292 1.6429986834200865 4.058487625641366
P 7.67630239411305 9.223260059868439 4.858553327701586 1.2435760075421098 -1.1494625760954527 -0.6543591242836989
P 7.945929124366962 1.9544253235646856 7.025238471480993 0.9873154410083252 0.6201433976339384 1.7630324342769312
P 4.262329121912649 4.339543698575663 11.833818712922087 -0.02461265634235761 0.45398894115963107 0.6080196177872109
P 5.089656320959225 1.5529470760789164 8.837596484218114 0.5393415956945228 1.091418379567527 0.24205573578831216
P 9.20061670924094 3.1972749046487476 4.449143336042859 -0.4995023522103978 0.5418486783870926 -0.7049622911525472
P 0.4240962510789851 0.46308186736666457 0.9402144407383788 -0.6886080181642399 -0.8772637410648568 -1.093614101667265
Ni 1.7916034855533405 0.0049210797673862475 3.089214864819574 1.5281079102167618 0.178974233946795 -0.7221151487827498
Ni 8.193992099898084 7.509500132939989 10.802276091319456 -0.7964899641498993 -2.32816168045852 -0.04090599418574246
Ni 0.46843478549593515 7.918695144196821 4.537834486562473 0.9972054464285277 0.06382120822101911 1.643657657160324
Ni 8.233664902448588 5.7456845071948575 1.218912592929004 0.1861985196093761 0.06142262608185551 1.950633233550473
Ni 1.5252624819659402 4.306911738881968 3.024842785527381 -0.33934576519073817 0.5637485637839775 1.3956212783085449
Ni 7.468982429246668 1.9590910554311316 2.940726305306598 -0.3036357133836384 0.7039659886775488 2.3712878222240326
Ni 5.221151102153005 5.26649413015086 8.65533534846864 0.8008631535169304 -0.4552940331242998 1.1001398186009248
Ni 2.6206955892093573 6.545148744109418 9.360306780349577 -2.1204368567415934 -0.12926144010269996 0.33726137185788363
Ni 5.20493838800139 2.491735511444029 6.855769139033772 0.5474801656412571 0.5918761752581291 3.527745084469763
Ni 8.92873690927285 1.7307518276895524 9.152228282012752 0.006182731771944191 0.3127726426879 -3.0255687849716284
Ni 3.183380974744643 7.649321884285755 5.635095396611518 0.18869248967582342 0.7708619791691498 -0.20307472653942446
Ni 7.441607632219391 4.8386549670091945 3.5537217987804564 -0.679206779454998 -1.8192413773683316 -0.6485826268112379
Ni 3.4284398573235264 3.646997007389378 0.508185506707388 2.527177663547538 -0.4740237483233191 -1.507684095144771
Ni 1.326569896546768 3.423417389419002 0.9090497926960435 -1.809896702928638 -0.808458449365685 -1.118503922930409
Ni 7.3879564096505 1.0605011388831644 0.8413262722040091 0.8133258047603156 -0.9597596428772439 -0.46256665552631304
Ni 9.152804692347964 4.101422393158357 12.904342256917158 -0.3419469502590111 0.3789137572913474 -1.1399690347827205
Ni 2.6719059862545533 1.3099253440332699 0.22369696535132239 -0.8051527820312199 -0.859284530878617 -2.124603329414457
Ni 1.3404450508699213 3.7603639651744905 5.957394202887699 -1.642595791554713 -0.5177116761295729 0.32432718029471885
Ni 2.268062015568896 8.57386904149916 7.881074512644315 2.6342682239801536 2.3139856460684536 0.8220300174025328
Ni 8.513759019082956 9.221035153525689 2.872906090572664 0.41418749289197704 0.02324457235023739 -1.3880159551574611
Ni 0.868190373429405 9.309834263635773 10.167722475797094 3.1796789086868915 -0.5533718485353437 -0.13907276976616692
Ni 4.446573897789647 2.2262957357423003 12.308604338674863 -0.3533320521675012 0.020587337233048415 -0.026553067898180075
Ni 2.9971553750772624 2.5507847135364736 4.115384853932934 -0.7100391914548223 -0.08448053634258354 1.0719826394404182
Ni 1.1437239014506562 5.6605278597893625 0.46123716653818037 1.4170231410230885 0.4907917118102773 -0.3558422201838646
P 8.645526046200533 6.403355556763745 13.023715523048654 1.2259341260906307 0.5951329916325299 -1.609090717818732
P 6.344832070937943 6.692321135397695 0.8695440928160076 -1.2949191379007763 1.0382065714312378 -0.6290615260591748
P 3.9126245389006207 8.737507617281896 3.4489136895720818 0.3874750165977972 -0.5623681384966831 -0.29273217909725713
P 6.490023638435836 5.908440630672873 10.645310357006883 0.5720447423544988 0.15749292414456748 -0.4951810991272246
P 4.339984924728023 7.314215315463513 8.379134348544564 0.3368145141284522 1.2267327107325259 -2.2757685115687836
P 3.4090822333625375 5.422359615419677 1.45158804109133 -1.0057602779770745 2.1707047517582096 1.6758828357426172
P 5.928230092995745 0.7206734502306693 12.98088748411925 0.30323076463573584 -0.0738179144224148 -0.42700367082003876
P 7.056041689590012 6.098862572682911 6.298874142663926 0.3849885027305176 -2.520129498451505 0.5038570296346677
