# total energy = -340863.0088755648 ev
CRYSTAL
PRIMVEC
9.31828076098794 0.00000000000000 0.00000000000000
0.00000000000000 9.31828076098794 0.00000000000000
0.00000000000000 0.00000000000000 13.63824579996029
PRIMCOORD
 96 1
Ni 3.6066779081331233 5.366752083829064 1.2267032297317775 0.06013810294247707 1.527184627071544 -0.6225448079865795
Ni 1.9095487201377075 4.923211229712511 6.772411967045643 -0.9555692589449801 1.0900726641729097 0.6122362269717198
Ni 6.755735039660353 7.440470277439438 11.441329173760403 2.4871520150842197 2.6558960866625743 -0.5847567906045283
Ni 1.1345286584014949 8.514010787136279 12.968989581916714 1.3403559300773367 -0.9386827676022865 1.3709525719172713
Ni 6.630702346105111 5.046342993957476 7.648928608357231 -1.1785569223582477 -1.081955177272098 2.1088854044585683
Ni 0.6678579673537428 1.874418801021352 9.138388723829856 -0.37887416230266363 -1.755295213533674 -2.271479911495759
Ni 4.61035926567736 4.028712169856958 11.246834286820292 -1.1225117585382216 -2.122322246689764 0.12281902691146589
Ni 7.103465329226676 7.795450189571418 4.239066770944559 -1.2412743559921267 0.10558106576662463 0.4185830508565114
Ni 4.73580196359364 0.02423125773744587 3.8874050986527213 0.27700936904536166 0.4435248084035136 0.19743578308609222
Ni 6.459450979123578 1.3272400263710833 0.8845946590521642 -2.7284328203797203 -0.2915543567390721 1.5012131427084467
Ni 4.939760496649022 7.517812009181017 5.921535507548526 -0.7079023476174776 -0.05582122073467805 -0.13275968306394556
Ni 2.126590119622629 2.619340815344878 7.001739519940355 -1.0338773479282646 -1.185899478766248 2.1111937408767703
Ni 9.17765875516462 1.28331365005424 5.183229472687231 0.057841593598816514 0.26576156404568424 -0.2725860431666854
Ni 1.192786550792862 0.4213130267796426 7.133989222077988 -0.5653177080433104 0.9332340857828896 -2.001740336638933
Ni 3.622416484628488 0.949355779706477 11.327572531961847 -1.408415858970052 0.64275676415808 -2.152280997835384
Ni 4.5014192432929265 5.383869765902472 4.745332701331626 -0.1145830121549188 2.933956008459637 1.5362233402350445
Ni 3.4858104861548083 3.5698800167298104 5.514419813597976 2.059008317122467 0.19095557467838725 -0.02620828296425164
Ni 3.4327242396811006 5.782729462946631 9.669843831234251 -0.0747090587781165 -0.9553491725143741 -0.20950711242832948
Ni 4.577130275871279 2.702674201726196 3.5333560827859203 -0.8674161588468159 -1.2600066422943075 -0.945141892964069
Ni 9.572017722518275 8.62020191664556 8.712820969976333 -1.3895524464066458 -1.0056664327116875 2.15158988530563
Ni 4.210595695382726 7.871860093219724 11.440988124678265 -1.569085381070388 2.659072941728659 -0.1726261802415801
Ni 9.059549544342389 8.374646577506514 11.115443730184655 -0.39279282926628484 -0.6436720768834978 -0.6239530011880158
Ni 6.145741733242616 3.638369381585305 5.135467691938481 -0.2800892935222661 0.8242038851253999 0.10874995041290948
Ni 5.629900337369086 4.740628833116789 3.005487581712528 1.1064711601355912 -0.0953853561805454 -2.162520159064888
P 7.703646485822258 4.93852116528497 3.9144225223890508 -0.5172306227280963 -0.3790991338292761 0.6415331761636242
P 4.793249165543861 0.730667839980744 8.253498675272125 1.8644575688936535 0.7108395758689307 -0.28370786411145976
P 8.07449543038266 1.0773423683173902 13.434299803948289 1.9573132166738096 -0.6294847296395224 -1.1833031787939816
P 8.922868999621247 2.2458734338423816 7.091124197959381 1.4131819129001275 -0.7492564850842321 1.064599973823102
P 7.2208011227314906 8.296550065009386 9.468611827179783 1.7760869534680443 0.5290062752067858 1.0251919043391247
P 4.164721798350944 0.9689055331033242 1.7776363397698394 1.4736468030544039 1.4044303919597427 0.008981377563003887
P 5.765155185107521 4.525954276988779 13.405359087027445 -1.047674401712357 -0.04001947781573108 -0.07441518168678152
P 1.8432305147395374 8.946798345056473 10.463289861686826 -0.45575066104574413 0.7617836710169654 0.20309092448934055
Ni 1.6139914855136852 8.765250277644284 4.6277434505854425 -0.34336388521119576 -0.25080340007395513 1.34896809722638
Ni 5.233332937434375 6.0801223989144 11.438846783719924 -0.7191257271371229 -3.744257681681648 1.1979394406499175
Ni 3.4778526742382647 9.434386713141995 6.682318167847636 -0.023804815729081583 -0.8204917263811352 -1.1148200463209186
Ni 4.215068470230432 5.241095065451331 7.3585430196508685 0.06813603354628911 0.5865326515580286 -1.0302798603849932
Ni 9.3446516677599 6.900047256465391 3.4596820264194608 -1.8775293144759473 1.2415540920160748 0.6451972552787727
Ni 5.250152434517935 1.7007539992782439 5.882775186180783 -1.3155905502071987 -1.7157063954974583 -0.6857322392783416
Ni 1.0446445205244748 3.233061434135703 10.687256607560945 -1.328903979486653 2.1069563057566554 1.9934662695555991
Ni 5.075826034828604 7.362774451022417 2.4274578425502087 -0.12586526993695743 -1.0040273544463678 1.3371302240511873
Ni 6.906253231566583 6.101899221454167 5.788289681179186 0.175465192352272 -0.010695532040633192 -1.1877198198044383
Ni 6.713579136720726 4.519533981426135 10.202363086321165 0.19595585610645608 -0.48146297821018363 0.2436696172426513
Ni 2.040088517724186 6.845833497998825 2.485202297662183 1.9259015351317479 1.0224246260066328 -0.5343580264370023
Ni 2.779997296905909 0.9188318868551651 -0.027097560952350636 0.7294443354543115 0.8245257872411929 -0.16799768033063328
Ni 1.9089896232817443 6.882994802358513 10.999886796509898 -1.0293172393614078 -0.13679271548273864 1.0312432527395272
Ni 3.62060873812754 8.191076443131923 0.9214950515457365 0.19024672153682076 -0.5760320091370208 -1.7942052603353098
Ni 6.757663923813426 8.244992016608643 7.345954953938857 -1.3560478868912968 0.3847501614674664 0.7602188976330069
Ni 8.805216384564721 5.686592758563756 10.095725611155208 0.6629340104369035 0.957748783094802 0.0700911003901309
Ni 1.5880680279588573 7.335695526631931 7.292875230261802 0.1283723526295273 0.007613036460567534 -1.122466507122583
Ni 4.448351633381084 3.3020912592852945 0.9314208843952702 1.0304305270302447 -2.0820811397815304 0.5289152581548763
Ni 1.0555841823394885 0.9107389598650975 1.5278104324793282 -2.9141937382310457 0.8839213555906905 -1.5928925107923146
Ni 6.337073995634163 2.606434996253061 12.215354043093 -0.35898256558505914 0.9155263840904813 1.1718165183106204
Ni 6.803621685373603 2.4157177404030743 7.2992442752793165 -0.4621056567294945 0.6173524651523626 0.5479761314410692
Ni 8.179847914607997 4.002648938088139 6.084185169401066 1.8153366429972868 0.42726438068059325 -1.0174438849625895
Ni 1.3011208849166684 3.518331286610002 4.952551700885367 -2.131334991711336 0.10552990081371502 1.8783165862639328
Ni 1.0296048150990642 4.896644810773325 3.169528462908323 -0.22446604773100695 -1.2197169415363251 -0.7335084782213561
P 0.3119024312081072 3.7458930252679647 1.386341223186862 -2.1860043582297575 -0.20480070809159567 3.4792769616660473
P 7.079694394567307 7.896236716139722 2.018173784626615 0.015113715712986874 0.9339383109387658 -0.6239805119918415
P 7.246994810433367 0.27160832079883807 5.666881798906774 -0.7134641579759713 0.4599783259738465 -1.200031804402572
P 3.257866697978604 4.57809005880735 3.2319236720338176 -0.6481290842135871 -0.826791700457234 -0.5454070851623123
P 4.897390273247943 4.0571329267017555 8.982135130009535 0.24875474507504253 0.4641268009245813 0.1421524371327552
P 3.179322907996705 6.781472131596526 12.980187360113563 -0.3704185753361427 -0.8837352077218135 -0.07997956314843645
P 0.3554206668200975 8.14639528605953 1.585350817238876 0.8981673239867436 0.30065117683401765 0.1793485865670782
P 0.04948007175274479 6.197374327890819 12.12108658586523 1.4849555431990038 0.6572428735893971 -0.09450526756843723
Ni 5.4349805368184425 7.186118481099905 9.241670686031942 -0.4743027130163186 -0.6062242164496849 -0.5405168469495466
Ni 8.803977053200668 5.925066204193934 7.505849200119591 1.0651409339282367 0.08306540116261177 0.06883460227521047
Ni 2.423498504981896 4.588889946408372 12.002475119700724 -0.279785389128602 4.248734347178186 0.8411659669010352
Ni 0.04122687033063443 4.083606162831614 13.078273448867563 -0.3600765699801863 -1.0353030246311976 -3.2300200801436048
Ni 2.572814638647806 -0.09011989038461785 2.6126102210271744 0.5456377131158797 -0.11116550183293758 1.6808190967019696
Ni 8.288573616530977 7.56255839421994 -0.04757821061437658 -0.6871106076831069 2.331788221467513 -0.04073964381120725
Ni 7.480352519831481 5.557413429993455 12.800543949324021 -0.430205208476472 -1.6208771689306987 -0.362979088338962
Ni 5.638258835365736 2.1887430534438734 9.74010832860743 -0.15617214845061492 -0.8038566889276156 -0.2231452720370544
Ni 5.885547374758267 7.005250648195804 13.706573450005724 -1.2434531088110004 0.12094212160372717 0.7336771425887364
Ni 7.730110403671183 1.0261663694348904 8.93828795908062 0.33605681002682125 -0.20559800718191043 0.1022165201697659
Ni 8.508485046543177 -0.014140491315403056 3.2654322102678797 0.8466077067418968 0.13962221451173373 -1.24884651191243
Ni 6.744897878935599 1.6091273428668051 3.7939828095055472 -0.7745491982127499 -0.6860950219343991 0.9179851300436191
Ni 0.45480386027993264 1.3183037949566045 12.114076443119544 0.3692980885784543 0.7302426629858908 0.030484284631786204
Ni 8.511802354555224 3.8203554082013325 8.640497132517023 -0.057661616377526495 -0.9896775134825987 0.3523141524259481
Ni 2.9847106107168413 2.8909873410955407 9.547072684461382 1.1144433797077904 2.238413210848777 0.15130350750440394
Ni 7.268389583454892 0.7114675221188739 11.331800236021023 -0.07341759366020259 -1.5205591513352263 -0.16934570971809546
Ni 2.7866225946490735 0.8478619956153808 8.868937585066941 -0.46199175685944954 -1.9743652870600903 0.2986089495930083
Ni 1.8391211528482074 2.5628813511735262 3.0749059791770144 1.4171110727512046 -1.0884027326696546 -1.417835866732371
Ni 7.179670230694462 3.5994469221293324 1.3615117318135352 0.016279710996630028 -0.19067403888222645 -1.0541178433448557
Ni 8.614871859952043 2.421606893952554 2.925703528538483 1.6957466645460795 1.115678280556156 -0.19757590820838228
Ni 2.0813498656942717 3.278413507435253 0.5448864775408195 1.4465563745955152 -0.5354340331100005 -0.12098814435031423
Ni 7.720605757119809 5.838993243218397 1.9486463632752153 -0.8627390650861206 0.05706897709885011 -0.15534965254931954
Ni 0.4245129244519387 5.9466473428341144 0.7771045611808625 1.4942624224222265 -0.030831897779192062 0.570857406914617
Ni 8.727809424856614 7.975274375011055 6.420136220040337 1.3509612163970088 0.34980347018895236 -2.413627720642824
P 3.4975049287253723 7.547854146908107 4.108821431035555 0.4243456643719014 -0.3132133297697444 0.4008519521253354
P 0.6178141396045684 6.18333167852521 5.357007957457719 0.24342819065580654 0.06915958971479702 2.1145819406227133
P 5.168626794637565 0.3200484723994913 12.454296198254095 2.210516227328193 -0.5155192964639445 1.1476108675986947
P 2.702301470488887 1.6198247293775678 5.099394762791733 -0.24458750107123034 -1.1971048605637642 -0.4988096970187474
P 8.14283570274323 2.668690431164565 10.95844001474925 0.5683248703007503 0.5919833902599547 -1.2852404771604318
P 2.7298183540832106 2.667693375104764 12.205384414323083 -0.15517636019624886 -1.9852374538879034 -0.44528807095152345
P 1.2094849102242968 4.757625377538072 8.901560886612396 0.36260859237342064 0.20937701460836844 0.2294413894584113
P 3.5061616117118697 7.329005000922238 8.073255167190515 1.470289713656713 -0.30477085542934607 -0.7304735480497742
