# total energy = -381168.97581639024 ev
CRYSTAL
PRIMVEC
9.31271515428996 0.00000000000000 0.00000000000000
0.00000000000000 9.31271515428996 0.00000000000000
0.00000000000000 0.00000000000000 13.63009997197523
PRIMCOORD
 96 1
Ni 1.3132045741854022 6.853580886143424 12.269298125755913 0.6402944186605166 0.5623827937847024 0.4515723612983384
Ni 8.558450317053897 0.9736071072872313 13.213795548349722 0.5632680246031331 0.8742699485438556 2.037213846955195
Ni 6.611990432398227 2.7723021422946443 9.51941168857902 0.7479349380593313 -0.542339501980582 -0.6047386330430939
Ni 2.4925761204326258 3.0934697461151135 9.077714270264787 0.0041957832489024505 -0.1735101255084302 -1.291027259045538
Ni 3.547464604648702 1.3974567072141895 1.037539827355312 0.8311232379530525 -1.076806800301939 1.0407211103229752
Ni 8.869494999618446 1.7844093301255561 1.7132899878558268 -0.0026006708476406823 1.3211778144869892 0.20733273048483003
Ni 3.1129053824178743 5.598338650409572 11.066154943080118 0.07150546423915427 -0.26968249636664526 -0.9224711908394307
Ni 8.009493703187651 3.7900701443340044 0.05410873696516626 0.16800719341233 -1.0032385399964852 0.2861025895958814
Ni 5.658843360068911 8.409251309288427 5.191364621418998 0.8573613457139752 0.2787412641348038 -0.5576370515696009
Ni 2.8206071952426184 5.867196733811925 8.245024373251868 1.074179389981421 -0.9618129258618469 -0.3279717190258416
Ni 5.078139700607978 2.6281413133695173 7.771296802805524 -0.845040362254777 0.7490142871664391 0.9873033568234674
Ni 1.7084175753433186 7.75888854127711 9.536981056786393 -1.1216504389791908 -1.0021239667760675 0.25308602546054476
Ni 3.2771164868388545 1.1375481429718526 12.145836668565403 0.2183213682858498 -1.1271561992887684 0.5690481216200199
Ni 0.8136565700001822 4.723185566597563 7.001673543361329 0.8198659198716783 -0.06534690083692617 1.9799229836535255
Ni 7.324627325927782 1.254785912696557 11.352932552775606 -1.5252280175658055 0.494636025257032 -0.6176003194971106
Ni 1.8495052083029877 4.750239003808642 12.990425421593674 -0.6582985685474211 1.1348581959187165 0.7268557487915288
Ni 1.9949046283293448 3.3855630535593386 11.286554313736223 -0.18990527903700197 -1.192909591535494 -1.0071669285166138
Ni 1.9653553834857125 5.965855637018178 3.382486132507862 -0.010923588891039252 -0.8573358917926783 -1.1378010805971244
Ni 1.7259161669163363 3.8214819321870057 4.841002587198182 -0.15568363884997058 0.17939203821050395 -0.7171205237816359
Ni 8.772158501948844 8.366245191202108 9.82904642608548 -0.6431694262154665 -1.0554054518080274 0.050282550304635985
Ni 1.1801072507359245 5.155006850604618 9.48353724767557 -1.3818532779901749 0.14390850059191346 1.0371596182239622
Ni 4.697985359680806 0.9552331204998104 10.255832325066706 1.6115975434009857 0.3744449228867164 -0.7072963386023625
Ni 1.128933881553523 9.156671193517939 11.69421655236876 -0.532763942477005 0.5329056102611919 1.1988598955816578
Ni 6.785318684850067 6.141418941081259 11.702557951236217 0.2818561556147017 0.6510071770923305 -0.05033242970596494
P 6.527309914477286 2.7710076749031334 5.3675472210326935 0.659733758332051 0.09207274686754466 -0.004166986893496049
Ni 5.779256765624588 8.546502103648796 11.640051007841809 0.7912845086895598 0.6643627724636301 -0.4523007548239307
P 9.056447754183816 6.461012696058811 10.985519868575524 -1.013179710369597 -0.5607884527143889 -1.0701412153563052
Ni 8.510853030449482 6.564393145793813 2.3984068771504563 0.8688791165455875 -0.9104065463654127 -0.9124228054644932
P 4.896858389506135 5.568305144383504 4.182355227881193 0.42345014914082557 1.0895715561667751 -3.0661870727136225
P 3.8501185309560473 0.4684724053454102 3.6198542012508206 0.47509409856936247 1.5990708716888846 -0.9884341279938009
P 2.182974908700336 9.129757447032564 0.22520473162027693 0.731496847107966 0.012432312226081816 -0.6572577859877325
Ni 5.214757230345163 5.1750198752402845 8.229023266258382 -0.004311225780844187 0.3740816260100267 1.7094298184601269
Ni 1.8719116007056913 7.554474445998911 7.000051268400168 -0.5347994848497951 1.2026923819538706 -0.4453014406879621
Ni 4.63546910357135 1.7143590875432044 5.795491621765749 1.2093373980742141 0.11559859790362671 -2.594828529927292
Ni 0.5630346452025571 0.13143872889963512 5.737590747233508 0.7356314381016299 0.6449979947837731 -0.4963141842904033
Ni 0.24502312051146316 1.9029788181019591 4.089220627240728 -0.7081478879693803 -1.3316316628304616 -2.647405789803376
Ni 6.665380227761777 4.598432435830056 2.8745883480116428 -0.6093640476302473 0.03165233679795839 -0.34457436057952917
Ni 8.638008841699074 9.362817453794852 7.5071593346604155 -3.109777555710064 -1.1513531082499462 1.4463848820146572
Ni 5.559886449981158 9.252340715194155 7.539462349343399 0.18140341221357792 0.3859174423026902 0.11156248016104013
Ni 6.390422316003743 7.1308297258029825 3.1529146688021203 0.6243417519860022 -0.11263694417214151 1.5699868098387348
Ni 8.587012414102562 6.086250417143762 13.45722898840269 -0.2646181944698604 0.09505934029969436 -0.31440066520962623
Ni 3.5713982823190875 3.169573253477913 13.116940518048043 1.1551426571993655 1.1726783520902835 -1.3570927832160433
Ni 1.5097866761092076 2.192129307591382 -0.011089581077780452 -1.7001368231939753 -0.3327133474758851 -0.02807233275618391
Ni 3.3448851142347293 8.024226418391757 11.3680210136945 -0.6045018344419395 1.078262301801543 1.1139435572532363
Ni 8.99190132619415 3.3819217819760232 8.63266427453369 0.0023031942118799044 0.08142323757349848 -0.8656366983488899
Ni 5.132740148927618 3.906534958709821 1.0090680636425995 0.6393942754437504 -0.04768573611173723 0.7752505951551488
Ni 8.83025121841105 3.0668353810811433 5.657963308496984 -2.4636297635925635 1.9629683580770578 0.8986838586118457
Ni 7.336119216295587 1.9588457956679695 7.3472646736636475 -0.1073895797302731 -0.3517533948264716 -0.35822871813817014
Ni 2.761788087006759 7.035625839879108 0.8736816748346077 -1.467998603629691 0.530182554903074 0.7808499436197971
Ni 8.548243581362556 9.072493562209527 3.0402755177675473 -1.5091730209854717 0.37703659487329255 -0.6405466438806388
Ni 0.6193691210639187 4.840143954870862 1.395790662492309 1.1711894262495828 0.10163570796563141 -0.6683662371960682
Ni 4.872812959255187 8.348578970758245 0.0965514357911525 -0.16678771918293211 0.9462466959924736 1.1602236712666987
Ni 0.3322758103283431 8.09881195320192 0.6950041988598623 -0.7816572700124408 -0.03894912756968776 -0.04048124794349803
Ni 6.828054734200028 7.026518004563296 6.597554792804116 -0.12013762342456084 0.26562606690908447 0.931265649202609
Ni 7.307128734354764 4.378121535966896 7.217097130367907 -0.27494785853064263 0.3312143943328554 -0.5147376811029135
Ni 7.424170937063486 5.500732084003612 5.05141034588053 -1.09559153710861 -1.161698456040012 -1.0002378054969483
P 6.456104895229125 5.336018092970103 0.13335714819928476 0.3898818262670769 0.20992183136824494 -0.07749484905336976
Ni 2.9488339687225973 5.945460791065591 5.580898728941349 -0.6161867269790355 0.34275813330639676 -0.3850898041950723
P 6.979181473980194 0.44715280678867286 9.287850097667768 -0.23827569992058964 -0.07586451253879838 -0.7117605450213031
Ni 3.854346503587314 8.02103215713069 8.924812526996693 1.6447616888577803 0.1041096234274207 -0.12288381871113033
P 8.350590517208364 7.381434887713523 4.337043149895272 -0.8599080233952286 0.32322649103137235 1.5924484812763606
P 1.2701705179539415 0.2744578189600193 7.9603737876730785 1.067585538813987 -0.45146566051714504 1.4314976804901798
P 7.094631202415904 8.776563416166002 0.5833959653809743 -0.0626770673142469 0.42091092765873955 -0.10295416966673882
Ni 4.478065593849613 3.5146372841085807 10.247109104882329 -0.189065556744526 0.19278491457764219 0.3792708835204501
Ni 3.52782408861491 8.88798073898643 5.636509606843572 -1.0696691608158932 -1.295560885249833 0.7700132580156094
Ni 5.881193744527329 -0.09261215732633797 2.4506782154368802 -0.6377881072988952 0.7434604472277454 0.07471574364633583
Ni 9.181368513822166 1.295743233472572 9.823307931073614 0.4661939678662551 0.507514423881597 -1.6091413685510094
Ni 3.091374385229574 3.723027908711783 6.776667172571549 1.1581433916989021 0.2688612860169305 0.36472229628231384
Ni 8.840802524559123 4.055845719055852 10.80239929625193 0.8406643446742683 -0.45926407351564136 2.395678849473887
Ni 4.401123942132597 2.7694058879150765 3.0523112706940867 0.18527703623637123 -0.8257761147085262 0.28694514010183486
Ni 8.15621552875066 8.400357666418692 12.131742805613513 -0.6006063560422753 -2.222201634085921 0.46420804778447794
Ni 6.758702945246189 7.393438977408903 8.920955200424292 -1.01304138501952 0.1913895768920123 0.7151405172371297
Ni 1.9745563459519933 2.648554784752197 2.442254864677011 -0.4129770175236436 1.440580102407422 0.21238597663802133
Ni 0.34254214739598265 5.839351715821865 5.2842803732558625 0.5838450774235364 1.444540629717067 -1.6179916198527877
Ni 3.845620489588422 7.679851528674556 3.799254343913201 -0.24855317058719775 -1.8817855186491397 -1.6351452488139386
Ni 6.933930991567584 2.102019476798131 3.0963902135538035 0.06251097405002783 0.4934456044933566 0.8072852549931904
Ni 7.336920109789614 5.074833686766349 9.52660855476722 -0.28694899675657676 1.0572785004610243 -0.7591665451090925
Ni 9.097572703830675 6.814206726925373 7.828066182459573 -0.6274581861277968 -0.36734816394093506 0.4516399813114802
Ni 1.3346890077984688 0.3391364875033522 2.2378854704310354 1.7442158157910606 0.10452614213954903 0.3627859984915494
Ni 7.481295131160819 0.5363881736390257 5.084940776406688 0.3017053291301449 0.6467509729191379 0.4950576861754829
Ni 4.983336261431118 4.919925984677166 6.009497813542198 1.8142071573785334 -1.6496629828141396 1.4621593712400947
Ni 1.2638285590070415 2.5047292135687558 6.9547309406247075 -0.595427125834181 -2.548086388675747 0.6186498438075474
Ni 4.353899164130057 6.14761189658741 13.21767988179576 1.3774482069439438 -1.5426377284018207 -1.0930245477123819
Ni 9.015043423085553 4.175821427004329 3.2337136470915384 -0.3820013950777357 -0.7474402578110999 1.5033839251075207
Ni 2.413948867292132 0.668366108739873 10.032189335759785 -0.3638082691084767 1.0114735263117678 -2.2621709753900077
Ni 4.706711373679699 6.146382618201226 2.138998405706135 -1.2528103816561842 -1.3499811118719267 -1.8514966378576112
Ni 1.0761680380981116 8.027420679652824 4.101542280519205 1.4403849556774806 -0.6478868862957938 -0.36055916604355964
Ni 6.585728575966131 3.7910945429891574 11.556784160064977 -0.502052115215445 0.020543885589622685 1.1393969643293345
P 4.925727806151348 6.798421674920974 10.838655558472299 0.35084579541053773 -1.2634310945948242 -1.2934440960171467
Ni 2.266817282267062 1.4338228594721105 4.77571393581928 1.809089376535994 0.46454949028429676 -0.3047801114007267
P 0.26522333071957 2.1111831884042247 11.684811641442954 0.196963471435364 0.6205444897270991 0.9919904778864915
Ni 6.145795917153275 1.6738115262292508 0.6264970731607722 0.41244145673514776 -0.5127083093777105 -0.1286754856922429
P 2.95814668376944 4.418501468410006 1.1466904353333383 -0.34288308892003533 0.5361423720309346 1.735166818214915
P 5.3499685401102735 2.145835801093527 12.28463151108054 -0.40830609441053545 -0.46621813623597125 -0.752751128501052
P 4.3305987510828565 6.970800030438035 7.014553959542617 1.0380823871485476 0.7917730182902042 -0.047722502886943616
Ni 3.08094414437711 0.979436866906555 7.2061928723195585 -0.12872922174831378 1.24599541561688 2.9469673331176405
