# total energy = -340857.1732617754 ev
CRYSTAL
PRIMVEC
9.42310719613616 0.00000000000000 0.00000000000000
0.00000000000000 9.42310719613616 0.00000000000000
0.00000000000000 0.00000000000000 13.79166988381325
PRIMCOORD
 96 1
Ni 6.478668916217096 1.360037067004514 12.905486242571383 -0.634930583245442 -0.4126165488604313 -2.046305524843818
Ni 5.457694093686748 5.081033651351097 0.08016802709933904 -0.17962266616407127 0.4309366873258579 -1.0804089158309005
Ni 3.929021099632329 0.7621983939959386 8.278118665867728 0.5153974261740996 -0.25415406171374294 -0.3201151990959003
Ni 5.573664274408875 3.9486494319996153 10.138449226732265 -1.0316008931892622 0.6123894647201324 -0.24772861780337335
Ni 7.079947965676605 3.7582932427765976 5.211927206998847 0.06334272592270382 1.7565026035782136 -0.06648178577231775
Ni 2.7776398960982025 5.790499394957901 5.26114974994352 -1.0400688214509572 0.6129985590590411 0.27957404444874434
Ni 5.369955542236052 8.324919470253404 3.159147584794742 1.7779204071323575 -0.2613217831067758 -0.80321751268172
Ni 8.566377170003447 7.197717959880322 2.2110670928902296 -1.3928575995204786 2.1102419184864627 0.608959355992661
Ni 9.470317000694287 0.5523335458674994 2.5319022210427247 1.2641551172450423 -1.7338696966700462 -0.09389591611921248
Ni 6.831912937077612 8.478987273520389 8.151401431345846 0.06753670939939337 1.0834230200668762 -1.9481125240111483
Ni 3.3743864309784204 4.849423098660015 2.0727226863529884 -1.0955270024192616 -0.14356217299608826 0.8087083605929621
Ni 3.4161213729153914 4.770165343719428 12.295328741476514 0.24530458174291303 0.6356096115903376 0.418778197586453
Ni 0.2362910100539395 8.365957102255098 0.22611028499891508 -0.7799521143958762 1.459860290793273 -0.4348936150910768
Ni 0.2390058072478978 6.841449121597868 9.664291663094952 -0.4394118146764045 1.9400893965963553 0.4431044330366433
Ni 2.8887477534878667 1.3516410784595059 1.624176185865482 -0.7207586347548555 0.04044473827860776 -0.5692818348973808
Ni 2.566383255031382 5.380565960980921 9.995444151357356 1.3187054416870967 -1.9853670374872323 1.6114309359161345
Ni 7.267392414764486 8.609874232993073 0.46085307853439794 0.1237867901413739 -0.16031239587123358 -0.1325323975444879
Ni 7.944386130844804 1.4134378156965015 0.8516981241885678 2.5098031768248323 -0.672032630304062 0.7107261902195179
Ni 6.351796200425863 2.9404052273416648 0.8508001020692195 -0.3695899087872603 3.1665824805142497 0.34430979406423284
Ni 7.6621169536666685 2.9118532124242975 10.737049286805302 -1.3176991119097694 0.21729215569038707 -2.05923920218635
Ni 2.3283084507781493 2.956443355853005 9.222185856401513 1.7125362252995924 1.8552386213985466 -2.152623982997099
Ni 8.94296222748123 8.56581178356944 6.363338564476121 -0.11214612057865202 0.7559045865283691 1.4655966790564179
Ni 2.250209738027277 6.004856238304528 7.90832295715165 -0.964550379397668 -2.413027882275296 -2.436198406854488
Ni 4.058145938052359 3.3408118999056216 0.5584689309872017 -1.1086637969115358 -1.7632383796401503 -0.7897647296109238
P 2.772692764800639 6.448364203354306 13.73458587099268 -0.34715960480820207 -1.4283858743340756 -0.08765970540151355
P 0.9298486640292242 2.4568867489786386 1.876108611616233 0.7025174291564804 -0.08185004069827194 -3.185642582469494
P 2.49376879069038 8.980428501841446 2.813321433948402 -0.02424884524503566 -0.16814860408620075 0.00861988045852709
P 1.5120223635729044 4.466816675660055 3.3185790206990085 0.0013660271095911958 1.7927690421094158 -2.6939602405241474
P 4.168273792289744 4.275263751818388 8.28395251155596 -1.2681701519417061 -0.06655969019810472 0.295425152548388
P 3.983722237122534 2.339653871887229 4.974255711735206 -0.05579525259274907 -0.5800915239183752 0.35558973785342635
P 5.351872599455052 1.8774316158718098 10.708142020745234 -0.012935734225061593 -1.3411146626202322 0.9025873074313101
P 7.736795078491798 9.503674800300718 3.663247071666357 0.03881800130846218 -2.1982163269149173 -1.978014196666587
Ni 3.3778729806547982 7.765205746800663 4.395736293176659 0.383197729378682 1.190488383688511 -0.08509682977034376
Ni 6.333477679964026 1.9044005487739573 8.789003732258154 0.00042988844856700154 0.08283554453999283 0.3727829618032612
Ni 4.66783039916411 7.3175798838898665 8.751311303324334 0.4618354337872433 -1.1381913740570073 -0.4979234377590521
Ni 6.224301559557221 5.9043493765525 11.528580871308263 1.7729196114836565 -0.8173069008952505 0.7414837831173489
Ni 0.002368969158490506 2.7178502807019327 3.628174266543439 -1.8066468285327726 0.49476483752541245 2.886347662553055
Ni 2.1422209291318866 3.59619695214671 4.977192894259875 1.5334979708840815 -3.351045505489757 2.376104526886385
Ni 7.327992417382832 1.6031061180914774 4.924950245446878 -0.31178302508112116 -0.5003101928236738 -0.3056002933091769
Ni 9.005446851546267 8.872081614871185 8.619628091290423 0.92637695365174 0.025018119310892397 -0.626298875712373
Ni 0.19707769161264121 7.874918984319776 4.364787982089824 -1.7555626082624476 -1.1122355734231941 -1.6529488526542628
Ni 5.39594447198592 8.487430377601562 12.68688805865898 0.1775668120763071 -1.8160197851072402 -0.10534812382021212
Ni 0.47262913564404624 8.96281671442212 10.687716493505999 2.4512571009598236 -0.5497180538328404 2.0177837632550415
Ni 8.866927175214483 5.100200251463944 2.8830382928151166 -0.3301345310051153 -0.6070716520516448 -0.16099759486371626
Ni 1.7941596172497711 1.8085110095663226 7.294924849479194 0.6326934663848072 -2.0511566822885317 -0.7973679958794784
Ni 0.6718034686161312 6.281594051536625 0.8684806781713506 1.7053299373591404 -1.6053903861490093 -0.20921554932983968
Ni 1.431209795938797 0.1863937726313503 4.816575089154916 1.5138151477431736 1.0002383197175806 0.1168512393638052
Ni 3.989159369996237 0.7754482250768991 13.058463792331457 0.03557892554587421 1.1603712525881564 0.5363017804269344
Ni 7.896573284742255 1.5322066592669643 7.109302829330263 0.8095755936892638 -0.46706608605856337 0.3926154231481561
Ni 2.468354670481753 7.500407010433353 9.537794929282335 0.6389168215866996 3.035590173763372 1.1498718957187295
Ni 2.8110636574552665 8.482040360264028 11.799228530335379 1.665603565303796 -1.0903215469589222 -0.13361508908570538
Ni 0.29038812637047945 4.910579064605136 5.06208095577245 -1.3307801134634434 1.802656990647089 1.1480332998480938
Ni 2.6046316472919746 1.137453851043081 10.578087121641264 1.1588028796597722 -0.0887357120745117 1.0912931668435721
Ni 5.326684633820028 6.540164114022621 6.478389049932262 -0.3547523295537955 -0.2441838378749085 -0.6343783102863978
Ni 5.7706354849097785 5.406112004690817 2.4114456989667503 1.1288502991617397 -0.9630941065671156 0.10569727962951475
Ni 8.554833863642465 3.9157250953259246 0.8665131333810052 0.37950922478350124 -1.7272077112688382 0.8620294406136058
P 0.5860041926340797 5.176320111695791 10.901735989613668 -0.053351933258579086 1.013967239267899 2.9086334705344488
P 8.459509710868838 3.0462172984661273 8.596747844616871 -1.4588961271077907 -1.0980052887564251 -0.4078926610222008
P 8.55307174258981 0.3797455676438835 12.327008285684665 0.8759684192922012 -0.1795365342081682 2.9565804307273726
P 7.138908347636332 4.1564477927117585 12.749474452282138 0.2788741901682423 -0.2999700916065931 -0.02438331394037091
P 5.581589107592211 1.1704347263601722 1.4847556604821799 -1.022801292619761 -2.68699872160465 -0.6563283321949277
P 0.23017635577015075 1.6954808383010336 5.734452637754758 -0.3729737376578286 0.48841884070272656 0.17589508080083902
P 5.916505184883657 7.017048724893296 0.8571493917231213 0.13515338010710273 1.1359321457091858 -0.055685723598078295
P 2.725341650952529 2.4918653230292223 12.775941133568743 0.11962983055020686 0.9677694005555978 0.5468731281848775
Ni 1.6158367359638746 6.878350009524076 2.9857586424562825 0.2650038599440533 -1.1105869820761776 -1.002614533259241
Ni 0.03400610938409125 4.792281376396346 8.992568290890304 2.6040307652518506 -2.1762583345865876 -1.4402260615021132
Ni 7.2436084921072466 6.061837767745228 4.6130105305227636 -0.32097883264777627 0.2786044814466234 -0.5538657574526268
Ni 7.818521687527549 0.42184518383078895 10.450845020046478 -2.8496266529829377 0.06962470227667364 -1.3227500440701154
Ni 0.8565180435384798 3.8168955466614523 7.082077587911367 -0.4031949984362153 0.22453521040604554 -0.22961391048053362
Ni 6.240122956602191 4.301591913428661 7.812126224648204 -0.07408839447498207 -0.6584770031068143 -1.678200171021884
Ni 8.874079313604676 2.744611905244944 12.461270602168373 0.326948677077966 -2.192299190099534 1.8635936782314617
Ni 4.979348901194888 8.979834846085739 10.30218419571005 0.4331581204572089 1.515410003034119 0.796863545439234
Ni 8.36211247450385 7.489033320002574 11.921478269717879 -1.2652889737391693 0.6873831446182034 -0.5927873742184888
Ni 2.6993244518809605 8.488269034145342 0.5656889157494747 -1.4041583692452786 1.7235037800546897 -1.0201959937864302
Ni 0.8077581751589686 4.3091680916443575 13.17094836568793 1.5102346294807667 2.10388306614797 0.6528362598812693
Ni 4.437586197021878 4.357075168819242 5.8773342704249085 0.3727662496327129 -0.495649811233527 0.19090260995326477
Ni 4.853013302515961 0.14669327954608238 5.049295683878099 -0.689154120475697 2.3630006425145758 -0.1439151854601328
Ni 1.4419804075066358 0.7124462724247446 12.71416795409983 -0.9353308204109182 0.7136940145985902 0.4509648096213266
Ni 0.4205834297722294 1.5475286316285617 9.417504253893668 -0.7738621994480542 1.055243986529499 -0.08791784415890666
Ni 1.5802079675141827 3.4238577439540574 11.250347610958215 -0.011441666178038361 -2.1860483240938158 -0.24959601002941528
Ni 5.4565256283898 2.3198276542680403 6.517267848066773 0.26396436293594544 -1.1393172601313346 0.5150546981227001
Ni 6.903707591089302 8.38058176468142 5.256047137376605 -0.22369985898894376 -0.01699216368262235 0.42208489336218274
Ni 7.544186766639983 5.637496402808297 8.995437627042891 -1.9605602628561978 2.0623378957163316 0.4001276723648012
Ni 2.9516093018422427 7.912394681787225 7.032565755574625 0.133812292698176 1.6608184852103267 -1.0602419539647223
Ni 1.1933234538302337 6.8775961609454 12.23769324839381 -0.036635391834846584 -0.8488599931111832 -0.3116477850548375
Ni 4.516561258745462 2.51005191998979 2.913683179849034 0.7107655280978856 0.9026875804546002 -0.20903042990222712
Ni 3.8585739499550225 7.106219588643477 1.789083389383109 1.3707810793364132 -0.925415103959103 0.8491528417612537
Ni 7.882165353782303 5.949241059412678 0.1044278166718681 -0.9519815415937217 1.4670344399442088 -0.4208278810266301
P 5.16431507308037 8.677758297502882 6.879519417131748 -1.6754999984819015 0.8215782745770946 0.5605711944972603
P 4.921660638711679 6.09822980788083 4.188475049576824 -0.722161428639653 0.7027969080701122 1.1549266845338173
P 7.409662487775184 6.181605460682436 6.73632022574783 0.8968619749117586 -0.521562931554863 0.6665728927410715
P 6.766101956159164 7.486291195797638 9.895191713500633 0.5476568004284375 -0.52802308535791 2.9199740923582485
P 1.9337912202351024 0.04503585640084995 8.876194801178587 -0.449654061229703 0.02609309754262603 -1.3671149433387357
P 4.490591175210061 6.757310197110351 10.984016677354747 -3.1830874201478085 1.172763455604922 -0.38552226374680054
P 6.888329080084304 3.0717916114977237 3.0185962865434255 0.21096467081046247 0.9149226890682113 0.9522872457595987
P 0.9419620683778301 6.891382166827944 6.13631423807556 0.8502543023555486 -0.477324530561778 0.5207242377036515
