# total energy = -340892.35886821203 ev
CRYSTAL
PRIMVEC
9.05794597522013 0.00000000000000 0.00000000000000

0.00000000000000 9.05794597522013 0.00000000000000

0.00000000000000 0.00000000000000 13.25721952594938

PRIMCOORD
 96 1
Ni 6.367427965866757 1.479678861026132 11.306645224849762 0.42776368891451494 0.6447444840120702 1.1563029960560538
Ni 4.255739990757744 0.5169424047091827 5.785622516684904 0.7845716154457585 -0.9561827241592629 0.11414566750718406
Ni 2.3655187918021174 1.619026300058595 4.764074629520973 0.48829439930972035 0.40043466208225875 -0.724364864048875
Ni 3.807996669201993 4.378466099146383 5.141693145856916 -1.2608831313619897 1.0112231008638586 -0.7297376983250141
Ni 5.19670658000692 5.029370088282679 2.766489598346692 -0.3140332545678785 -1.4358474728184432 -0.7247083634312228
Ni 7.325160812893436 6.380417060222748 2.644470915529323 -0.21626294309492433 -0.3452114799428958 -0.6897812125367346
Ni 5.23737675689562 4.544742811205595 11.872648181693078 -1.011038238546562 -0.3224628733924705 -0.7091153940889722
Ni 5.989340247935528 8.063446805692378 12.343664083533938 -1.5774864606498895 0.14276795922956703 -0.662137482677537
Ni 1.7200405122329334 6.673088348741852 0.4987576726107967 0.19317160849309958 -0.37496737104908967 -1.3261531562143933
Ni 2.6811157412800855 1.5086280559785339 0.2569259167917379 -0.006243924027182795 0.3038537429317154 0.6123514123933455
Ni 0.3321621208574906 9.17923174994198 5.057337401904405 -0.22090198452883247 0.2575782569039435 -1.244314171259715
Ni 8.563689981423385 2.457701506767885 1.3333314414369684 0.4349697197446509 0.24020017063681212 -0.2941884519278095
Ni 6.829093350201557 0.7180451069914846 4.9009021480165895 -0.6023148540929498 -0.08223776305499385 -0.31212755290473343
Ni 0.7531953716761813 7.760395111223509 2.442191586080464 -0.6046512155356102 -1.3527453048806253 0.9302577767633851
Ni 7.605567642724945 4.025677223988014 3.7703400708992336 0.072426690501843 0.2690572040778205 -0.613706383759343
Ni 7.377370812801334 3.8551161035394133 12.808766958320689 1.71778564662399 -0.8272141327066335 -0.8441078231381786
Ni 7.856979987874778 8.59405221592916 6.975272291997819 -0.0382371891043277 1.1656952359042312 0.6449460584999152
Ni 7.048322813728773 0.688821456279678 0.38134948423359444 -0.867038720902739 1.0312926179202238 0.02608075624745186
Ni 1.9012356611152386 6.226739950847763 9.129040766165147 0.5726391814053879 0.32753540281937144 0.16459713928951653
Ni 0.015201044733767483 4.9162816342837 1.6773567539806795 -0.08940188490360088 -0.22001623948976948 -0.9130601819381758
Ni 6.483867859832067 1.9014530518157573 7.064586355511326 -0.7844109214981781 0.2265445275265905 0.06887548281547494
Ni 3.362055878871377 4.445105406801209 0.6064394387289597 0.711214442709846 0.8006590079259243 -1.449075541472943
Ni 6.126124288291042 5.803353445695958 4.783284721090139 -0.6973464264785023 -0.8681568936675822 1.224403548378717
Ni 5.323970719268886 2.6515777798471127 9.506765260467594 -0.2898854536770814 0.007829009126115548 -0.8190511372798668
P -0.011127686482799042 5.579785226104223 12.66346844886153 0.5835298601759628 -0.05890037388063405 -0.5512512026479152
P 4.022959840231531 6.268460849455637 12.68103452325802 -0.6535291721832358 0.07435604631407194 -0.5464093011745815
P 2.334549674924063 8.71639789059189 1.280222893300259 0.820143084792465 -1.0402009761534472 0.6871005803807779
P 6.132084416663596 7.836509030242604 5.920727213878911 -0.13707013751384134 0.06456991346158557 -0.39783321990366965
P 4.806734837114004 1.0639010303924799 12.85988728734224 0.18253906847991788 -0.42686226014616807 -1.3636758357501997
P 3.968793324018964 6.095743937893559 8.14041036003267 -0.07615041921033337 0.5245461825529031 0.44374849437854547
P 4.674226147202025 1.4869614494935073 3.768947864621328 -1.068808869698127 -1.9076137925661532 1.198690202773013
P 0.13846972407911864 5.91181328936306 3.664812284305376 0.2990414091447366 -0.9324956649549682 -0.5799102611455045
Ni 1.1770891217958637 1.033991693179454 2.59228990104816 0.47584640335435463 0.4348727891554704 -0.5915020797481619
Ni 1.9920868580403297 6.473297237019346 4.598425633109509 -1.1654373542571543 0.487152058175161 1.3977005294350766
Ni 6.391214131681841 5.511433966682814 9.302696986712382 -0.5271699933289953 -0.17561020257056853 0.5705231635036496
Ni 8.716805498155365 2.3046493956568916 10.161857643767217 -0.030710284599663237 0.2755934625344415 0.5349149273817368
Ni 2.191108044365165 5.2313713387937915 6.759590825861984 0.7155387811168128 0.8925885443473853 1.6666608029237169
Ni 0.6598324063655142 -0.08219632966069182 9.10397108942242 0.07574675601401147 0.2852309856242055 -0.3887785659005692
Ni 1.4565720411501692 1.0163558725998774 11.28463803960059 0.8170281933125672 0.4450178480092723 -0.1812925976673265
Ni 3.8787935740042374 6.894410197761561 1.6188261194552005 0.6658900077414338 1.486369649937711 -0.49475686710561245
Ni 5.732393497868324 7.685096407331356 8.157034408060248 -1.6832251350403014 -0.30654594505189786 -0.9828157533657591
Ni 5.603770666728116 3.129429713424698 4.863012760505359 -0.295859154762013 -0.9574824168072928 -0.647663200320762
Ni 0.5339677197381361 7.165115967582426 6.56489571447747 1.1573424930641616 -0.4746729518715438 1.1383862636766329
Ni 5.34870796939874 4.576355042239351 7.347827416600848 -0.6038107219121859 -0.8657819656775024 -0.6428716924693896
Ni 8.430212091304927 7.002897215266228 9.506089537706815 0.18388684075706396 0.22684431815519643 -0.9037651297894952
Ni 4.735032137726265 0.04952884793483529 10.095769965014957 -0.4066770434475448 -0.08145794746617584 0.1348492186031226
Ni 7.947668141774481 7.27980767799773 4.836963014021124 0.36321588694011636 0.6062985213310461 -0.5177705543919664
Ni 7.297887337924198 6.030807524059464 7.060622598405202 0.6214587740112523 -0.08002712855692025 -0.12457226215714676
Ni 2.385147360469782 5.224260851297661 2.505416048147975 -1.0763224044663529 -0.15077411736349516 1.2398916167119873
Ni 2.522021980283845 5.0994332994706735 11.36415502887739 0.5412308422974357 0.5509992345381091 0.43306273252992517
Ni 0.8386815472713889 3.1593843403669988 3.5446224007561202 0.7092416352541915 1.3587529445272857 0.35919982380218785
Ni 3.5597093153721153 3.017709009249815 2.8321932201947013 -0.5098649263916445 0.2018693933774136 -0.3928321671446525
Ni 1.2463099440193477 3.305534296736524 8.178166595739834 -0.7753282424706196 0.5240923828449361 0.5843191888464775
Ni 3.5054975094302745 2.6846392822176592 7.0057776420481 1.012877605748146 0.7684713674497862 -0.03759415620369009
Ni 4.176030067234234 6.752906967615622 6.054028474053199 -0.14771604726346174 1.0610937604420565 -0.0702754484867951
Ni 1.0656945036717589 7.105116134239274 11.276935162445545 -0.3086483361068813 0.7125269908736825 0.799522837438952
P 0.10278141741063819 5.406008534877118 8.189660223235173 0.5639516809337191 0.3719152144863272 -1.1148287880716672
P 8.558753400932442 1.5608652297239975 8.010263982399659 0.7903460560356905 0.04044191006513035 -0.16940021710511471
P 2.107140886289832 3.1759784971732565 10.347498432475126 -1.4752370303596594 -0.21413124146390217 -0.1703319848907647
P 3.858268268696934 6.38007285828026 3.796350868216291 1.0813327131967507 -0.7593097555551761 -0.19794460440171072
P 6.857924791857846 3.7253519712214813 10.656617139077639 0.4149395405666531 0.21247879346214374 -1.4984818598202128
P 6.565842269819313 7.7145800210892 10.162613076451517 -0.8432513886751543 -0.5350589091587689 1.2612446284664665
P 2.2052022081154585 8.450773628395652 5.770788318758262 0.4417260646318779 0.30164825063996437 -0.1735648900057656
P 6.7805608763107665 4.017072175425817 1.5332104152342672 0.07783552022224015 0.35926178738837483 1.879774401756382
Ni 5.038699772513272 2.8485881021921506 0.7393222218047487 0.2448536102484235 0.04262709064190723 -0.34860893566021894
Ni 1.5967528112012868 1.227559996099613 7.031430650503888 -0.9350055758610155 -1.041999977035399 -0.062108082184654315
Ni 7.008802995963651 0.47095883678197265 9.076435839817972 -0.0429541349640228 0.851982855010881 0.2402634197745798
Ni 2.8652184907818286 1.4612459412113203 9.136650346477886 -0.2606160152890028 -0.09751397248777399 0.6588837516269298
Ni 6.3548645949659495 2.0462080845236215 2.57732255131745 1.0319055689138743 0.43102873281903187 0.40902806017822463
Ni 4.410947892982214 6.560316922847797 10.383743802813687 -0.1506242220491922 0.6078301274842243 0.11696488212353404
Ni 8.082151463882838 7.365667946756746 0.22857001729283483 0.12658363616022072 -0.8559048157731065 0.2923714533237287
Ni 7.734226705648574 3.740913522200276 8.384859862203808 -0.15162900916462274 -0.45035442973083734 -0.49493093078963146
Ni 3.2989672859916896 8.437313520855204 12.261098189682365 0.20470326328178295 -0.4470575041471204 0.5741759297648885
Ni 0.24727014651036727 4.89752262841811 10.378559940400901 -0.34619569823303603 -1.3163379698961846 0.7364140819039252
Ni 8.629713348760076 2.3568322217272257 5.901185601491455 0.41787676881810615 0.6276918994051577 -0.40380820654018196
Ni 3.6438032846894184 2.9228813740944033 11.795835895048567 0.4233843288998967 -1.3609216700438305 -0.28068861766916176
Ni 1.150386297415488 3.4100358180650163 12.482506994982282 -1.2642911286022742 -0.15965805011668632 0.21817173008186297
Ni 2.7493220735678165 8.129334303841244 7.902906490743103 1.1220371328946481 0.3081767957871015 -0.356402977783341
Ni 5.456678683989676 7.855612238050682 3.6088667875268983 0.12968438657273149 0.5588035610738763 0.2615896920561817
Ni 3.003995279225429 8.60121705110042 3.5661920872204993 0.27129149272497793 -0.15724969778550982 -0.03737355555245177
Ni 3.5148724833901417 4.202325284051137 8.984788449452232 0.03091391597003708 -0.4061340264598812 0.4774314884532874
Ni 7.087271980905035 5.993669946054192 11.565134543096063 1.1521720046068158 0.2984845082000021 -0.3635596434327803
Ni 0.5129822707814011 9.062837145705945 0.07711753941982458 1.041563917939245 -0.09104919069903675 0.8280865080092576
Ni 4.719678919502135 0.41133671978097297 1.8309152042649641 -0.6090033218567189 -0.13655334577842287 -1.008642484620876
Ni 5.957066786854361 5.837411322110548 13.713532561165994 0.06998439960893753 0.4557375484196216 0.820477071093116
Ni 8.261236111380942 8.926487886751469 11.2239724472371 -0.2928982723614762 -1.0151957123583613 -0.13294094583681623
Ni 0.10991092659306483 4.886671209283888 5.671491493118021 -1.0099154377960284 -0.40492149420901874 -0.43490081417992843
Ni 7.657306629448388 8.84848085704869 2.5156506211694767 0.8403529840814367 0.3023434769347761 1.1265620173481954
P 8.32579209148913 1.6386276948886942 3.492746639050269 0.0209856011127316 0.06791954666010884 1.223897812386892
P 1.7412632793710676 3.293088679131831 1.362311433405277 -0.47865919021280146 -0.5084045397960341 1.654282998084654
P 4.616101308650848 0.9812472744661134 7.950327554677493 1.0441566183670856 -0.0892509611480334 0.7530120954719225
P 8.569713515416923 1.6444247802358587 12.406675683873857 0.10095950783421322 1.1421102494954394 -0.45097637958555237
P 6.228551540018752 7.852568768243421 1.3453957195211685 -0.9306107892274295 -0.7054340885826431 0.31500487445252845
P 1.7802849101141676 3.405524961029254 5.814271893629507 -0.3000251132142446 -0.9077444261522173 -0.6384848762556036
P 7.033268507717857 3.9852425536915423 6.093548291818321 1.2147570264278886 0.6247472149545369 0.1793473010154976
P 2.56748381052981 8.326426147698974 10.175486229100564 -0.3483109448038259 0.48776166673470195 -0.3483379413870194
