# total energy = -340864.18431578146 ev
CRYSTAL
PRIMVEC
9.30726021600176 0.00000000000000 0.00000000000000
0.00000000000000 9.30726021600176 0.00000000000000
0.00000000000000 0.00000000000000 13.62211611839715
PRIMCOORD
 96 1
Ni 1.6349319567421223 4.477657773820962 4.974170326962397 -0.38148537467326554 0.4795886440056063 -0.40919775298686945
Ni 6.182785087656532 2.843991604478032 13.534131141357019 1.083459015511134 1.8743308621433077 0.8239017805039487
Ni 2.578120407085907 5.591308696342748 11.678076363962308 -0.611988629737288 -0.12105602147377216 -0.020872986794267277
Ni 1.1862289382490065 6.559226537272225 2.2419551956412804 0.2534135840032926 1.436628831069158 0.8533259993023368
Ni 7.1553751732506745 1.0458754531032652 12.787039219476938 1.288981946480735 -1.5045200955944928 0.4158936769498063
Ni 3.190947653500774 1.7072493691812742 11.682013335064207 -1.0920799244109258 -2.516507328317885 -0.8311384074617042
Ni 6.12978954757564 1.1397670948904162 7.170845701301685 -1.3172049458821702 0.05483134601758299 -0.906458103240626
Ni 3.6940423011180084 3.694973027146826 10.840220970477933 -1.0771405294922738 0.880930905503799 -1.271152631608798
Ni 5.97281329555521 2.588823756417313 4.820784815961146 -0.9514809478082195 -0.76500372061616 -1.0927597240867697
Ni 8.96224014929633 2.443490887017396 1.1249071231143093 -2.3127659147287396 0.4755124170537036 1.0814345288819376
Ni 0.6572303237977116 0.9110383811303278 10.710974769760105 2.2406814380576634 0.07963657798672091 0.4254255276996415
Ni 3.998184952815126 7.316744452127123 5.559499272855837 0.8660701863418827 0.6562573697476762 0.23656848742149583
Ni 1.2236348173471985 3.132963421905418 12.318534073994691 0.7433380627172682 -0.18121649301375242 1.0418092011808318
Ni 0.07809442890002462 5.184506963667014 6.730782612534086 -0.6855633178006452 0.021334756922034227 -0.6891726324184583
Ni 1.6892956640853765 6.856370129232632 5.2693482255499395 -1.0744616971085301 0.6373505055408443 -0.731349008676192
Ni 2.7376468484252974 6.022011473438525 7.298525490113013 -1.4687046285577803 0.8241781740937871 -2.066750422961731
Ni 7.277467813711008 7.378256135371699 13.161960793487571 1.3431931424158159 0.5298022887455198 -0.9052807951030732
Ni 4.010247162148606 4.552618448181957 5.762359387370962 0.6899007688337345 -0.5637758174774872 -1.814373507753069
Ni 2.9837215031844653 0.0684865441045373 9.175830604197696 0.1825131003379889 0.6721002503172038 1.012803815087417
Ni 3.712936039503012 7.631450844251324 10.551446466968656 2.279055666960488 -0.11923953709032369 0.7546324046841648
Ni 0.8116591786772661 7.247191295993561 13.43031702937664 -0.0014627005884555453 2.215736338076552 -0.4868175576538777
Ni 8.291465900327259 3.841822979973717 3.9444476240892663 0.08295252973383133 -1.2416294253387004 0.4792916815904778
Ni 7.286123565779014 4.991837368441418 1.743985125538717 -0.5181680469407011 0.8420779371923434 0.5136742728354057
Ni 1.0777900486314314 5.217007916593336 8.867453149069455 0.01956429528517276 -0.037880062875225086 1.0053211335571266
P 0.43067857821902816 5.010209900250284 11.65083215164675 -0.04135388035643846 0.959719790778244 -0.3144436026324197
P 6.140911723620014 8.810913404270826 9.450929019439519 -0.8243735779340448 0.18410178498134744 -0.5291158042014565
P 0.03460718592953646 7.127658152112477 8.443900209327058 0.35288056645237936 -0.7409672484922465 2.111441081000886
P 4.779622526610646 5.743184569725255 11.099068909256598 -0.10990180462916556 -1.0384371993848052 0.2911131554365954
P 2.646016870888174 8.189048808116135 0.8861963726951487 -0.04312099955919025 -0.7876006320800695 0.22672784718199013
P 4.984512554594621 0.9556601791299449 13.26997061840586 -0.6153878852268241 0.6352995365490866 1.5715554398774354
P 5.2214195579699325 4.628668071996668 0.9802136624961902 -0.842615297753052 -0.2095359087837359 -0.7822288262451947
P 7.132870217873856 2.198030511437248 2.772468101341462 -3.31460680304675 1.8835894046270978 -2.1900042234177706
Ni 8.716621550291283 7.700864391480565 6.6642115025968565 -0.7821516931503562 0.0736577346954667 -2.899614297754974
Ni 7.780236707218156 2.0076877312836965 8.534174119040193 -0.060755424811501826 2.0693852894814166 0.5564818549192352
Ni 7.732509076460373 0.3008860413222837 1.220774696260641 -0.5163407639239753 0.6947848363989132 0.7078136445584132
Ni 3.7111862745688344 0.4479286544371393 6.828072335052451 1.1190515679037631 1.2393424290767365 0.615353689554779
Ni 5.351953883511645 6.781428069392213 1.6970979403849573 1.16194965281887 0.017405339960640993 -0.4042383520990651
Ni 8.731057110998249 7.74643273785149 10.445343699683415 -2.1210024994370764 -0.09283919271992397 0.2477533003937217
Ni 1.3329485894318622 2.3021322177605317 3.2964705784700623 0.20642898772363805 0.014108157266607961 -0.6684199732521392
Ni 5.122585760969759 5.944091090305889 7.313005725669362 1.0459941857964568 -1.5383483569978476 -0.2366805875193279
Ni 4.941969067817355 1.6913618758693523 9.155547291851665 -0.73123690857836 -1.6066633393241618 0.45691382811590986
Ni 5.011308156964288 8.010656550172607 12.95159437355003 -1.1218712967407454 0.3958560415726408 1.0768651643437002
Ni 3.8915516716934575 2.9724411037151923 13.413806880351439 -1.2270235025000675 1.4779318035830031 0.388378245138357
Ni 8.616373049727304 4.487504855205856 13.52222529399638 -1.3186051686638063 -0.5590066782236179 -1.3703933569796913
Ni 2.372662636224353 4.3610750314512305 2.4563674816260916 0.5794957993159052 -0.15885869414384254 0.11338282119923053
Ni 8.87733932094756 6.1166756178295945 4.215023641557066 -0.6848380095988463 0.5607524572701311 0.4428352385356567
Ni 4.737674704491822 9.037210130917613 1.6921529929938475 2.577050637118581 0.4872852413189157 -1.888850395915721
Ni 5.492716888110066 3.790763350032766 8.865436265765007 0.6442788572295614 2.652394244156903 -1.8583254878539865
Ni 2.70982744742393 3.794718935655242 7.481184196172644 1.0156343425576766 -1.2449947422665075 1.1432358784594505
Ni 6.095827354784074 0.20523346588860916 3.497641425242881 0.3607967359756625 2.1306762750814143 -0.09699563809045876
Ni 0.9390467195155451 0.9086296621677469 13.42925414025173 0.944159988666774 -0.9433290081250464 -1.4682230609356715
Ni 7.972971453265769 9.152145488216338 8.489506715465163 -0.15722758629832276 -2.3542372944996486 -0.7568949754660964
Ni 3.566988890924075 6.152871553090323 0.09294323196378561 0.5662170799291282 0.050083546919952454 0.6821303808596961
Ni 0.8759807238028433 0.4501354058514666 8.291250902614603 0.21952207346217031 -0.550359029850949 -0.7819861141067693
Ni 4.9312005676639314 2.44888909798454 2.010597180849781 1.1249010847060048 0.11817355771965453 1.1186065099465445
Ni 6.842762914691314 4.066946991824193 6.334052266216191 0.26936779333970384 1.0991874819899845 1.0411795380166327
P 1.6762561924216377 2.6131622420709015 1.0610453566469684 1.6717690706845596 1.398848526996591 -0.8380685589226341
P 6.893077963809209 6.262297012298446 5.640659513294788 0.9546045810388658 -0.8170433628212188 1.2639931377458813
P 8.224677000499286 4.115707728473963 8.309327463546305 -0.20161331150254955 0.582042734107475 -0.05039593595404869
P 4.79687818718493 2.906676002518919 6.985040210538622 0.13385677278286626 -0.3320988538203377 0.21339436329787764
P 2.643001318554804 8.074271674242311 7.44810991601257 -0.6675306286686503 0.6358854909595436 0.4069647498912927
P 2.0476810287420024 2.3568123719535836 9.579684727540162 0.9114113334808434 -0.3396301292003764 0.04850103292418098
P 7.640162439881061 7.505160629401022 1.4961718745577175 -0.5629412373913337 -1.5125010569174404 2.4287550632025656
P 2.3387655942548045 8.88540871561741 11.685732516275365 -0.11435726929735789 0.3212115174838726 -0.5511776690975023
Ni 6.297087551255659 5.228195243459727 12.6740444259483 -0.7274072504196246 0.2812725151970898 0.14721751036048839
Ni 3.539327713347607 0.4134210561926864 4.477548878875591 0.37256364670360353 1.039109028640849 -0.9149332305911726
Ni 5.358459658453083 0.5440977828168078 11.237033220686364 -0.5906039934139248 -0.11756909136643622 -0.9967007388779673
Ni 1.5668028114326509 7.239819945845324 10.274712766094199 -0.075497873227999 0.25373831433256305 -0.7351552697961596
Ni 2.2631813334545017 2.259244362352602 5.472154357955392 0.9449547166539276 -0.18385084531280593 1.1379252648798144
Ni 7.031067404841753 6.665915661955622 8.753722151252022 0.5473963476781991 -0.012310956156869121 0.07801704010542693
Ni 6.424234034052475 7.332687789000775 3.8784619408241627 -0.6334360009777865 -1.508141237286848 -0.05369954640598494
Ni 5.728255724223016 8.060292169289466 7.283023317377022 0.6609180084481391 0.7207961728610102 0.8577446971953229
Ni 0.09759965428596162 3.3164746730074457 10.163065663855287 0.3275359170400036 -0.2270158107360542 -0.7295062990404985
Ni 7.770398933093551 0.716859148285989 10.695431645078845 -1.2611297001551571 -0.7990332993970433 -1.5143023717922373
Ni 7.439107003135815 4.798981628010059 10.32392955849809 1.0479271411531115 1.4316966838748633 -0.3792505718054759
Ni 0.819194336606576 0.05626797279821574 1.9493516852494472 1.2968011854148376 0.015129399442270718 -0.3461123944906104
Ni 1.3589065383755938 5.210688286857662 0.2689826145064633 1.8241771241070521 -2.0401227930718737 0.1097645077203529
Ni 3.394274061756335 7.9748794416248465 2.9905037037564615 -1.8336470112707002 -2.433657128489873 1.084212348737391
Ni 6.201139004944821 7.397084722934687 11.117757887915262 0.4964077724454741 -0.7794137253939029 -1.7587546328371841
Ni 3.6533230373572247 5.574127493850769 9.143504627764791 0.7821900025874593 -0.7089670414365662 2.3834812789664306
Ni 3.136267499307721 1.1115940179980979 1.2038950490019993 -1.498740512798238 -0.2978281055629258 -0.5864945992312416
Ni 5.035581491795861 4.866049745646677 3.152784163415124 -0.17246728606621264 -0.7963405830562285 0.8077794210207895
Ni 8.413642306130187 8.499901994481032 3.257864993520724 -0.38416240728479645 -3.921028994439853 0.31037148944557513
Ni 1.5498822122287415 -0.038123468866410534 5.860956779959816 -0.8591055820985914 0.2858472790519658 0.8534005612940141
Ni 8.523896111503957 1.2309224021528427 3.6544054717287398 2.463952694149621 0.9999637258999552 2.977161340202518
Ni 8.177312352892743 0.8963077802722266 6.286838396226316 1.7215407427910479 0.659725787912251 -0.8011464890853041
Ni 5.87508706252933 3.314836595196726 10.977804614961912 -1.1783532909878738 -1.3626530509126404 1.76865569400098
Ni 0.767620015171689 2.723509120047553 7.734978292614827 -1.3556133704570397 0.048485349194897144 -0.42975038032724056
P 3.3186525719148796 5.895684029547069 4.062496259954386 -0.7448395869634591 -0.18022121898001864 -1.0177580737688987
P 9.028740524055369 8.81871288839232 12.318888680611671 -1.779345826724974 0.023436633756385442 0.01598377702276602
P 1.126131958568234 8.68520023955839 3.915595117195911 0.7774262626502288 -1.1524399135562218 0.12689062587767824
P 0.13423582295832115 2.6552217513131833 5.5341072053376275 -0.23089509118580234 -0.0023355901117121064 -0.5548432908745478
P 7.75726638882693 2.7449623550118063 11.37016241039642 0.8033674079960229 -0.38097603913701483 1.6752801691616117
P 0.11762143261789258 4.6556498195721 2.1997812070974545 0.0027153420486340334 0.32775394658808066 -0.028075160969661325
P 3.656664343800681 2.707230721803528 3.7539010149354035 -0.3287055118680726 0.09961636354275748 0.4880280330222112
P 5.417625912105037 9.032258668444301 5.460329483759261 0.2029430860575666 1.2325917406164644 -0.861508020892497
