# total energy = -340891.834483484 ev
CRYSTAL
PRIMVEC
9.07794078791964 0.00000000000000 0.00000000000000

0.00000000000000 9.07794078791964 0.00000000000000

0.00000000000000 0.00000000000000 13.28648395543983

PRIMCOORD
 96 1
Ni 6.26579446573682 2.0946622197105356 11.188534821604112 0.3646135386185914 -0.5172527342152834 1.7402460325100353
Ni 4.68095848018029 0.32992777321396943 6.133572442167084 0.08417508928702276 0.763104446710918 0.1293956516877191
Ni 2.6477720756740935 1.5477979870282224 4.71540018763529 0.6313294961577449 0.17931207690218795 0.7339810469824004
Ni 3.782932262921858 4.300765240875365 5.046074167584315 -1.1125765017023808 0.6030285923305226 -0.3985603278776813
Ni 5.145231607320801 4.569844484595364 2.6615750846844595 0.2786790434383007 0.24413627246642466 -0.2904397835186546
Ni 7.350236197646923 6.157621722976201 2.5788133138553215 -0.16591765787315296 -1.3935319998796838 -0.4591221486211383
Ni 5.174780304676106 4.39446774597566 11.359425241872668 0.6540706465090026 1.7510171549836102 0.7054047780066045
Ni 5.370491630723117 7.8254573214112435 12.308944262820345 0.11765779442550059 0.30868124622734583 0.794346178334019
Ni 1.5215718160114862 6.614804978339603 0.5634278434947527 1.7263157955821882 -0.041347452598535235 1.2180824912566957
Ni 2.726486900487565 1.5490870546240603 0.35013163829352917 -0.473211536834669 -0.6799950796842483 0.14018065811836503
Ni 0.5906090138853071 9.20167314908075 4.91102981221496 -1.0776496079182085 -0.3827752971292827 -0.0629218363352013
Ni 8.52838043465732 2.2072377637667993 1.4276596104783474 -0.26289452691053433 0.9378666994588946 0.0742593728352076
Ni 6.923373264608166 0.6799931425395436 4.909834247409523 -0.4780346692549251 -0.5076838595799257 -0.5512000376950056
Ni 0.7166090168199193 7.693427750186801 2.944377451535646 0.2233630444748153 -1.2250159851517355 -0.9324478424361683
Ni 7.512440844142956 3.8556647247377427 3.787764450818088 0.5401296388134569 0.005938476971622031 0.08176853672805919
Ni 7.932531633333155 3.793126790457958 12.649170959889796 -0.07362302480278933 -0.17210218941731006 -0.37814011235011646
Ni 7.926975933553909 8.470127288442576 6.846338766639692 0.228802984543464 1.061734993570481 0.620956380453537
Ni 6.679358215480486 0.8381045455217504 0.5719184415397348 0.24651120045650451 0.0169512831423579 -1.9909848978946418
Ni 1.9084554976976273 6.719092362431076 9.220753165087318 -1.0287084021328154 -0.1371488132705767 -0.5143484160842948
Ni 0.3231311189252085 4.583652032576137 1.4160997606435564 -0.7725072280820566 0.23938795914816194 0.5587212857727152
Ni 6.589241497002418 1.860660139302641 7.1617073383733425 0.6466324450634025 0.5274157907912143 -0.9707235980879152
Ni 3.433122891527288 4.3765660466869765 0.7224434093822094 -0.47632077188761196 0.5739980094261276 0.2445059971010176
Ni 5.949110500378965 5.662919338221256 4.74202578804792 0.293973507703526 0.43508233406311525 0.8909582078328139
Ni 5.598701984890556 3.251872725199786 9.289577573382019 -1.127825200331335 -0.8218289571353201 -1.474934668627892
P 0.3636831883432986 5.615414473932374 12.444054887157657 -2.660409915372528 -1.1320315251031987 0.5408588036699975
P 3.94154204485485 5.932116595171859 12.569758041427594 1.2499672557804342 -0.03522231353740386 0.35075272147609915
P 2.163545634620537 8.547353330962261 1.3293927167358879 1.6916398414665577 -0.348718978875522 0.2858454792797529
P 6.221376101325297 7.707189908463498 5.879853982101436 0.2609494873690215 -0.7207753469254039 -1.3716971633927797
P 4.617185945949561 1.1673324094988247 12.528383510571594 1.20404658198892 -1.3622655856662347 0.011888781017785977
P 4.018459437386801 6.246158879752327 8.161395599239329 -0.019429826589837506 0.2573656266725051 0.3211780931427759
P 4.732802600179106 0.8102289126587903 3.9413160041285376 0.20013441296417792 0.22844097321835494 -1.1370032672861774
P 0.14981325728251887 5.500587600553802 3.6324717484591753 0.6249058520195883 1.1137836346366046 -0.6521626308530123
Ni 1.237323333188349 1.0050460615354488 2.553994223665028 0.37238032704820384 0.6327119783275684 0.8336750578406287
Ni 1.8241577392824624 6.704504111540147 5.018238477660945 -0.41712163581963646 -0.1681869135233039 -0.7226643364180007
Ni 6.004122821722484 5.702789654284082 9.336306273731152 -0.47227822638712214 0.31165241304052776 -0.2806063423680006
Ni 8.599142983316185 2.303935989336295 10.176915423123972 0.7014393656009532 0.8267269086575697 0.09247872405671169
Ni 2.3688977338138875 5.328542466213481 6.9415236994752005 -0.33513506954350025 -0.5112507509955776 0.40789600345631044
Ni 0.2198404927353063 -0.12169070442937004 9.354720876675923 2.8285446355016575 0.6385465827314745 0.15393606003124458
Ni 1.426171735978644 1.326550413466473 11.526915065511638 0.4066970980522028 -0.37689801241289933 -0.5678597577388735
Ni 4.192256614304563 6.745064351104971 1.4498079704806435 -0.3218848894018134 -0.06985173068581518 -0.45208066839332467
Ni 5.718948388936138 7.728187185570355 7.9840471318744415 0.04882859146692881 0.5877986627546458 0.7868601543696191
Ni 5.424941119736057 2.7137142377597883 4.731702353752236 0.42966090593722783 0.4107273022575184 1.5858497450129203
Ni 0.990058381248626 7.72425643719713 7.1759633366304145 0.10041211997117545 -0.7922273322188035 0.08825671555556414
Ni 5.029687576617784 4.523229258506426 7.202922097470983 0.9040613208736753 0.7412508411709363 -0.41154002796680095
Ni 8.130113015188213 7.051535633045093 9.011637351631753 0.019981842438565586 -0.22388703529908538 -0.6924176217183172
Ni 4.643911403711165 0.22050862917934635 10.33821318333251 0.2961939123936125 0.024671791715067188 0.2000392821472103
Ni 8.05566482255815 7.237088743319266 4.554938505775882 -0.27754878648859943 0.29571157344055526 1.3427372858253197
Ni 7.225650537891407 5.798634553416897 7.031287286055536 0.056751702968747424 1.5339851949331453 -0.3226461930478701
Ni 2.218921073596685 5.356193873938292 2.862626055519302 0.5309256037166856 -0.13004562656689217 -0.43925420605261767
Ni 2.1223771730210568 5.521140058560686 11.358668141608634 0.654823208404311 -0.9663036146433488 -0.28921696685514703
Ni 1.0654597576643443 3.2925872897584783 3.8574249374619183 0.21750607147340603 0.4937993882883495 -0.8476634016999209
Ni 3.771494057493998 2.6790909714884723 2.826008365650763 -0.7354861707730173 -0.33877780850241007 -0.3265851230909601
Ni 1.2668629526028383 3.374751732081939 8.269002786287126 -0.1249108764434881 -0.3878072031262353 -0.9773650146638327
Ni 3.802903732716534 2.5935404572407315 7.133592955666928 -0.9418058866123006 -0.026988869884018035 -0.3841258976199062
Ni 4.033256480916493 7.082618502398262 6.05580626216886 0.49640468712168057 -0.9038299215891595 -0.8814374128265723
Ni 0.49479225636902163 7.496917565348004 11.37081261083196 0.8289784236959078 0.9531534504146358 0.11159204784739492
P 0.3005088904123298 5.576170535785835 7.800893321357874 0.14893115061748544 0.6297356693080638 0.0447662484720971
P 8.813754582141613 1.543077457804026 7.897578837810227 -1.1060973217359402 -0.15087953259310788 0.7329081256331959
P 1.8791972944484268 3.3979821826294736 10.372080257133872 -0.5523210386733262 -0.4459964098724577 0.9153224956097914
P 4.006031736410023 6.200306200691913 3.841747333673098 -0.5295883729625008 0.32647636542723774 -0.41013543430979044
P 7.215937141218541 4.137389540014097 10.43834014714812 -0.4413008041690013 -0.019751985815946626 0.6962318532580848
P 6.349429534472435 7.9109352121324585 10.228666040332383 -0.29312272966745645 -1.4999846696179844 -0.3008347535997335
P 2.4276138550102355 8.73160829569978 5.838944241815206 1.038817208432043 -1.0758020131865085 0.19420236375045907
P 6.977196375704819 3.9310116335085663 1.5521136400920355 0.062354908088137775 0.4830475490884842 -0.9737991516894455
Ni 5.17577887816584 2.91068739758019 0.50658087031237 0.7148921486717494 0.055403416470969094 -0.32539881609234284
Ni 1.7651874357432729 1.0597769667136774 7.340251370543667 -0.5277220091777234 0.8968673742283972 -0.5257209195872946
Ni 7.180351613220754 0.5858104143700953 9.242144424825579 -2.287980223143627 0.42992958621758215 -0.48876979628424205
Ni 2.8691376624664477 1.5514382412953427 9.498613500958404 -0.007224799883213364 0.785696473078821 -0.9311813170189189
Ni 6.0976710018289095 2.0237362681169877 2.5844997359823143 1.1244066615680892 -0.4852995783474546 0.20313309058118567
Ni 3.897087368680064 6.837613957721663 10.46721163011857 1.747459519539339 0.17002936604868138 -0.8261193569805579
Ni 8.318607378286694 7.101046722254258 13.911214433713548 0.477370553308365 -0.20743917415570728 -1.2784185691425918
Ni 7.756011074170665 3.8165387998218083 8.273719684334996 0.5054066335099747 -0.7841360705702366 -0.8101376368403208
Ni 2.910796332869979 7.879797875134394 12.359286891408235 -0.5643926251258796 1.5331961233729465 0.8148964916815451
Ni 0.14288860402825568 4.8527494321777676 9.87028981618998 0.6129790186750153 0.569655930407348 1.3095464008956479
Ni 8.96481151731589 2.3774037643582564 5.72428258695948 -0.37980490164704916 -0.254070243750685 2.630634740992624
Ni 3.6279445793743546 2.822422579028537 11.643091828689515 -0.7320676320097714 -0.03236170416015716 -0.35007086491772615
Ni 1.5157619338893986 3.5093322046756095 12.783497250140627 -0.9682003174454294 0.14145721083794346 -0.5224772158390163
Ni 3.314928102106068 8.350643431425517 7.998224152046417 0.029476669302878265 0.8916405786118192 1.0841295592155973
Ni 5.589578654370714 7.769764154506544 3.1969675235578947 -0.05443102525537078 0.6943572619431914 1.2079572298972356
Ni 3.0729192778986714 8.429331022416543 3.566730208865509 0.5019567272881613 -0.5275952537918721 -0.37657585318679015
Ni 3.4496901335160537 4.538807004946274 9.323896728636006 0.25649222292861634 -0.7757033664218511 0.18777820539167014
Ni 7.520847017338352 6.3088057493219 11.175646869027975 -0.14456747433215103 -1.3213765607613566 1.3918384142273448
Ni 0.36708832394329083 9.223278648222264 0.3562846665784526 -0.11389524205927481 -0.3398404454389696 -0.45027961062884386
Ni 4.505627131264664 0.2872514656449911 1.2805061898548469 -0.486194322247582 -1.1925825472133784 0.8946989058221688
Ni 6.330846989622571 5.716315786099567 0.010155492390592854 -0.7973985920070976 -0.46391622757567197 1.1063035242094754
Ni 7.513893314673479 8.880504680959909 11.73333382275084 0.8009523707966271 -0.2314609909916014 -0.001612081682126256
Ni 0.012886136987974037 4.792735165444766 5.660945793887909 0.19335647081039603 0.38994893205958653 0.8566121262527763
Ni 7.833854416665823 9.040448920192818 2.4131309082327688 0.34753832830385956 -0.19958188289481757 1.1727287457122448
P 8.467521919428451 1.7691544958797607 3.8064976894854943 -0.5465257721477879 -1.3948666595307073 -2.3347303348149726
P 1.9021190950082254 2.9424783463169883 1.76728807124804 -0.7776124105191059 1.5821008194934494 -0.38782828617215787
P 4.9253184910589685 1.2973829896254296 8.39257988681801 -0.2966819077736245 -1.1868824115048078 0.6281207594124602
P 8.529142981685844 1.5728349477980936 12.321938427304026 -0.8292067376566299 1.39655536008704 0.6537806260724095
P 6.428752581320563 7.7446182584468835 1.1881799005822218 -1.5931984720685077 0.43407009074851693 -0.5842513117230195
P 1.980879309525776 3.304188898121022 5.990849056661676 0.11724230415463678 0.029680814893884366 0.0238490387034557
P 6.9811997476045695 3.8837700295033413 6.102960717942254 -0.9051931204852733 -0.43465553093834175 -0.9095992199727689
P 2.3665737809650524 8.672828628917722 10.334639198033344 -0.5511123630772057 -0.7398971553565193 -0.2280005432468267
