# total energy = -340894.79347004613 ev
CRYSTAL
PRIMVEC
9.03909483224721 0.00000000000000 0.00000000000000

0.00000000000000 9.03909483224721 0.00000000000000

0.00000000000000 0.00000000000000 13.22962897270828

PRIMCOORD
 96 1
Ni 6.267961550498417 1.8832863989985906 11.51669644541546 0.09365808907679354 0.5972240698336038 -0.4082814118201872
Ni 4.502065877943412 0.3424904047027665 5.9286203664850285 0.5383188108569632 -0.7125676143036309 0.44835359725072466
Ni 2.8176938029701972 1.5136054927007712 4.603395036525475 -0.15150045400655843 1.09646751195566 1.2576774799404986
Ni 3.3338170869620596 4.456770973022429 4.808388151921707 0.09577899207453827 -0.826677286366557 0.15562836013200293
Ni 5.399069506907431 4.661560708781718 2.606686977686931 0.1839590887558961 0.46365294661195633 -0.1821066089281896
Ni 7.648366939643888 6.262953891882128 2.4568214947257605 -1.4195554205266392 -1.2185913125723142 -0.06178386607601618
Ni 4.954888379823592 4.566379038692324 11.417553843907912 -0.17053381648892565 -0.20699643019133382 0.12402358874252833
Ni 5.697892947694256 7.86080374975224 12.402657915957713 -1.070694259646298 0.1056420009115471 0.5260155680095779
Ni 1.9252187605887805 6.777929210812133 0.34388152141945766 0.31164289995883104 -1.1492607444972918 -0.2978959826863838
Ni 2.614287048742122 1.362507981094474 0.5704898246300076 0.23530324755582702 -0.26350619235260425 0.6990891202012219
Ni 0.349888000030512 9.0824826311323 5.050900742741211 0.8637893607275059 0.7741997852931312 -1.210533218154528
Ni 8.720964027597134 2.287026615163156 1.4020368473307445 0.7335172199721044 0.5484199038467071 0.24818833104861127
Ni 6.759317714258091 1.007524643226413 4.83102385355873 -0.16724383288374423 -1.8839426742014589 -0.09140374582497807
Ni 0.7419930931429343 7.441037218196554 2.5070806706071513 0.7949673568577856 -0.1508427658179015 0.613360313273834
Ni 7.532277842876739 3.943594433992499 3.7828937878844946 0.7744167863999437 -0.05082299618913828 -0.07485226922420012
Ni 7.52656513485238 3.8997367451725804 12.487234919822141 1.7973767160847562 -1.3723533089195397 0.21050958555091487
Ni 8.009695722184576 8.82592599844975 6.967913812911459 -0.9056086107561371 0.533707280226881 0.26099653855687305
Ni 6.733827466427884 0.8397400583863045 0.4194338928605964 0.9248060096201943 -0.7118196803940128 -0.11519004961129839
Ni 1.9054592989728816 6.180887948601824 9.304186321409281 0.4123735796116898 1.1049994606860711 -0.35594146476589017
Ni 9.330605788202943 4.867362823178236 1.2870803491639937 0.09768546506863175 -0.15419291323705703 -0.18534542758046144
Ni 5.891844808578219 2.182832967383437 6.846782708967114 1.2045512895394805 -0.02939413689140099 0.9987211117421059
Ni 3.610332041349966 4.562085468579079 0.5853148442989169 -0.7412061039759299 0.2299887773214491 -0.175465192352272
Ni 6.034563079142458 5.714271787789412 4.738946208683838 0.5728885784120328 -0.20897232297078203 1.1209048190624178
Ni 5.392407693910671 2.8232347681900265 9.337538774048962 -0.9779586823837739 -0.45166389257088024 -0.3583780992318409
P 0.32683830784362167 5.653800242404982 12.408108490227788 -0.34582571648812704 -0.6699544076187945 -0.20276208039501206
P 4.0373388879808285 6.270176128767353 12.445667737668952 -0.4996103385431719 -0.3336942233319156 0.8289378002659594
P 2.536406206435359 8.439893369341702 1.6252202374551716 -0.16682191485497722 0.05884535227298253 -0.1592685279877515
P 6.275192826478618 7.8139089250206375 5.879075279106681 -0.4475365006660679 0.9508232596195626 -0.8743244559308748
P 4.655079677684463 1.0813650100792391 12.86368430043743 0.3679608578242695 -0.012993326935874398 -1.2829683932968035
P 4.027097593373869 5.87552924214789 8.213165750077478 -0.6947293005706293 1.437142794591099 0.03884962587734599
P 4.785974812021075 1.1723344619101663 3.674158898789209 0.07305018301845484 -1.5032839091945467 -0.08547169661125924
P 0.25168636830988655 5.547735501965385 3.585983431215132 1.2143662187473732 -0.04967242752446284 0.9619895606490271
Ni 1.4019003569966184 0.905581730095531 2.8361281332627244 -0.4873551753249025 -0.011705461362386293 -0.8218032461037074
Ni 2.005838448673045 6.606358149086892 4.78167762626984 -1.318164224471646 -0.38516513751769793 -0.6887975084672268
Ni 5.941496557277273 5.618240442772344 9.217201302643444 0.7006425807312708 -0.4006660613667745 -0.11522450239365963
Ni 8.568510651744548 2.331191633212233 10.228394914520312 0.002475201013369931 -0.2175991454078446 0.5712955228933
Ni 2.2845860595198384 5.19548197077985 7.073155091798809 -0.24403419967092166 -0.3504884120711189 -0.8283040233367024
Ni 0.520791072637082 0.030612702952682886 9.01276409158819 -0.26229211743984504 -0.027067031420121124 0.5487883429297195
Ni 1.5282669047506285 0.9164738395407086 11.526473130540692 -1.116811879939967 0.7032751332581114 -0.372222718424417
Ni 4.202672974173146 6.76860990389265 1.5781753637469802 0.06100842136257235 0.5520477304072815 -0.1881132201335857
Ni 5.629656819726086 7.874949933388508 8.050970037660568 -1.0241799181348428 0.541993431495073 0.08467876839631867
Ni 5.312131491435465 2.891299153353667 4.62536907641031 -0.2584146367623098 2.293742322438385 0.5676080467393837
Ni 0.8302978197751573 7.332785016772947 6.823181631986733 -0.29530148248633015 0.19740081608309876 0.1874881849550771
Ni 4.887194597553935 4.600049667475134 6.788784259967913 0.9516498692859159 -0.36824085095853354 -0.2016863308323301
Ni 8.171423209481768 7.1817327006415255 9.039051587595214 -0.4799506553307154 -0.12177901568272576 0.8814207006560241
Ni 4.654103455427135 0.27550257575067816 10.363774343874145 0.020634388420899943 0.1478335466779325 0.07463218279359406
Ni 8.113979760914047 7.193347937684723 4.748286305521765 -0.20810637542606095 -0.3488897001254314 -0.0954357498025066
Ni 7.210567413612576 6.292493654261249 7.026930967914371 0.5832313550989375 -1.9140155823274392 -0.3071285570282452
Ni 2.2908863087175884 5.314779946263213 2.6553588884906683 0.36477834633122985 -0.41201619627227104 -0.158973622455152
Ni 2.293688428159916 4.946617607921237 11.503427053991793 -0.03905171458582307 1.5164685262056206 0.6477794141836521
Ni 1.0885420514895885 3.1474038312874564 3.8201872859333856 -0.1719003578191491 0.918019325715664 -0.11832730968869944
Ni 3.9776266265743194 2.8839051736639116 2.436050558382131 -1.2668666026389344 -0.9133656289937365 0.35921807863463295
Ni 1.0349582964763 3.288395634711423 8.327627809749083 -0.034560254473372735 0.10132640425532873 -0.28895342878111524
Ni 3.4937005988843013 2.75677934193198 7.2719564271369945 0.4041113396028976 -0.2876871604741819 0.5083796000953696
Ni 4.005828602897102 6.836882188240722 6.024508893801487 1.0086216586852694 0.36588443491121503 0.4771718070339976
Ni 0.6528034391126343 7.377510458710489 11.157551508220795 -0.01894208832014157 0.29947746824089067 0.025109393473118045
P 0.22840979483911747 5.596447184787013 7.8699097340303075 -0.42149122564224184 -0.9811435078696585 0.6433244637360921
P 8.323054027691606 1.7934287558496196 7.895402693589008 0.46375707628998836 -0.4161279044477994 0.26883608920594987
P 1.6236926304043546 3.099948582667388 10.71548372154217 0.5277644323798847 -1.1363453219872042 -2.2427881999880213
P 4.185571006479971 6.166895429580135 3.7886480757457397 -1.4139254759343713 0.08797620820066783 -0.6572441591409777
P 6.8023980409101386 3.942880345489454 10.462916945381693 1.249398270650842 0.23445118396817688 -0.32480746236524705
P 6.276141931451019 7.679642208258257 10.287174341325374 0.8200302133636845 0.11179207967334295 -1.298231747213777
P 2.379614064994653 8.554906813806795 5.737730047069183 0.03717249528523921 0.6010958940841841 -0.08641580569208343
P 7.269457117376338 4.121619409530069 1.4693220625075187 -0.8793247373589438 -0.7326083350045899 0.7794852020617866
Ni 5.428808129376007 3.1192832068194503 0.476062918971047 0.24247971069960825 -0.5879578140403293 -0.6419190987481331
Ni 1.3662592055092033 1.2383379334194498 7.072810702280253 0.25922633403032774 -0.38550940823099417 -0.8219575122933844
Ni 6.92124406164474 0.7074827324369231 9.160751250613504 -0.4914272885117471 -0.2735998291431804 0.19796054524131068
Ni 2.557277476733214 1.3743311173221024 9.257406293183863 0.3982140002818561 0.7762816075228244 0.48352011784952853
Ni 6.52617233756144 2.083764486454685 2.4229800270479176 -0.6271522248516037 0.15289733435408506 0.7536780111906956
Ni 4.1928745952199735 6.818677450960565 10.251652505891633 -0.8268210110332729 0.538930219188717 0.42840363649135893
Ni 8.254076693935465 7.340432091122009 0.2276938985170776 -1.2302669491380296 -1.7821102768439887 -0.41880030907364
Ni 7.3715356169318484 3.8107739724261593 8.245273519339067 1.0050969333614626 0.08690765772683742 -0.7399668322521902
Ni 3.1486693045839917 8.340526598278766 12.148517433362045 0.6369129037827934 -0.027520831128088088 0.7815014611608669
Ni 0.10970116834813987 4.776248745827703 9.946061494696835 -1.0067486100322727 0.45403136436179226 1.4075951628409695
Ni 8.65186014651134 2.3638950788326913 5.625238510102183 -0.33254005512281437 -0.18520170291374555 1.0047804305623083
Ni 3.456477605776217 2.684828145928982 12.040682838126296 0.34535520460961167 0.3483168583410969 -1.225386995337909
Ni 1.1449911996100317 3.176337974303235 12.847491665698763 -0.4354608004484565 0.1329147205845711 0.32722789888128156
Ni 2.90436968468788 8.252937767968582 7.8923999062382295 0.7891057558706861 -0.018638441036793706 0.4266884535724651
Ni 5.757162293446978 7.73574787076964 3.4572594874915765 0.2885428236062579 0.49692019330551834 0.5482188435794946
Ni 3.4256090964357346 8.3597256360062 3.675442450275695 -0.3158255705816109 -0.2589597106325024 -0.06942467045072559
Ni 3.3630224028270965 4.172825882564867 9.404705577081561 -0.11879885000847928 -0.6057609036600213 0.20510409826462742
Ni 7.3157824791245 6.032610634627804 11.446381325602983 0.5597299295428876 0.4196829687889094 -0.9582038683543498
Ni 0.621334733865795 -0.13582053718862544 0.47407702980498434 1.0632779125775687 2.0694053440860745 -0.11354042982301736
Ni 4.756633909731408 0.27821249642425844 1.6571436091792662 -0.7393214853587073 -0.4590822965221384 0.28807899659596187
Ni 6.175636234421202 5.554632331431502 0.3121660488797941 -1.0810465494148995 1.646258585118281 0.2571259998578733
Ni 7.729528973426668 8.851515676324686 11.508798084226088 0.9783358632175344 0.19152224581513466 -0.5063651407685021
Ni 0.031204763673561835 4.718018895997137 5.647874211739207 0.16704817193317037 0.9635587049083599 0.9052774526689635
Ni 7.797376420310902 8.710153270006733 2.546227183125969 0.5615438428231748 1.2954966076708012 0.26318171913364996
P 8.37435993077113 1.6012937530556823 3.482276086745081 0.8193301019728664 -0.22073280594081984 1.1094814077168247
P 1.906453599420159 3.1899327731460128 1.8030129082518782 0.37662264726432554 0.006936836329149343 -0.791672745266914
P 4.5412232373762 1.0657183366770795 8.258648668173945 0.3196881388608107 -0.8852385317402173 -0.4782735247386086
P 8.557184665740559 1.5724319227997055 12.584301241213875 -0.26766572304693254 -0.22467276442517436 -1.066975416033814
P 6.387901301725024 7.676361016782241 1.2855771476696094 -0.7990392129343142 0.059965324810038655 0.06374124691270312
P 1.8632286472485085 3.1847352935352435 6.062834656496552 -1.345957078314198 0.15867537448844288 -1.4658841283898496
P 6.871122280006973 4.052063573695512 6.010617612643521 0.3226469643788185 0.14524136047072406 -0.3425655576796165
P 2.3688665810690797 8.297003355972931 10.101391110570544 -0.30127441224031337 0.3832576360823399 -0.012659340635223358
