# total energy = -340864.72079664987 ev
CRYSTAL
PRIMVEC
9.37223338805060 0.00000000000000 0.00000000000000

0.00000000000000 9.37223338805060 0.00000000000000

0.00000000000000 0.00000000000000 13.71721092328191

PRIMCOORD
 96 1
Ni 5.94044942715155 5.70702458719693 7.144101905802152 -0.4972444094141565 -0.33929357179656405 -1.126161696585983
Ni 9.26443376878912 3.6890328245827426 0.30977292600771245 0.7455201579702515 -0.5050662194514205 -0.05213682990455537
Ni 6.062138502955404 8.389057816143113 0.08043437972611173 -1.073531214874461 0.9945101589845516 0.2789438670639131
Ni 1.9542418324218103 0.467977159562598 10.58832825043827 0.6381511470652688 2.1562476957926155 -0.8667507573486751
Ni 1.5600831931729748 6.734268206534684 8.406606385577428 -0.17292005733291507 -1.2564623765864749 -0.19773094572900785
Ni 4.0709606995121055 9.14464725632385 4.765482542640876 2.326086800207362 0.11305449132553433 1.712488917001425
Ni 9.188237512913787 2.0038771794225196 7.617619929629634 -0.09603661661129911 -0.7512830285959577 -1.3591229262721947
Ni 0.7155128338156069 4.179060037183213 5.626347466631068 -0.3723857263648425 -0.9969413941338636 0.26897415744571096
Ni 3.6906261042258923 7.7286808929903605 8.804913175238369 -0.010484701581407749 0.966831976342993 -0.9148609825923405
Ni 3.5473902643067383 3.0065186866234046 7.017423053045282 -0.7502476453529079 0.9903819957487912 -0.693126989080516
Ni 2.6045436048899404 3.8297569060056373 10.690960764486736 0.4520765546282666 -1.0151905701520387 -0.34291111394449325
Ni 3.162144618826346 8.235878036804067 11.136275864183826 3.3975282224323293 -2.109564947024096 -0.11149974524390475
Ni 4.786568192882982 3.586294404299175 3.251074927943723 0.205683110696549 -1.553199563078067 0.5033417805611461
Ni 3.0250475916499155 1.080880909912728 1.1122872633491663 -0.9654780334182599 -0.383199786261211 -0.7762515256158373
Ni 7.3183364070137635 8.266225327889469 2.6018809534392418 -0.3581855236050605 2.027312785791399 3.2383926204780167
Ni 9.019068703744074 9.283140746246335 4.547625919246467 -0.022089118589555506 0.2624101310749481 -0.5985638716909498
Ni 5.620443896941538 4.5118774101707855 10.49775405161849 1.9635931361452503 -0.11923002400862692 -0.5574226215659497
Ni 3.0707372284755303 3.6561081693687147 4.798705234870505 -1.9283386838183305 0.7435447794114356 -0.15028303665968956
Ni 8.109437238770347 8.68771339913492 6.701721252318414 0.19393599746294987 0.5943436629620151 -0.9839346974615506
Ni 5.966269929603769 3.09779486570949 7.332370388999953 -0.39961756549760213 0.05086773338414466 -0.3300455708357348
Ni 6.138287897664761 7.647564214687652 5.336736088672434 -0.275020620750107 0.07399172099611773 -0.04445051700389119
Ni 7.910567822605686 1.6536274526922499 0.6804953589291358 -1.8536386239012785 0.4927737752373127 0.8401197850247081
Ni 0.34692820728596246 5.59012472255572 2.0549614736751756 1.8195699643523435 0.8431364603638448 0.6074951127423086
Ni 4.082863435669753 6.80277923119012 4.140362086321066 -0.43134729250071513 -0.7941574593619808 -0.210753840351237
P 6.2635759110154945 2.869684081976434 1.5844884884127497 -0.4645775153087547 1.3069290178774589 1.9237037561494805
P 8.173037213231606 0.16346393082391839 13.031789408959142 -0.1087959731594965 -2.7345379048361935 -1.689659063591103
P 3.7938518806356005 0.8414747107330602 9.311955677204358 -1.0872866167873405 -1.0685412178590372 -0.35550257745625874
P 6.826322280975954 0.1861447351558135 4.530767146175304 -0.06912667959433257 0.6433398903550597 0.04984546276721738
P 6.935002697105151 1.057122298763408 7.123251498613241 -0.49856184267399944 1.309934380362686 0.8057125111894318
P 5.9928027217788085 2.8709774501573433 12.065932979825305 2.4725476349074835 -0.6065258068505038 -1.4498759258870515
P 0.27245550509518895 1.8053451636528772 1.718149654899894 2.511932564463009 0.8899256528032415 1.2546649183664198
P 8.420557891911502 4.613472418004564 3.931078244630122 0.6827374183160758 -0.288357189958013 0.13271160343482952
Ni 7.584601552083655 2.7326714048987584 9.14264441009008 -0.8423545878924977 -0.05648430823997369 0.6439554124518716
Ni 2.2569930813198305 5.030967917908945 0.16062414416583398 2.151845710070178 -0.6756769119248686 2.0031868392774728
Ni 0.4471464340633955 9.024485854530782 1.0249764761278843 -0.26716307237890113 1.1944278279522331 -0.49244673091519703
Ni 8.214200061424036 6.448846216814215 5.1403193859349035 1.0213740732549312 -0.03428128978037322 0.7549561065721708
Ni 8.053550612228575 4.361865445651648 6.873117841318579 0.6457199605514621 0.9731237228889755 1.0050195431563078
Ni 5.955791772891761 0.7462415747920468 9.208967018294484 0.49633526733632594 0.6615026773070156 -1.191947741842857
Ni 1.7070023207377634 9.307058685359971 7.339516716811139 0.9822182289910761 0.5296523934312168 -1.8075510855145966
Ni 0.0251241455258311 8.641039677823828 11.316835685578742 -0.5161116786323047 -0.3390662862771064 0.7787385537037491
Ni 7.14931755357517 7.3152529422926085 11.927636306799915 1.7173465022040422 0.28386033052892407 0.6517749084962904
Ni 6.315507455148979 5.405754151143719 3.902217389729445 -0.6511100212187819 0.28123394864967044 0.48056617742752716
Ni 0.05573292191737503 1.2798159317097553 10.028858413202782 -1.9761928271871323 1.263484830650895 -1.061494852535217
Ni 0.8320153157693488 6.910700496430521 13.426721257446564 0.6228088602812435 3.6781623327144723 2.113733733689805
Ni 4.451604578493754 2.9148957349091043 9.161820936430365 0.07698577062743515 -0.36957576771987316 0.2274071326372019
Ni 1.9931459724142468 9.15285733260267 12.914479040503991 -0.565429036810194 -0.10086926211325209 0.7782415594626725
Ni 4.569779066849484 4.247908462233667 12.560671614052898 -2.4516923887250295 1.494963305143993 1.021431665965744
Ni 7.5391555933211105 4.983919307270055 1.8132234628765924 -0.7851331443761833 -0.02503894524649881 1.1371199953696995
Ni 7.532313863088762 2.685707144358623 5.61182050517882 0.28429716095602653 -2.0583174617030293 -0.8509132760957863
Ni 0.20540092547825636 2.7088190714174885 3.722275198502081 1.3794228141718112 -0.23140391250142084 0.678820856870489
Ni 5.443261828390101 7.964027040749955 10.348812396130223 0.5049006404078337 -0.30183337006757693 -0.06498771772529453
Ni 6.041950712653378 8.117413009219291 7.863459229674348 -0.19261727865152634 0.008667960087643136 -0.26521211930011745
Ni 2.32851259283086 7.406360421181184 2.139473712064431 -1.0325308612026993 0.4764842940486697 0.37577624010363025
Ni 5.067810166598482 1.8283821128461824 0.309704508705389 -0.1870197299590908 -0.5053642103078135 -1.8703888467764238
Ni 5.784439233387612 0.8164564714423326 2.777872748374914 -1.9450084311645275 0.03376064139021283 -0.8710378147598032
Ni 3.6110464721671645 7.222964562021463 0.14272599043334636 0.9181383677920317 -0.12382072870310289 -1.073361779176132
P 2.6234755159438365 3.0110173585570035 12.76087376177789 1.8084738544391823 0.5689686745323362 2.647974774932969
P 4.297206408839357 7.382376876435185 6.707523601889437 0.0756606240581084 0.4324101865475908 -0.8352215763921422
P 0.6764709219952036 7.439772432521353 6.465689994312265 -0.01530963377387686 -0.33704668474391636 -0.2605972462359254
P 4.929785288335746 4.367470041102257 5.519311877427593 0.6063702551092459 -0.19373956518142763 0.41841644337166006
P 0.11014061006097735 7.827829747960244 2.774977665540979 0.7252776056711315 -0.6492146039682819 0.9660830139921105
P 2.2543969727248157 4.280158316657656 8.659647309609179 1.642278003203978 1.0956344745314035 -2.359818645242168
P 6.00807008965346 6.772010189610941 2.016704017773194 -0.6866560366441915 -0.702498660103403 -0.6960647315526013
P 8.493342654903856 5.638504190308299 13.421755848299854 -1.1183463143066223 -1.4135554941894624 -1.1044497588301883
Ni 0.32710405963190275 3.928399660382991 9.259720472715356 -0.8466215906989677 0.06521603168601672 0.7703274468219184
Ni 4.942419058682604 4.909972387361521 1.5049154169172585 -0.6626187931893298 1.5991847715589296 -1.3608553355822692
Ni 4.21190971453168 1.9144379580426538 11.318193722168697 -1.6702199810298848 0.4286316933417651 0.1329329754170162
Ni 8.104085693616005 4.32800356711812 11.373624858177193 -0.44642809809323764 1.0652201239056043 -0.15605104949171833
Ni 0.9652369245196477 5.1665841322405655 12.22898921850524 -1.375746907982121 -3.0347134275853738 -3.854299354322788
Ni 2.1720806485731483 3.235051220850235 1.8734962945536247 -0.7047666302019733 0.6508709086247823 -0.6460470048735777
Ni 4.318668822855902 0.8008338959295904 7.091564915404272 0.43203840503046875 -1.1159132793850974 0.9451660613337851
Ni 0.9181780044242432 2.788586148140116 11.781040521280353 -1.2689060016664664 -0.5406909106335656 -1.0117985137513543
Ni 0.11180793034636749 8.547036178877999 8.70189639962891 -0.5071873795594813 0.3865429917018311 0.9996112276565429
Ni 6.7404726249097715 4.128946706289558 13.631189645721918 0.30593685071298926 -0.46452583613521287 -1.6039883635951602
Ni 1.9648793170981331 2.0616663693028774 8.583969338229528 0.3854137631933943 -0.2452667865264421 0.7739889548339057
Ni 8.029810745545646 7.322713239915827 0.8396986725426082 0.9330024293880576 -0.7148042169436335 -1.459248882461519
Ni 3.0390497080432426 5.591483696368995 6.633066832495095 -0.2282612531073811 -0.2111024819399074 -0.5631595240497268
Ni 4.238995468465225 5.238459788613006 8.709345450572295 -0.10382654496936314 0.004904636390468973 -1.46317778520228
Ni 3.6166698120841634 5.774129776873115 10.734855618655507 -0.18844257844854642 2.81749943343109 1.8951236305189425
Ni 4.990058120012778 2.015564354216682 5.077507616285346 0.9606225050981715 0.16608657935084944 0.03187499433172575
Ni 1.9746639285537109 8.667244441837044 4.314172025368943 -1.530457384285545 -0.6124545136301129 0.15447984834985654
Ni 6.23570288949357 0.786635899862488 11.444502371714364 0.9090600596398474 -1.3214146130881437 1.7821619560175308
Ni 7.366425335537298 2.4678027225749197 3.3408262446889823 -0.4304841731694716 0.34512020578067015 -0.4926377638800806
Ni 8.239158318422316 2.118030979737595 11.954219709034207 -1.9769415324276984 -1.1629904353785583 0.26659048770488275
Ni 2.4702113865060342 1.7215855155891802 3.552373480696519 0.4328027940003191 -1.393999683544722 1.2536501039486603
Ni 1.4745147041026432 6.124079592141145 4.677705955429802 0.06985198779613132 1.0848841779934348 -0.4255281147157769
Ni 8.580626262648872 6.525473595416519 10.223354745358659 1.4138030914238942 -0.72839378270261 -0.6514308948933104
Ni 8.045659191878388 6.625644023804657 7.718742576910384 1.0501609155796365 0.14643152412408328 0.4729081466616371
P 7.633515237128351 4.901415538454487 8.953264380035353 -0.8436905330951017 -0.344436035229452 1.2456483166901064
P 7.567375387471249 8.324773668658622 9.50874258315309 -1.172149476170007 0.04582374320233398 1.0261990054474004
P 4.110764573891262 0.16046106730824106 12.624799245243036 0.8947421003552785 -0.6747736833843089 1.6343237813539078
P 2.764321436398266 5.289763393122424 2.3292511248066257 0.5412899776701452 -0.05676275871234095 0.7753881491742775
P 1.451805783071163 1.6604223217586234 5.679130946761976 -0.12064361652670189 0.49178030097579173 -0.18164509591073877
P 5.185890932622261 6.718185454372067 12.18274849436776 -1.6997812396267695 -0.754774586688984 0.41622380659571545
P 1.5857162509612945 6.989286671770579 11.407657311354871 -1.1102594235334298 -0.0007242797605342365 -0.8978413081058925
P 3.529948538330847 9.26795772847044 2.7664461216635723 0.15748083995970943 -0.7169909401823071 -0.4919479369019076
