# total energy = -381174.84374914033 ev
CRYSTAL
PRIMVEC
9.21934665367342 0.00000000000000 0.00000000000000
0.00000000000000 9.21934665367342 0.00000000000000
0.00000000000000 0.00000000000000 13.49344573349208
PRIMCOORD
 96 1
Ni 1.0864815452741645 3.9874411121396913 10.320461904983096 -1.5351488762239431 0.4651004776917603 -0.8204945545946127
Ni 4.224507387809876 7.081564426685148 7.740015684681957 1.3238499620025135 1.0935115146511296 -0.013602678385099154
Ni 0.146458538356403 7.731131922403207 4.106689671262487 1.2421865833937509 0.5237306286301432 -0.40456231109738716
Ni 4.4624771594361805 2.2023082704292576 6.869539739953882 -1.1579500447411735 0.12338595515852943 -0.03933453593356452
Ni 0.7411266695897138 1.050516874612681 12.57151931385294 0.07249636739751386 0.47261941177662475 1.258538542389213
Ni 7.732367314833003 4.480344252935784 7.839367972142474 -0.08996135695149668 0.3918518055092542 -1.0455432143019672
Ni 4.500811202145857 3.248178594410463 4.812180800860446 -0.12295246716553665 0.7686811694677471 -1.6091521671842868
Ni 6.779787557994468 3.1228047014790308 1.8683162392949935 -1.7844011297606948 -1.1187479206204154 -1.2934885761018369
Ni 5.469884369856834 7.669463713724748 5.762889030361305 -3.23600020898644 0.7456137461253223 -1.315339096318025
Ni 0.1954980862114564 6.081136261558199 2.227565592076066 -0.17791751054750649 -0.05626216492683859 2.2619634873648917
Ni 5.64771634432219 4.86944677158944 3.0351748130818503 -0.2682689038485703 -0.03346573585761333 -1.4141265362015838
Ni 0.5061872971550088 3.077168936348463 7.956302475296022 2.24270592468686 0.11989722527898061 -0.6356258095402537
Ni -0.1966680212811673 7.705216339416939 7.015187897753724 -0.9014200265960863 1.073783440094583 0.8441651587386753
Ni 2.067346257147161 7.512919210307166 8.317144009216095 -0.2466793506032526 0.5326081336254311 0.005182058421571721
Ni 6.821062572234781 4.334715455763573 10.296092406403373 1.294230596474184 0.06572331033973841 1.093474233655291
Ni 1.3206529461461671 8.064024085501092 11.959294781096773 0.8711864245225254 0.4053781221304632 0.9654332962232535
Ni 6.377907025104252 3.692329830962022 12.840011575907077 1.3834481332811206 0.45192845908617657 0.11954087038082639
Ni 5.808086876533549 0.7776020920468002 2.483131408415139 1.4101004457613264 1.0553535155241696 1.2932301802341275
Ni 1.9446090973121624 4.1797105832099914 4.96827355629997 0.962988948447819 -0.9658757830773106 -0.040174772446672745
Ni 2.4313998113847064 2.167237876377403 1.419308251011963 -0.38074875361755717 1.7878757185728564 -1.2381550936368548
Ni 4.6905914496635805 5.033163926577039 11.177066420980777 1.7076367311154463 1.4613389322213284 -0.652253905015238
Ni 5.967821273837026 6.057958824479765 12.986550322577953 -0.018354077027155486 -0.2635373027008558 -1.1612569976272193
Ni 7.98350231324849 2.4844940278265115 8.95066154462793 -2.3800763670499396 -0.9274064233575189 1.4777849935924936
Ni 4.905531293755307 2.7715568195175178 11.328233279590146 -0.056889514098192345 -1.5343178956822157 -0.2509782350889226
P 7.528868679736637 4.817615605616905 5.4716461869712685 -0.9842583993495564 -0.5049047541728917 0.3766925812703126
Ni 2.582357390828729 2.679049896826586 12.21152780367934 1.0291454896702341 -2.1594386919260873 -0.42816246701483035
P 5.253478649673034 0.7864803227176559 12.28493224044087 -0.2593510325336501 0.047730473306743605 0.055768256009555574
Ni 7.325775695885875 8.579726670169485 4.914420587641952 0.2099542272680771 -0.12242770501031819 -0.5938777790691901
P 8.540157235030012 4.295072265852172 11.646678726736596 -0.5140121157907985 -0.2558144801353014 0.20842287822521524
P 0.7550488047258087 3.812015387108492 1.7520427632848514 -0.45226218827651143 0.6731767712108342 0.40679814240644135
P 4.187519369687888 2.7963292035388987 2.6047345886317412 0.7300290043131878 -0.1790498243797368 0.3312779005809391
Ni 6.257834256405159 0.9678930913601262 10.13260573507805 0.7447166882323497 0.14263529030644467 0.613634135760511
Ni 3.0099322423894272 1.5799286275132276 4.509967857080741 0.604394619440114 -0.4727004015262053 -1.5326641621288766
Ni 1.1252396779224283 6.54530269934177 10.251901312867949 0.16863788501779345 -0.9608045392019905 -0.0014413604322168726
Ni 3.4170217060470716 -0.08919441149670727 6.6551696514753 1.3395547743322802 0.5557704306745074 0.7333601255689499
Ni 1.1505560033867794 2.4923857884228284 3.4793122206136733 -1.2271754546968996 0.7377523410993746 -0.095276598516823
Ni 7.240754882545653 6.890216890263949 1.1958202288537587 -0.24977470169912466 0.5483211734853137 0.8883279692988184
Ni 0.8555737930599842 3.812909663718121 13.076147619516316 -0.19377453218442112 -0.8847050278342504 -0.3683256973628559
Ni 6.944546499135552 0.8752930532696348 13.867483772030795 -0.5326862951615342 0.8167433150822966 -0.5397671132677155
Ni 3.2685441308091336 8.530624430758293 4.471376594603965 0.34927150894488235 -0.7554577287989377 -0.8722287497441107
Ni 2.1234459805450405 0.9607665365225649 8.548583717722806 0.07073310484950399 -0.3312303351724553 -1.903894691843353
Ni 8.872099805439321 8.610915719348618 0.7309466671943253 -1.2588239348401158 0.20038740951524844 -0.3031384620322457
Ni 1.8456855094634779 1.6321101286524218 6.342877196176958 -0.8918256980394319 1.0491090772763547 0.9722271792166352
Ni 4.958570194118167 7.4877135170007065 3.2960030323979987 1.888759893084444 0.12156407145844224 -0.9218137597610898
Ni 3.064022148252264 0.5407663000388915 10.594864690072628 -0.13094705533523898 -0.048741688180077354 1.99567176184735
Ni 4.093260771163662 5.6047726283670025 4.479513589816943 -0.45446716634763024 0.7417437216469549 0.5573074361443241
Ni 2.739095500522623 7.145509813946887 2.424987755900199 0.030561931947257044 0.35951118439501956 -0.9728833247433956
Ni 6.442589960085274 8.2181807781775 8.624753958431645 -0.4728502968405082 0.5217272250468693 0.02877810057395689
Ni 8.24043628060683 0.9557143346454839 6.388269570560163 0.011884667252727918 0.2389974085779626 0.7585253119806679
Ni 8.534256853275757 9.119915839118038 10.979144568576832 -0.9673425974308244 -0.9315158175402021 1.1283777304006954
Ni 1.8610357213710322 7.673501787487817 5.986596472965996 -0.9063300623031939 -0.660245922081779 -0.4898918257038272
Ni 3.6263193100862923 0.40675295751072144 2.366790631175612 0.125430496392384 -0.1473774329771204 -0.04038894534000786
Ni 0.7866462709544944 5.509721166044548 7.844225645808595 0.4353625843076953 -0.5985800696408659 1.2420433729476674
Ni 8.698785310754566 2.0406378103626657 1.1224913907334542 1.82907250452614 0.43571405410984315 0.46206091953448813
Ni 3.1545745694870986 2.886208612479889 9.7080622046436 -0.35501072542150475 -0.23738661244741702 -0.4738059758855582
Ni 2.7238006046940146 4.573302923604777 2.5515030039272197 -0.044303707013381766 -0.19502974474776089 -0.1747188011045507
P 6.323706487083523 1.3588486986584785 7.649866148888779 0.7210057177686551 -0.2765414282700076 0.4351026457780894
Ni 7.9539174303587945 3.9687258387629134 3.4778408129137053 1.5821476135709849 0.4262706493087562 0.8011398042170847
P 7.499210042075013 8.580279830958947 2.5797981002428205 0.12740407517898703 -0.024970553902408606 0.5767267212112003
Ni 5.4796568771373195 3.1753641958243572 8.793718765441936 -0.13969523384151425 -0.35472379030870516 0.20199846275611022
P 2.003539160082786 6.186550269336563 4.200590559142862 -0.9530814595261199 0.4723011092052576 0.6086153423896808
P 3.3839887875697334 6.726518173969332 10.307062506793041 -0.5359024881059867 -0.20512055332485962 0.30087897657410767
P 1.0583717578230332 8.784681962011433 9.801894869359941 1.3678222538184057 -1.0388748011428561 0.2879015904778332
Ni 5.302046166987747 4.759081974745396 6.454791765166145 0.5572092200035629 -0.09314052601042669 0.2739194172661283
Ni 6.734197889596356 8.353843461792913 12.346462158921964 0.7901514235263811 -0.7134173638984359 0.43331547197067954
Ni 8.076202842215734 6.578547662788402 9.20568710726263 2.098163132945057 -0.666807891570013 -1.9321068926115113
Ni 2.619317750911243 4.808073581998696 11.681990667666517 -1.3193279057624439 2.4346194924031423 0.16382426567923397
Ni 7.438039678107071 6.398161929345031 3.6688675160770154 -0.5542712204211615 -0.18295661563331073 0.6572631853043713
Ni 6.846590942668426 6.621177920962896 6.897525066227384 2.2924688550426002 -1.1948726287991356 0.21696999646427795
Ni 0.9061999904461427 1.6852965385591376 10.31016666075657 -0.9597892105635986 0.8610004851284591 0.8548879444728179
Ni 7.933266094218902 2.1537407531145445 11.424346810628366 -0.033550839372251895 0.7438078032648351 0.8617473905968127
Ni 3.457042889164605 6.955535960152853 12.865015365525382 0.25074786424567136 0.14499839122198255 0.14843004261135084
Ni 4.890171862501262 8.20342060444537 10.90810120645165 -0.17119227600853096 -0.576932152353787 -0.6792862265426818
Ni 6.661678510097962 2.6691575380417176 5.488688148959926 0.7886740676499062 0.8318585734571802 0.5104547374568436
Ni 0.17089626010015957 5.86573545014192 5.701951915859586 -0.1012688115445159 -0.8289277729636304 -1.584741085329774
Ni 3.2180958668102524 0.4740993616930007 13.303282815146371 -0.02556473584298178 -0.7635459051237109 -0.4418916436754648
Ni 8.119856447850731 1.3886917232499225 3.6386557176259307 -0.07770028019595651 -0.34254473174401007 -0.018668780054096883
Ni 5.324762636741629 0.7892986769399619 4.98831088396356 -0.3964520232854269 -0.4288278685129711 -0.20438136116598996
Ni 4.8420376544716275 2.368726693938727 0.4784047965043087 -0.17191115645242652 -1.9631527061737224 0.4492516835849618
Ni 1.3506066028955033 0.35209421796938906 2.4699080997430634 -1.4553963414846482 -1.0884608396010995 0.4808659680561332
Ni 9.220913779927203 3.1021164879531735 5.602033560524519 -1.3435770081177958 0.44048936401129946 -0.06986381487067322
Ni 4.461232547659892 0.5639796925686401 8.741175865920294 0.34735680842067274 -0.21674116828292353 -0.7816806670512085
Ni 8.173466947696035 4.806321906165401 0.7236652273357148 -0.4866951731434005 -1.040530334468408 -0.517078156310632
Ni 5.759113707973231 5.611797770393162 8.700911292055396 1.0905907414599088 0.8281644124350446 0.6815747654665423
Ni 8.85263776499677 6.3681068597842945 12.248877220183775 -1.1375192876906473 -0.032099708748022135 0.03428977442080546
Ni 5.248647712111738 8.432392293896436 0.9356696315047002 -0.5154573328777574 -0.5945642636132534 -1.22169771941178
Ni 2.94754492468467 5.6007622126434065 6.517104406164325 -0.3975375430401218 -0.2958663538508646 0.8988252692857166
Ni 8.638693610326074 0.27291570450053 8.736088630526547 -0.6708404097681737 -0.09804361973899889 -1.6396328522716472
P 2.5858146457628624 3.5421835540092093 7.390386719964268 0.317421454313821 0.23927765882254273 0.1490558491208078
Ni 3.8640125013178657 4.350655705846553 0.1182648548522033 0.19022126761552402 1.650138379788661 0.5235833044190016
P 1.67685161717336 8.227400124668524 0.7200521654458827 1.780490996073011 -0.26198589905333586 -0.5490737353806222
Ni 3.6136795860470983 5.083077468479442 8.882843109905311 -1.646723954790474 -0.5483198879337331 -0.26830438507219595
P 0.65169255508424 0.5077868537712014 4.920654709739183 -0.09495341084944937 0.2741266481809279 -0.6128751461072993
P 4.7554956489603875 6.321475405232697 1.2294468732451187 -0.40421546928092966 -0.6935766750234248 0.9800515603570605
P 6.8413912312474885 6.918594038763321 10.6853783900522 -1.8578272080613294 0.2967425858082309 1.9275902356880803
Ni 1.4050468439249986 5.95894304316617 0.43252564062637827 1.3222005993245487 0.49750897592945287 -1.3692011364438033
