# total energy = -340873.03530437907 ev
CRYSTAL
PRIMVEC
9.22888023460513 0.00000000000000 0.00000000000000

0.00000000000000 9.22888023460513 0.00000000000000

0.00000000000000 0.00000000000000 13.50739909285316

PRIMCOORD
 96 1
Ni 1.5285701899684019 0.470081316310619 4.244929556014654 2.392109901175706 0.4730194754285208 -0.08916097253738837
Ni 0.06647654659124547 9.23497120850685 2.429035717522712 0.8774262347846502 -0.2990997731864978 1.6069888409843809
Ni 5.863153702177007 5.033338943704706 1.6288844256208572 -1.4043848834337878 -0.5625486299386053 -0.25468885117129036
Ni 3.6399072457377484 1.3362403276922215 6.45391646973784 -0.17717703283705613 0.17040628977212588 -0.2699396066827738
Ni 4.67865462187178 7.4516562398239845 8.669251007226553 -0.09155981178686812 -2.2059738593731493 -0.6081512582690687
Ni 1.3607706911245672 3.480921327434881 9.898965140038964 -0.5924598156757409 -0.16177586779063752 0.7913176759203404
Ni 8.806972662781314 2.5916541230516796 1.3579125069428526 0.14570107371596197 0.15495267422121703 0.7548422067021258
Ni 8.926994249100975 8.8622351971052 5.150721993190165 -0.029388480464446157 -1.7167302087762821 -1.1298453160851576
Ni 5.212508422890394 4.050527810145335 6.344789576432433 0.6004924561722303 -1.420968755934398 0.71162993298071
Ni 4.732265186649243 8.357406224150816 6.565959689169893 0.5166742360039941 0.26951023245483907 -1.1139440714738686
Ni 3.1049367502212726 2.5429440936325967 8.55126438897944 1.0381055270769992 1.0201106331614753 -0.9961170984603555
Ni 2.0501680381509915 5.207847838415852 12.233785988798775 1.4432357948627144 -0.34931084682325003 -1.5677273243805967
Ni 0.6423429787058227 -0.06036702793352802 11.287646733393947 -1.128526597273734 0.5420847056572986 -0.4847671028827522
Ni 6.975132242282319 7.469108052183114 6.59890494552083 1.0181558234279497 -1.1186792721660088 0.9051954344781186
Ni 0.6186330627185994 5.5991892721950824 9.8903204480047 -1.0801865154074495 0.8729059783167933 0.1690063241008057
Ni 9.457571797667189 3.951123542075434 12.859705252393914 -1.201611490184866 -0.20453279914218966 0.37604903414904267
Ni 1.9838216187698274 1.9598265303860427 1.2995361484571637 -0.2108008915390886 2.3342451676484384 0.4263526674996012
Ni 8.232345669270561 7.917336303192208 0.821513380779527 -0.4831326526031228 -0.8519417173603006 -0.008881618760345995
Ni 0.9174577416820894 3.3582787391532993 7.586767968073001 -1.762499958812229 -1.0832561554717088 -0.07793553613521417
Ni 1.4710834955289425 0.9060194676271422 7.070975085503258 -1.0719024210217862 -0.4317856655897144 0.6801609158381512
Ni 1.47464584326592 5.521454414711768 5.553891159766571 -2.067762152055697 -0.3244621632106864 -0.889858547010732
Ni 7.718186298486946 6.792548077442015 9.11173981767185 -1.1581948137621279 -0.8592405650145589 -0.9513734756960776
Ni 5.301724007277334 1.078293127566538 2.94270872632255 0.9576060868693508 -0.2930715647145469 0.5579844076066908
Ni 7.0452348158835605 0.7517605817358801 11.759676266303725 0.9116933834976363 -1.6040248732600504 -0.5326302451126183
P 3.777279126734915 7.057527684240177 11.538493233134059 0.4235784471885737 0.3235100837100622 0.49593237547095226
P 7.141593553504751 3.0857591372745405 5.0029113258580376 0.3853913945958911 0.2293866249610759 2.0901975982410774
P -0.09465785500998562 6.217893397290818 12.127267177023082 0.5219097733713206 -0.8643938270807243 0.02611906568455502
P 8.429760644508073 1.8355227436778914 12.823505892902931 2.264919484669422 0.9453840908818621 0.918093116376393
P 3.8313326777594634 9.310186581709866 4.477972623062013 0.6453764611691143 -0.7224666185848977 0.3360521820411309
P 2.0036360244467444 7.128147075129684 8.090256907629952 1.3220211363238912 0.08966439453636817 0.6011306039768616
P 1.7969275669005886 7.926842049744247 1.292328393061881 -0.7490037456434778 0.12354999154021949 0.8515509096797851
P 7.160983430694878 9.079021591772545 2.5300033578896186 0.3926529612543109 0.15239905456142785 0.37727930701171797
Ni 3.6587618478793145 2.1965657639325196 4.200017210776313 -0.25934023390037275 0.692447189404672 -1.1394285888982183
Ni 8.785044843550594 4.341043728311932 4.1920757594092946 2.496997283309416 -1.7543127950157467 0.888855045446882
Ni 4.176686601763156 8.407971258479568 -0.10446261727880587 -0.04897951522249629 -0.7169179208525266 0.032910891795407834
Ni 5.071786458399647 1.2892930143813321 12.576401704062672 -1.1217363138247778 1.2856680516161536 -0.014277592964936702
Ni 2.0286370607666186 7.2787808568989645 10.358580906262194 1.3069475298202202 0.2179475298861988 -0.8045506296708467
Ni 5.729860986205084 3.7374288222575376 3.6427294372868873 -2.1049410750988393 -0.6562843663308697 0.2896286004712689
Ni 7.494182919544168 2.534711932540929 7.7593794050258 -1.9170867650535952 0.04534371824212191 -1.3901299161766705
Ni 0.5687712690570952 0.33174686311405704 0.30266666176893975 0.7309867402407668 0.8017375857020838 -2.3103742745681113
Ni 1.7310333626466574 4.86816967570294 3.0546033607842253 0.6321923583786725 -1.081251466336854 -0.9024767499953749
Ni 1.6989630041337147 7.456215306616904 12.65654068482444 -0.09591886008651222 0.8606839823293049 1.1317664443672704
Ni 0.3537485133859579 8.297999922640654 9.064964161531707 0.07674074449616461 0.8691871347043096 -0.8890015983270754
Ni 3.485858778313852 4.6872651670495 4.714528201893553 0.49051531822043903 -0.5686262035912529 -0.9071487015497474
Ni 3.3292077666883295 6.296015867740333 1.2487874594134742 -0.2563392422905198 -0.020642101730383805 -0.2168357848792588
Ni 9.096501090772117 1.9031058329988353 5.456422187863623 -1.4240584506033152 1.5059992512431806 1.0507980349430033
Ni 6.681699997989077 1.3851903079951418 0.9920603172433049 0.5851296005629149 -3.2877578011747057 0.9741799320676319
Ni 0.481994877693168 5.957039099918638 1.0000349925788543 0.9333305021514376 0.45479549622132637 0.36005754381679284
Ni 0.27251314166265544 7.133010694967473 6.965792615572938 -1.5620428724013098 0.003655080254084028 -0.9905174928853907
Ni 7.5965588870216 4.910050333812792 10.653785095543777 0.01980495054106912 0.12750589086417394 0.46136080814367
Ni 1.5697217665465921 2.118803219808763 11.857807871801272 0.2845144191731552 -0.04139887466176096 1.58434487833262
Ni 5.794629267081007 7.446192742776599 2.2133761691213905 -0.31646191861402917 0.3756443425114563 -1.0513449085854085
Ni 5.78137659518904 1.2069437168242134 5.532913915191055 1.3893323599760397 0.5738005487033407 -0.43154758143697936
Ni 2.9068757533734266 5.257203889445267 8.883978438732967 0.5279202412314585 -0.6620495509494211 0.504147307181577
Ni 5.368633388347504 6.078638824743539 5.300708830461098 0.1483901905123509 1.3812310710251439 -0.602507172609414
Ni 7.458688646496462 5.5374388351274275 13.680428641032805 1.6781757455418518 0.5870515001759761 -1.4702472904545518
P 8.24219288438806 6.852545027281623 4.913343198249458 0.46982590819188763 -1.2945329582059513 1.4532852086789165
P 7.783212988007001 8.624794568667506 10.199382723715932 0.6733747461542532 1.4397843459790043 -0.5209232410883352
P 5.380510957097477 1.6567501063385492 7.726948197299086 -0.8442736592920814 0.630089710213373 0.2731722546874586
P 8.601519332935233 4.162584872897608 8.712204984097571 -0.8475795837368628 0.6160062355371133 2.2108147324052183
P 4.500048104375095 5.927082154959498 3.072811941315459 0.4597243009815115 -1.3362172253186149 1.2665454718540896
P 6.46036376540896 8.355865001166165 13.35606211337279 -2.5448398567139914 0.30715478228049037 -0.06584260952642208
P 2.641674653451722 4.05896300660025 6.909223271820152 3.511415494071804 2.0113223239004134 -0.1921169419763401
P 8.186773459101666 4.6922303045689135 2.0883516068737107 0.39512919070894525 -0.5935453354304359 -1.7824578899913948
Ni 5.635338795733269 8.327273930468872 10.530341440465381 -1.3696634207922025 0.9420496271919905 -0.031012389221114333
Ni 8.277216484548237 2.603716269404605 10.75026842304696 -0.3932124333022067 0.5331298104568559 0.6364243941821491
Ni 5.360890357903659 3.871432162000826 8.865433004076348 0.3441179897684009 0.21591250173404106 -0.03617105060391835
Ni 5.346816315678555 6.087212454400669 12.810646371305252 -1.0122962793233792 0.10799841695886563 0.9723932724808544
Ni 5.652236875283541 1.5998817468689799 9.885024916575999 -0.19654823827481635 0.2684905329410731 0.6194612839652494
Ni 6.649020533386393 8.29141973109541 4.527369281164077 -1.4497944219168386 0.4600168925212658 -1.61989217930961
Ni 3.0476254045046183 7.253752133938648 3.9370153529937832 0.006379164053466433 -0.09262116317184693 -0.47127781014706577
Ni 1.8015050914538029 2.8223022957007338 5.475764074876984 0.9437977202313488 0.7884807206921776 -0.8935480800471772
Ni 3.6361049471169333 3.3368769660909927 10.845766106150379 0.925245154040142 0.12858523997128177 0.21193371959195118
Ni 9.093437102563112 1.528588647728697 8.909047768765934 1.4909924934217031 -1.8349068518197302 0.49125708148247005
Ni 5.150444203897721 5.774021177711395 10.45867088012706 0.3086930733018877 -0.6187837982822504 -0.6404463708573487
Ni 3.3101685869438113 6.163443004419922 6.590948727945575 2.354849474162351 -0.24048633441866324 1.4279099631389214
Ni 7.981264755974699 1.6666157792163436 3.584336466816933 -1.372506289557636 -0.2387004461628341 -1.5665273905352246
Ni 6.767187114796384 -0.13540059219763695 8.168639632499628 -0.24516522795157128 1.363640354526574 1.0190351407091096
Ni 3.352123076094844 0.12960946990501204 10.997602411002891 -0.035833207648525385 -0.18908895378329368 2.239742471183162
Ni 0.6247259693920512 6.845540307249587 3.590077753156761 -0.12369782997199341 0.8854673599215719 -0.8585206561293988
Ni 6.694325106031007 3.1801521234242895 13.396179132486434 -0.34982018235950074 3.0959866725735585 -2.3046201456931534
Ni 2.4657998844787294 8.165685467964378 6.027136136191791 -1.5077249756850357 1.0615182495739848 0.2993573977232586
Ni 8.025009647874368 4.727078556006287 6.701142479796046 -0.4706036668981767 0.7532712626705801 -0.765395813848256
Ni 7.11140588654192 5.589840416605553 3.659208525678459 -1.8064200572339468 2.4670195060004025 -0.35441371526745413
Ni 7.205115935560746 7.217048877591606 11.707389122939428 1.2382767068163834 -1.3307328051652758 0.7280171160894817
Ni 3.679849839016602 0.2686277831205119 8.761304472258884 -0.26440890667253175 0.22406778385132378 -1.344644787260678
Ni 4.060522687345196 3.7837208850779462 13.275828075145505 0.05741813290815272 -0.28684718107138985 0.7721056217682638
Ni 3.2856659101519083 9.355961827242009 2.125970368131396 -0.653497547614352 -0.839328142361348 0.474167472990035
P 3.031179540081578 1.086109989051563 13.246422094331177 0.5741142232890177 -0.456468255938059 -0.9461230259304156
P 1.917853583474715 1.336009605688531 9.873206412658972 -0.5188627590148805 -0.8610434225512525 -0.5711798232510421
P 5.954381182436126 3.5721488076940004 11.279339818373082 -1.4384831106690774 -0.27572433168535093 -0.43919661334180493
P 8.385452790919402 0.5241551708714922 6.8638254874860465 0.10490615118678707 -0.013555370086931492 3.1718689257241697
P 2.087600376029695 4.465919705589235 0.7522949338964268 0.5279958316644003 -1.4920916400231528 0.1321737286534885
P 1.5271766290661126 2.4361382636843127 3.3633426256902927 -0.56490530309624 0.9989604814464215 -0.4325801364665518
P 6.099219227472709 5.82885918354849 7.727785256728474 -1.10932431331367 -0.8313335541916456 0.10011181512193727
P 5.155916929825254 2.8841819370904553 1.6409327286535613 -0.10932639174166978 -0.09326856694785873 -0.5214096938064504
