# total energy = -381165.65465025447 ev
CRYSTAL
PRIMVEC
9.28922771010467 0.00000000000000 0.00000000000000

0.00000000000000 9.28922771010467 0.00000000000000

0.00000000000000 0.00000000000000 13.59572372326204

PRIMCOORD
 96 1
Ni 1.5755644575201289 1.583246648676233 9.959941326511318 -0.7396220473182616 1.4069840116195318 -1.3083994317753982
Ni 8.62145281797502 5.11751904185999 12.715087193134838 -0.28134887696097993 -0.6658154457497565 -1.576785063707491
Ni 1.3495575520448986 4.462247643622086 0.390939926798056 0.2128577740681173 1.343729731645576 1.6285043464586537
Ni 3.563496302950509 7.837228363353757 10.785541858336353 0.03198555176766105 0.8994199654469219 0.8145653335943714
Ni -0.019106083155834497 6.8104157321404 0.4280875476363398 0.05157787207729182 0.19202463937284991 1.253773516900402
Ni 5.076274871686952 7.327175458880516 6.025937681607937 0.13472914808549052 -1.2095191750677168 1.1795061736453945
Ni 5.582547060560997 8.763847386574684 4.26455709038525 -0.6070343710558062 -0.32466476613979567 -0.23473811908097636
Ni 1.2083798722498906 7.170586950635718 12.16420256019029 0.8665448119854561 -1.8348240622979368 0.04708384086168021
Ni 5.006800739091421 2.54746846488375 11.844485927529112 1.6512323841837884 -1.2551413437822063 -0.5769889737336514
Ni 5.080297107201575 0.10284846921663185 8.520915508564482 -2.5795245525803705 1.277025031229175 1.3143726186396976
Ni 2.538504360330376 0.3236914931154674 4.64461190037953 -1.3774114401687374 1.2362169960738774 -3.8144043179000633
Ni 4.448964048273562 4.868493430598997 1.1730306458587914 -0.9576320550112798 2.1232308745469624 -0.3529114196903148
Ni 6.183736576198129 2.346022276962014 9.010362119637982 -2.175792707804079 -0.3445244811782002 -0.13409639959749808
Ni 5.766083617831017 9.335859438582647 1.8755433395543541 -0.762610537793635 -1.2608432792629898 0.7004435773465872
Ni 5.751880388958366 6.830907768041688 11.060773309344004 0.2092993672928976 -0.11839647236373804 -0.11566904613024595
Ni 7.196782572232108 6.122316203859361 4.291027673116127 -0.5975868524896611 -0.8758576047459496 2.67865394918438
Ni 1.061535763669848 3.9038164422431736 6.485255612154582 -0.4141882642229254 -0.054770153762344384 -0.7684060614294896
Ni 7.868012863343273 5.875538585657349 10.470120564478782 -0.2821837141574495 1.2153470946034037 -0.17804657992620307
Ni 8.168027044442061 3.180157751029164 9.644914824823196 0.9197357941861387 0.6076149261496245 0.5236077298990337
Ni 1.7596026330760375 3.7167499785169023 8.854350472421954 -0.9844867133102787 0.87805384106632 1.0936737512606067
Ni 0.8281578561603146 5.573499352959974 10.402481983240502 1.1496417819857945 -0.553938262561775 0.3288278963785498
Ni 8.24210863388575 7.832323651225071 12.163128725489388 -0.824530158116567 -0.2396916064315098 -1.75488769368261
Ni 3.1841706973162704 2.9871276032373317 5.23869051235282 0.4648024868353673 -0.18249381706427925 -0.8423173068966591
Ni 5.039814653684886 8.028233459547003 13.290717399260458 -0.4350885047107023 0.30875118023333276 0.0939239411436705
P 7.847539405897017 3.0744091849818966 12.281057326656226 -0.46355318780929844 -0.8179273080880688 0.14287260312823136
Ni 6.115516489317319 7.523633331625919 8.220178625564914 1.543620404030064 -1.2279128470835563 0.7802228515587595
P 2.7334573782181133 0.15519512411733127 8.620694817009678 0.4739065060191645 -0.6147636213792639 -0.24707504337977448
Ni 6.212514603044091 4.324711341013526 11.322123867673826 1.0211745556496155 1.2067387841091024 1.3125404505269653
P 8.432639979475658 4.419600800094064 5.503358253828764 -0.7597481286441754 0.9597208192195084 0.13290572172350656
P 1.9485548099881485 2.8290435293623846 3.0516143495792796 -1.6080355370813404 -0.5093676750402517 1.4832377891769488
P 8.020319037702988 8.306826681992858 9.923845246227897 0.10274333920751337 -1.155414165693197 0.6071148465847545
Ni 1.1811345679441423 8.017690186315832 3.903318539648292 -0.3561960039788575 -1.4269427141296458 0.5451309486827902
Ni 0.4219074245696456 0.08860436774290732 8.392354457582316 0.5277366644657426 -0.6239581433943382 0.19573551256553384
Ni 6.194428477069563 4.430432039378244 2.699240508661269 -0.890946380758272 -0.671664705441682 0.6551469102923169
Ni 4.3966471189009155 1.6782475784869677 0.64787717313481 0.28339984595273776 -2.321670416307221 0.8877173322980132
Ni 8.568058338210466 6.608226406017347 2.659445457980797 2.4465756363237543 0.19555836355772127 -0.8694655851766767
Ni 7.814571937441135 8.60897738542043 3.643885277877868 0.1749229466955568 0.1471295786323724 0.35010891724451315
Ni 6.707621140443363 1.70231596698209 4.872149670549471 0.20932019322850406 1.1652465784025867 -1.6048435125066038
Ni 2.280226678462998 1.8553281226330554 12.187029907889213 -1.5349994951302726 -2.0348983114481407 0.2636943971040104
Ni 0.08628484763204974 6.716548088086672 5.676065429660106 -0.23550122249924604 -3.124544943827225 -0.9440998248527999
Ni 6.465385954496894 5.53624955061901 7.020274244501032 1.3592465963342526 0.34558506123223065 -1.1691459134569928
Ni 0.35829479453699553 2.5019884069632106 0.2902744260477899 -1.1782681874732353 0.7587168591661836 0.0738935048553566
Ni 1.7604200850974852 7.9208592786843575 6.880156465565652 1.0264193489883227 -0.39449541377968833 -0.14940243382694918
Ni 2.779559814382255 4.779372581806175 3.612533206087097 0.3508992743562924 -2.0203353260323014 1.1794979461152784
Ni 0.3376634202229599 8.623450001891058 1.9050737938291489 0.3101830275838529 0.7444490363932599 -1.12609947588948
Ni 9.247082291207933 1.27243838520333 3.7260169118873128 2.0478273608049826 0.349624778519243 1.296364354987735
Ni 0.5382308472216399 3.4033964667044923 11.260997963847327 0.2961260352701545 -1.166169090216856 0.7998431968928483
Ni 1.8033641839060337 6.270089235191048 2.1706528085244563 -0.8317223049896321 1.2372734623628499 -0.6966257462623937
Ni 3.8784847188058142 1.246224185151908 10.342525593158328 -0.5872006241593306 -0.0169548826867837 -1.6283706490942664
Ni 0.6933971747336701 5.0697909908804695 3.8684727893885844 -1.987086334171184 -0.11555617470146551 0.9687932138344219
Ni 7.642554022291513 3.434292437424205 7.390744429543839 -0.590994286873808 -0.8658832671420571 -1.64741223910675
Ni 5.077956221867429 4.689647933224783 5.419907549511983 -0.28641137908555186 -0.6515905603996262 -0.7332757933852597
Ni 8.179183406689317 3.5471379732940402 3.616286054003743 -0.32872299536956934 -1.0091181387057135 -0.48822189420057205
Ni 6.503416051949242 6.068094982845842 0.1323269038173345 0.2166550363270204 -0.2853775385043989 -1.3533680260662884
Ni 8.065984880173856 4.712257912999823 1.382032691442408 0.9259547785126571 -0.3062687801311112 -0.0849937285335762
Ni 3.519223844607108 3.308274776936043 13.153019464093111 -1.609308747366809 4.283134164814294 1.1526450875884922
P 2.08456767928401 4.681120422364682 12.083226506083891 0.793950228447181 0.9804554806636985 -1.520666109226736
Ni 7.992200546010694 1.125501384348123 10.845104385171833 1.0874563095959853 0.1675503083805695 0.7035993493667495
P 9.26854969599845 1.9642814721734982 7.540119852622115 -0.4099780827963197 0.760385248007542 0.7309242624339477
Ni 3.5860691258154826 5.42100739404993 10.182354229860433 -0.5686935664940787 0.12063564610690192 0.057600167011971765
P 3.4627267628520584 6.761712312271652 0.9862939497093539 0.6036173749544573 1.5578316625334396 -0.5483232303678428
P 7.203805228234543 7.89013051405994 5.806284607753958 0.018237606053949234 -0.2813977279210444 -0.4734295663827459
P 3.397414204183898 7.608759812586668 4.72512535095561 -0.5259065532355394 0.27443055257459187 -1.0382420526548635
Ni 5.9330667716667245 3.5338172210354513 0.3325664210846838 2.1483515808739906 -0.5854723286143142 -0.8070299444492747
Ni 6.39210323861962 6.811047399611518 2.273436253148473 -1.318388167556994 1.1487406103277635 -0.667139820988135
Ni 3.698087920436354 0.026730681101336713 6.2821763780354525 2.3227549076206513 0.48770767356831485 3.750894727382192
Ni 4.393293707767477 1.3496597335475797 3.522013399630298 0.17381557256399097 -1.3556696776162718 1.2932036978715664
Ni 7.373584439552701 8.436114150566809 0.5604051622261579 1.1430445883842508 -1.880678144517574 0.9153278949264301
Ni 1.279349570475569 8.887291931040789 10.812815030324652 -0.9048995005042545 0.5473107299429284 1.0039103692525293
Ni 1.955837564361045 1.2805200131426417 1.5809382756383952 -0.46196218917309473 0.8687613600208005 -0.30977113685741486
Ni 6.3015611380167815 0.48511597320533006 6.657866180019753 -0.9477428209220258 -0.6656868905916922 -1.5797940257371437
Ni 3.7664752134124595 4.68047017643853 7.665160286375546 1.1857912353231579 -0.10692549560966103 1.339062922297526
Ni 5.928375711770916 0.1014829527717137 11.04572290292185 -0.39950289429660873 -0.7884565523224615 -0.03746123017025161
Ni 3.9009739386231397 7.315220223066845 8.467103942484439 -0.8104415412339848 -0.3340114974620183 -0.6171300647289113
Ni 3.069513762080727 8.753880045449533 2.288921395418395 0.9403701826070385 -1.6391769956811513 0.1636895398735826
Ni 9.173130750949474 8.898875597753802 5.861211810058728 -0.8113861645354413 2.6905370737752112 -0.4056624861401013
Ni 8.374963165826019 7.344759966569157 7.647227432655039 0.3409272507452451 0.8518584136178747 1.449655325235813
Ni 2.4198066111251766 8.736713552999134 13.410005943335703 0.5598965370277389 0.16783467239020775 0.21921791195819018
Ni 4.258135447403128 6.1836343946954475 3.1504415122040403 1.6596422055140385 2.7379968099190717 0.3745817055748968
Ni 7.371113505033326 0.4653354921318013 8.509794445381788 1.6076251890167992 0.20080187134484775 0.9793439927670745
Ni 3.899394769945343 3.142397041174794 2.4284000755006447 0.49225081285430716 0.9211900101341619 -0.8634993402909129
Ni 1.6234875822774948 7.3513181611957705 9.227104878511055 -0.05886412132605992 -0.9032743061960057 -1.0341529701871544
Ni 3.06309490586686 2.414298099207922 7.536259249666278 1.8984845765713754 -1.673593268377492 0.5312361929785689
Ni 2.9804207809704546 5.807820117062428 5.887981505915633 -0.9402400847870775 0.5542511658165035 -1.5558251736263722
Ni 8.023858233386756 1.1604753259475575 1.8888269349028777 0.06372967694847735 0.5352522561164975 0.39352610788788356
Ni 6.193044382169612 4.809934140335295 9.10761197143045 -0.11637429972738667 0.7284536894062681 -0.42139660904590653
Ni 1.4858212304837048 1.5856154016929278 6.089741669727426 -1.3100860754492016 -0.4875978874633279 0.3348499342029136
Ni 4.024130517036235 5.870606005846113 12.599374072730676 -0.4280709357422886 -0.1309282862821616 -0.34779543861998813
P 4.15600039085976 0.5845710876102027 12.394541032456441 -0.2632699079720821 -1.352273250340213 -0.1708318073453187
Ni 0.022124153175929126 0.6036130750961737 12.919934167250346 0.3365599749154849 -1.7391484285704824 -0.12637794790731782
P 4.588934128491432 3.5842484372222585 9.836927802201975 -0.6820146812174382 -0.8723395642903621 0.15355990763874844
Ni 6.9027785213364625 1.2093087950015355 1.114707301974008e-05 -0.9361165495370071 1.6815361773736524 -2.768325799919916
P 5.231692937264678 2.645284030631969 6.430912702260597 -0.17944551715625867 0.04381108364767938 -0.39536521797915136
P 1.6708069072462912 5.596861760163846 7.605746387180331 -0.1712688948827373 1.821696523777043 1.631314562213939
P 5.99485871310615 2.0851529006175467 2.2716146356324973 1.092072468211758 1.8175292797732312 0.11614238622223867
Ni 8.781534075766006 5.1448293707583534 8.408057896698875 1.0346913591891278 0.5297894332297135 -0.5377729656558222
