# total energy = -381170.1969015265 ev
CRYSTAL
PRIMVEC
9.22154543350836 0.00000000000000 0.00000000000000

0.00000000000000 9.22154543350836 0.00000000000000

0.00000000000000 0.00000000000000 13.49666387003238

PRIMCOORD
 96 1
Ni 6.205104007740338 3.890413163029902 5.322382657187597 1.3638031053566837 -0.6014404219077965 1.9157024831115586
Ni 1.768812253729718 3.534055769458396 6.138930199224937 0.594739355738537 -0.8810561182277536 -0.4463833608982312
Ni 5.638117299745719 5.9265948989356945 13.097945325234498 -2.5010308299488413 2.992469688424814 -0.750745925145565
Ni 3.879135213222999 -0.17093425085909478 10.076460847568306 -0.15172439709190644 1.4867661140451816 1.3624350213645633
Ni 4.261810896859019 8.016713452846863 2.820830108710068 0.876714039208974 1.658987088428543 -1.0106751987801883
Ni 2.4720380708389573 4.679934200329653 8.09388210973084 -0.6127494191627125 0.0844748799156287 0.6329801443872906
Ni 8.523437362813592 8.296089386902405 0.7814623289299623 -0.09964053191247356 0.7567461085930579 0.10652748884029396
Ni 2.2380413608224745 5.881695195248197 5.702231937212974 -0.04076329796029109 -0.3760189522420556 -2.063995228814097
Ni 3.0336209533332936 6.384841145668663 0.7993106297077712 0.3313246946584746 0.5972644361532359 0.2118992668095899
Ni 6.392697902198084 4.164099403683269 0.2074386597761883 2.689562368566768 -2.8790984371898096 1.742713263103605
Ni 4.287179367765633 4.694495020235704 9.868355470072542 -0.3287952433684015 1.2347000452087187 -0.054722845464176724
Ni 4.98586818462549 0.8090863897979574 5.614733305370948 -0.2261228666081396 1.5500080527239628 2.7617424902754433
Ni 5.083764108705686 7.60363433461284 11.327817157001554 1.5613077940074982 -1.2699683814927094 -0.3561625796377608
Ni 6.130151288173285 8.483305198006034 4.407159970498775 0.3735208684105502 -0.8952979728587485 -0.8523343248130288
Ni 5.149264744419856 1.8913481466439652 2.6150457941467646 -1.3918633539280094 0.7160779414497345 1.304661819109837
Ni 8.27135720261613 7.6477133207755505 5.879578850619673 -1.5847176882910063 0.8353534739843161 1.4416118861060463
Ni 3.59599688871675 8.758595987528087 7.928736222807799 0.06499260282130097 -1.2154064870864294 -2.206916425792077
Ni 1.300486858068749 8.144293530997722 11.099993349356897 2.329984335489555 -1.7985159718955217 2.427827409181974
Ni 3.924071803091386 0.3388272361038669 0.981356842559767 -0.6153745154903854 -0.5193263289148604 -0.15539721795780334
Ni 5.293176179159451 6.801719540534283 8.99884674951435 0.9888763577375421 1.525223389580115 1.8961842105729732
Ni 3.806644646230307 2.668512313345802 4.847542239827056 0.15154287720871967 0.28237654689454594 0.6364063964600201
Ni -0.1501719417910313 4.432907446914026 7.385225724640174 0.5301786982483321 -2.1327329005001268 -0.2648755618963051
Ni 3.227651486356222 8.06918404516189 12.450186180483017 -1.0668129223140208 -1.5588655031145928 1.1951423375207546
Ni 0.10931957430161178 1.459032885076173 6.685126933515826 -0.7491366716769163 0.33285424392912355 -1.6497599134033198
P 4.061463605358798 4.685955869359831 5.431314004435349 -0.13192895963253407 0.07942549041717935 0.3743019695509489
Ni 2.46915172718437 1.2508749447726433 6.375513552676282 1.8381186738888087 0.539769941481193 0.0908851543173467
P 1.0231304424168965 3.028715091275017 9.031265091743432 -1.1819793177762354 0.23503148195167908 -2.1299540522034093
Ni 8.2406125708449 5.053369895652905 9.586369838719085 -1.0894214037421561 0.006875129853278482 0.11157379301494978
P 3.751518248891251 0.5377110683773049 3.9874809923491332 -1.54200086614877 1.122018363841571 -1.6499748576276034
P 3.7751807339317356 0.8379894789882888 12.189983683253734 0.3774744537416596 1.6310767351715196 0.10027430884173053
P 7.2104184247877035 3.0116460110684944 1.8563450052890658 -3.1387819133622137 0.09311250098596867 -0.6787694348072633
Ni 4.862686783545679 3.213551743711288 7.2779007705701515 -1.246087203999738 1.2599565057826625 0.1992612663306052
Ni 8.675666631343722 0.026152302250512113 11.798527244257016 0.691523392038822 0.5571755385521501 -0.4484662115691889
Ni 8.910179747892656 3.179017056853683 11.065806314754173 -0.383943606405771 -0.5670917692245976 -0.7978253951318711
Ni 6.532293653773631 0.10798890532603037 2.3014643823980556 1.0536136500149276 0.8710938648087191 -0.1223927380073247
Ni 8.675076452449494 2.365446229614109 3.01071463500104 2.346455593671701 -1.6326096268762786 1.0068383415326014
Ni 8.679530458791877 -0.18505428090351794 3.393560917223672 0.032856384408388575 0.9829669342316425 0.8082396484866596
Ni 1.308223734510279 1.0581262065356178 10.354100364658484 0.3081171461937597 1.0507787516692937 0.6266338904542885
Ni 7.437379095799552 7.157975497108344 2.930868041384499 0.21008638197056723 -1.0694439321789646 -0.3510381139270019
Ni 0.9072045531180117 5.613615654090003 10.73484136810686 0.8169338338265478 0.07902774075812842 0.3680390193603726
Ni 5.447673947814275 6.323914396384766 4.878773769186024 0.44252053550871534 -0.970944970070102 -0.4262567653516852
Ni 2.0078347058923676 4.55419843122326 12.867462946102243 -0.7536628416820439 -0.3044060158907596 0.5653727296509617
Ni 8.580352739925777 1.5812644669980833 8.88876731988642 -0.022541632745941825 0.5092100664164649 1.3480095899678526
Ni 5.289487561070522 4.214854788586942 3.4288139624540963 -0.36821076905154654 0.19779110954298193 -0.7987695042126953
Ni 1.3814889113016469 8.486624954286071 6.040324216162622 -0.5594784756537138 -1.189276879878913 -0.16136037751977372
Ni 6.423497863240648 2.199993265235164 11.436249618652779 1.0069342436805173 0.9515411116221936 0.7206501342014492
Ni 4.4307127191511135 2.4695482536289295 10.343182055115252 0.5777507916003405 -1.1036331764661638 1.8320498419869091
Ni 2.7864005474679976 2.7401176119971513 2.8163484377320183 -1.574799657846346 -0.6044601825707268 0.4726762331564892
Ni 1.032462646181889 0.9951799388480314 1.8838104555792372 1.1536707006395293 -1.0197064557445212 -0.011927347565205264
Ni 7.263700513082294 7.290885628397707 12.194626731273173 1.2612986216328537 0.12480031900755281 -0.09756359477878682
Ni 7.06786255719579 2.4015854653403985 7.2214575365733475 0.6122084590575779 0.12746963830959984 -0.585156082925476
Ni 7.817002447966983 4.51504375020927 3.3592254157428694 -0.3648102280104298 1.8647357622557046 0.04917851860717982
Ni 3.1625750417222784 1.8097743576072831 8.73589069888168 -2.142234669342975 0.622316236915541 -1.4385453313655805
Ni 8.347776147873534 5.026738073050831 12.449187487135442 0.6238794676376029 0.5797397970059112 0.4786836156928336
Ni -0.15042000135751182 3.9456594404568475 1.0783103247182417 0.8928867923140945 0.6303954143792497 -0.46535758800788884
Ni 6.777559092051794 5.281049847192095 7.359676511447202 -0.8237868521926394 0.07961266672732095 1.4666801419285838
P 6.2227263806602 3.3495603141953514 9.30698837173641 0.05361521422229476 -0.16682885683351267 -0.6910109711787776
Ni 2.1403114245562804 3.2495157700783532 10.661068084173742 1.5928665426503856 1.3923760318983698 1.8936496170765773
P 7.663002642754164 6.296950598154689 0.873028584369555 -0.695980142258595 -0.9378546152740365 -0.5072917663478296
Ni 7.563336181991282 8.735606675288832 8.215244099938285 -1.7421046829853288 0.06845742144144984 -2.2248462707976198
P 3.6192536257674517 5.798221767895717 11.998682727616613 0.49104085170660594 0.2840246240209302 -0.6119724317873719
P 1.9269433112021375 4.689994906167209 1.8744164674612551 1.0634846292717361 -1.4316838283590567 0.0033367776827168336
P 1.4463809250311437 8.019544467230117 1.2433344872443488 1.0893041614380015 1.369676276308009 -0.0978268757425025
Ni 1.4244797551281232 0.2645965635277219 8.106487962049759 0.07828803437862646 -0.21258600846396936 0.7676375586945812
Ni 6.487403171631356 4.638031498839411 11.102220352528086 -0.876002100743614 0.04747824808662146 -0.07674177293742912
Ni 5.446465925390151 6.176821528543468 2.123591840913684 0.27627043399680806 -0.6020644286450405 -0.4108134342134215
Ni 1.4806850732581907 1.353584515458893 4.2889831020111195 -0.5118583026725895 1.1005828196756142 0.15639737708754353
Ni 8.80383688838881 3.269913828110135 5.0914816199022495 -0.7871596878879089 -0.48042270987112745 2.232746242370987
Ni 4.459124299981095 6.000690014797072 7.206421807088348 -1.9196367851689582 -1.4042445012011815 -1.6316012402164224
Ni 1.6240432152844464 0.5575420013779135 12.99510019783348 -0.2699090105551545 0.5520634141365653 0.07545365025362488
Ni 2.557798441406575 7.127922481228789 9.44527558604491 0.44809108761795735 -1.0233558795716504 -0.4522169368608728
Ni 1.1583644031022846 4.399617668661436 3.9487726341239044 0.5847801876432961 0.40973099978252014 -1.1290747564677202
Ni 8.387290469151193 1.6609570608094113 0.6177190390352362 -0.019006108788857588 -0.2906709256928543 -0.9373519646060051
Ni 9.3352468749157 8.489289980855323 9.492891956954903 -2.4235943449372326 -1.1472074615126888 -0.4424567721503154
Ni 5.735948673009359 8.132766599469816 0.7058982209146691 -0.6967627860608904 -1.9936801853386181 -0.9700743945396907
Ni 3.6365348015140877 7.97202584469948 5.1118344923624415 0.027129509226940376 -0.5280426257419358 1.5419041926699057
Ni 4.481578762597454 3.8018863288955873 12.561169321542737 -0.8898621465551578 -0.13931162524985038 -1.0041589949282255
Ni 0.8140051620195453 6.764962461278099 12.937375169050775 -0.01718165398560912 0.36918136049493194 0.28620363395012005
Ni 8.998300834037188 6.547315550940797 8.014912485064944 0.38218420051250307 1.994891689148216 -0.21547027199029986
Ni 3.9845559182046117 4.2213467564234595 1.6616689641005746 1.3153216128165284 1.496312620083036 -1.9806405785458407
Ni 1.698922162489721 8.381314907847127 3.751438021447817 1.074371194277253 -0.6033695206097093 -2.3113770048010127
Ni 6.858662582282138 1.6304429676687395 4.326045414414164 0.5825469274374031 1.0377864531746837 -0.12333221910245855
Ni 0.5060894676554321 6.161559871200522 1.9538582352425358 -1.355394055357382 1.1130308156309798 0.288857012412567
Ni 5.68061018013019 1.9333061774055413 0.45879031790108554 -0.40068585886111635 0.6681523214130494 -0.8264967949246347
Ni 0.17737365588784393 6.764621264104872 4.305192734202922 0.8212538013581405 -2.0561639056951364 -0.6644432479925784
Ni 6.825916875197664 0.35899475550509047 12.91131323794344 -0.8120042577354145 -0.32150668012678824 -0.6075807304775794
Ni 6.686809865518899 0.19055769909220116 10.353709371141058 -0.46795080265636185 -0.125988425778383 -0.1280692195668117
Ni 3.0887289075819044 2.4574864724781293 0.6098466058789378 -1.1054941409343026 -0.9699391545134071 -2.3221054469621105
P 1.8885171322607115 6.850372413127268 7.406308021327453 -0.11256083951856745 1.1878501747347154 2.4328423458980617
Ni 3.1552623563609754 6.244498448930107 3.3678761473159318 -1.110553814845397 -2.374052015232731 0.31293976439338367
P 7.894306661565729 5.379609722528298 5.638528580662634 1.0347458665761469 -0.09322305842190397 -1.4079504892978592
Ni 5.480096900815967 8.015634532055852 6.748736230304896 1.6146245031527677 0.23585294941170992 0.5518057895998045
P 7.2360082127796534 7.371260616555486 9.988893976291635 0.18401102503975406 -1.26656604067938 -0.5652238627779234
P 7.1826062443971725 0.2925701209596431 5.919245327393503 0.8175439566067211 0.48933466764877664 2.266744710803619
P 0.7604953015579632 2.643494261157636 12.805890688652784 0.5971132552873523 -0.1913895768920123 0.5774183479615862
Ni 5.349067964751959 1.1555979395355873 8.278286271696185 0.6746394717992897 -1.1165537411825737 0.6723349920358291
