# total energy = -340855.62016292545 ev
CRYSTAL
PRIMVEC
9.44157748906985 0.00000000000000 0.00000000000000
0.00000000000000 9.44157748906985 0.00000000000000
0.00000000000000 0.00000000000000 13.81870302453258
PRIMCOORD
 96 1
Ni 5.838633843009616 0.34106471800387855 13.890560426838297 -3.064517398320684 -0.12699629821760708 -1.1396815854492888
Ni 7.521425108003714 0.7461046219029583 5.693056989932928 -0.43534561502683083 0.07516542958924474 -1.5617849907542327
Ni 7.3329901015696715 5.367027040154601 1.4627373592190913 1.868553593339898 -1.1262437147768283 -1.0546096953796096
Ni 1.3570946029062774 6.274277676653927 7.939936254872034 -0.7680525347448128 -0.09587592266371875 1.3653761062707581
Ni 5.556632802215351 1.6295879750223656 7.0170683048070925 -0.9674055894582759 2.0759531725069214 -0.8426165833046327
Ni 3.9111735351889947 7.465323253698118 3.902167214283221 -0.4020500861984947 1.079386645213973 -0.2541170378282204
Ni 2.5571568865916414 1.8202417522005703 2.5197163104810993 0.4354209483494566 2.5071677960845147 -1.3251493975402273
Ni 7.563355154279573 7.908916895710875 13.550509734272389 0.4584894001331459 -0.10370056091446012 0.6861040207954635
Ni 1.953141398987101 6.955138164627575 2.197297764148059 0.9782093649419994 1.5735904680295933 0.9419470401758552
Ni 3.075471174005691 0.0603911630250558 0.45436459377846267 -0.7624105059676869 3.07361550396721 2.350562930971855
Ni 4.91251893439609 8.053458007721034 7.580028980382514 -2.4009683800076003 -1.628271147401925 0.6641797099185465
Ni 8.92256467057603 7.666428857317975 6.895270065003484 2.6297245704735293 -0.44174869033969727 2.301696544288455
Ni 6.611936817604956 2.590551746685699 1.4042156285657128 -0.0069926292677492475 -1.0501601442486883 -0.785328548216441
Ni 6.592694882385366 9.236770932682377 7.448958167183831 2.9241451930168028 -1.711427822726762 2.2892583185251025
Ni 9.053632651301422 1.2018656250135982 10.021061071171259 -1.055180480281415 -0.05759836723975886 0.2450320448078167
Ni 2.240250333281759 0.4144493801698568 4.729105903105963 1.654220263167519 -1.5483687173483267 -0.49854924426850916
Ni 1.388383991187789 8.048793868369476 13.245779983638025 0.6004623742652433 -1.3702090088830272 1.190564745452401
Ni 4.1882083061473905 7.256994843187689 10.926172246178554 0.8433395775135863 0.535637150259742 -0.04404248293219512
Ni 2.191352402711466 3.789641547874685 3.8502224866101993 -0.6234644915873714 -0.2892221090614696 1.77393082635699
Ni 5.039262672564773 3.2732344591428517 8.844688649929209 0.2759981541720279 -0.4841441245867727 -1.3563934431561737
Ni 0.5740564176117623 0.9599629644340516 3.1925070820503403 -0.6240131650019899 0.6956099034033697 -0.3525087849352574
Ni 7.668279406534383 3.2938170983865738 6.496628718267464 1.0032495957400784 0.06329310363169101 0.8605981074837178
Ni 6.479395950768546 1.534888951345973 9.245347661805772 1.1675456588494084 -0.5151554853666224 1.0477273664374793
Ni 2.577324096419435 7.833119910459222 9.024621515703172 1.0310884723292177 1.7514298170409965 -1.3162117287309656
P 3.5557170203964894 8.561783105997534 12.604923460102748 1.0012644469892495 -0.8741691612999332 -2.268776139411351
P 0.11784882787899943 8.256508576333646 11.615587747647037 -1.4424924889387867 -0.7246844521718229 -1.212214205401377
P 8.057612301880317 1.3798960128941624 7.677892820882071 0.9668782561998961 1.195748603646186 0.7752660217741164
P 0.2946867445042965 4.116575056632656 5.548872769557361 0.1052869315649735 -0.10303464519568707 0.27442926702301124
P -0.4530408845940728 6.803893532496755 3.174806012300739 0.0936506328776258 0.294289496282048 -0.5254766647869724
P 4.1383662178136245 1.0316717465698644 9.161938876664994 -0.8631170172508297 0.7355807873693525 -1.7476394967606288
P 2.8578050432145092 4.231582913801363 8.217679144153035 -0.8316318021583547 -0.48529083659670613 0.4323230261504232
P 2.219422213019534 5.618059706306936 13.542867721334835 -0.34694080392917664 0.6181088837024129 -0.582870372215093
Ni -0.027521254647489203 3.912674746032918 0.20772509369956932 -0.720043868076018 1.5980478297410092 -1.1021614770166437
Ni 4.081093607881321 5.156177728415697 12.150620236578913 0.492676587537816 0.42530262896853205 2.5614615244310723
Ni 6.93427227805481 0.18855208199671286 11.835152579700562 0.6548640889445754 1.1473799825348112 -0.4566119806047749
Ni 9.270420715372573 6.166955263679894 12.198211452804555 -0.3250375760981822 -0.25842157874084526 0.8711961947145382
Ni 5.198825334591795 1.3453398387510322 3.6365576964206183 -1.4748493080029375 1.317052736575022 -0.19905197853327655
Ni 0.9524569102144371 1.0383563835352567 13.382584666934282 0.5621547369342963 -1.3437261321011504 0.021221885493253774
Ni 4.774747433550036 9.228452902786177 5.306216671082563 0.8257015527168489 -0.8750783033777638 0.651220321544401
Ni 9.546190314927914 6.660863072908153 0.9414820203718212 -1.1745015213419516 -0.8116463601753635 -0.06796814050985714
Ni 5.1085449692484595 2.7447327094609224 13.270349801116895 -0.8947241026331494 0.6905702840969332 1.276541663834853
Ni 9.215196927787009 2.0545345012065206 4.959186764329059 -0.7592390502182408 1.0761455125688564 -0.8816564708159138
Ni 6.42185897666247 2.5090614901203008 11.519478152272013 0.42515427631612585 0.3789407538745409 -2.5672742744581076
Ni 3.1772797056410393 0.570558313098093 7.257541510532741 0.8410960328950482 -1.5035083665005267 -0.16003805916392438
Ni 2.401399180351417 2.5923550880139334 9.829796423920087 1.3296521705065876 1.0004038987611674 0.5594720478958106
Ni 7.5573691940591505 7.6348845464403245 11.117091331688295 0.35589055692329674 -0.8495981568287885 -0.7779767358370602
Ni 4.73311951775849 0.7309980976873822 11.18114110604681 -0.7999272719662224 -0.9540109133189246 0.6406564299856257
Ni 6.132059192741912 3.1923767882789806 4.845749041521008 1.1176749992712105 -0.263889543833952 -0.7377387142526197
Ni 4.086399774512043 7.455126349852605 0.7115182347113969 -0.17829494849158328 -1.2716938488242486 -1.9006288766078878
Ni 6.203361987039432 5.648433261557878 6.6643186903224665 1.0600997719599032 -1.3443020592092785 -0.10968454641203693
Ni 0.995793751557871 6.582299705409523 4.864888063544379 -0.49946352855266235 -1.1271366589047427 -0.6368244578340452
Ni 2.8285172693915612 7.45511690827497 6.155016388760771 -2.0563125154578588 1.3267720207453149 1.339104831279055
Ni 1.8958026980113551 -0.1654627038909683 11.228096904097638 1.1711763136234605 0.8656991761557091 -1.3407979027107617
Ni 4.084228211656053 4.810937000623976 10.028149807659418 -1.7345505247871547 0.9353986975343761 0.742771648690837
Ni 4.157098307840939 4.1687114483316625 5.261733622214272 -0.05904229877513703 0.4749269768638788 0.2170332456020456
Ni 1.7755547652553694 4.719448113343393 11.572251850461367 -0.1931114446791255 -1.9032750559814833 0.7694779543374296
P 7.629956042914994 3.4938652453113406 3.025535614053341 -0.4518456695643831 0.7291661420922604 1.238990959274589
P 6.009724671328651 6.613268080051453 12.794917271004286 -0.8976890987987444 0.06958844972209952 0.9452100271978432
P 0.9942075665152357 9.274046281184312 6.400312352342241 0.8294995863067004 0.11751715508257825 2.207761290290875
P 0.4848769402206359 2.2320078360066353 1.1960873795011404 1.3982340333410435 -1.1362476200670755 2.3748215464089033
P 4.085767188810515 2.9787422111378308 1.4432811001871928 0.6163379078449192 0.13020143541846607 -0.41126312015633043
P 7.468967702665126 3.7407719420372967 12.840367137422373 0.10664421692381633 1.3557612088888136 1.2621098046802393
P 7.549287203603818 0.49080625097524955 0.9753347969811637 1.7996369728738424 0.06302236646880759 0.7153729449629099
P 1.1575374180185172 1.9195199410298096 11.480329594767348 -0.5716757890508541 1.2352384342106921 -0.5616505436043682
Ni 0.9413961020153451 3.221409639505791 7.845596011145761 -0.9613485846309185 1.1491149629480468 0.6215094247435295
Ni 1.8041249791780778 6.7646732190020655 10.74409708643927 -1.0673399984620846 0.2238692946872725 0.3473161849907244
Ni 5.4751897535381255 4.309438162977389 2.6376727723451348 -0.8442844579253589 -0.5112180979854293 1.3456806847243599
Ni 7.308111544502145 0.6752134803903137 3.125348196176706 1.7297592740460985 0.9240120529639894 -0.08861049935055706
Ni 2.124269993616674 5.055757108692656 6.311582294046528 0.555175734513302 -1.5683518453384733 -1.1233231986959233
Ni 2.6749311260073263 2.7372077720860384 13.392866544978508 -0.25847891434134196 0.6333442125949286 0.060923574958249925
Ni 6.54661998352786 5.576460115248294 11.040425721294246 0.002861894928827329 -2.098108368447722 -0.6905430304034236
Ni 1.962488560845489 4.649759828821414 1.6125185468165282 2.4829924843898916 -1.2173291580304388 -1.7827085725496203
Ni 4.367569956474452 5.192121814471133 0.7743991417587324 -0.14444560404230608 -1.02850554209339 -0.44655948146477925
Ni 9.278937018399105 8.618489221271753 4.811907594804826 -1.0290305613589246 0.7406636012088986 -2.352158557593749
Ni 6.859797113672021 5.78346670488986 4.1496319082473905 0.9866598097021975 -0.32884152322530463 0.049122211447947664
Ni 1.408532317860314 0.8991941383036063 8.692918121924134 -0.5327312894668568 -1.4662219713452427 -1.1089034237261675
Ni 9.26570936813284 7.670913606694474 9.206365276067478 1.3814488434629049 0.16516535308816072 1.422906082166427
Ni 4.828979855483954 8.931109298335466 2.1887861819103454 1.2888379647037027 0.9927741501300515 0.22436886003151035
Ni 9.645798958974371 4.723149211776209 2.779051900005421 -3.2685712009439256 -0.17787945822071946 1.6664546004501815
Ni 1.704148113603868 2.0431762833119347 6.079055120058274 0.745969072582212 1.6707861379459998 0.704898013573515
Ni 5.746474603716968 6.618460947750559 2.2663638487039095 -1.3503621493604292 1.6415339259491017 0.6780040173961485
Ni 8.288175627720548 5.223921047944922 7.919028825357677 0.7951429632037016 -0.5925978839155019 -0.13388659757953716
Ni 4.35679711639322 5.652115476835426 8.01766687522328 -0.2606556102776866 1.4766693919308118 -1.5042838112139707
Ni 7.208965537759792 7.610676341384865 5.772928960091732 -2.902959302967807 0.5510285451141478 -2.2464705339356152
Ni 7.153798399640036 6.987145112809327 8.71607831186214 -1.991518401800609 0.6205095227241055 -0.11947067926452329
Ni 9.48264849744615 9.178563606564236 1.4711667997313829 -0.46170019376095967 -1.164593003978988 -1.1369140500064807
Ni 9.111792769531391 4.81309912190233 10.181537677913322 0.047177943237383266 0.09825727841170175 -0.3565521017666956
Ni 8.49192487307813 1.9005990194498006 12.380286612543841 0.44376160700466805 0.10421298177450437 0.2801656552861562
P 7.252831107450771 3.8819046445213163 9.443881379677926 -0.2664753022832572 0.009184237602429344 -0.40728562356582115
P 3.253577094507333 5.600054617757496 3.379294533187121 0.15461920214119823 -1.9605821172330684 -0.6233647327847135
P 6.338367105638508 8.368372388149988 3.7085667207252153 -0.5890636455099983 -1.107487002994615 0.9276339659872929
P 4.211292963464318 2.9689985030187844 11.208888958557532 -0.5331267251330625 0.656136785009412 1.000658952194767
P 2.8007401479901706 9.272658369272007 2.7520225515527015 -0.4012306756209929 -3.1240556628956324 -0.48501829966160986
P 6.108889561226273 8.78130922758276 9.80709226218184 0.25679844131512547 -0.7286694049614999 -0.234041607234584
P 3.9392716702299664 1.8488119661232787 5.60526636861187 0.12871533779124286 1.3075625376963997 -1.1535791693669875
P 4.645312845755454 6.712036423688417 5.81261663167934 1.6242717964345446 -0.7232608323514189 -0.15009148947417375
