# total energy = -381168.0555035779 ev
CRYSTAL
PRIMVEC
9.20637077114992 0.00000000000000 0.00000000000000

0.00000000000000 9.20637077114992 0.00000000000000

0.00000000000000 0.00000000000000 13.47445421779832

PRIMCOORD
 96 1
Ni 1.1456683686982712 3.3046543232592476 9.212093216623307 0.025489402520356103 -0.6522850153634895 -2.370879016821388
Ni 0.48456718619149275 4.853911563545272 12.717822958137512 1.01497331193491 -0.2862810241552747 -0.9377358303079849
Ni 3.2498027676016026 5.916694978301654 3.9404692884499317 -0.7579241880615593 0.7198613197515666 0.11015685806276512
Ni 5.359286067786755 2.619442576953911 12.630468311300056 -0.2737247847568189 0.4604336683437103 -0.2707911560497917
Ni 8.849752567588173 0.8261474696663725 7.455253495386982 0.017030473119725505 -0.029518835394723355 2.1474465525612176
Ni 0.3503235735735816 6.573772056246841 1.6072730254971326 -0.5301753558142224 -0.28265654002880997 0.9260180276504245
Ni 1.8077813313270328 2.9693122764600335 11.429934577388336 -0.018727658316490328 -0.16880320695106413 0.48613235866139504
Ni 5.7525822171144805 3.132992338231982 8.196631467062604 -0.9127287667406861 1.5634001577601528 1.2264084946238878
Ni 3.191434378398939 6.658433839702314 11.565850987532764 0.4284820551377782 1.5998404028650575 -0.5751722322398869
Ni 5.6026104410716755 7.177663931601527 12.09903517525445 1.0137702927657446 -0.515778206552286 -0.4268931133841035
Ni 5.904607013786969 0.7539465087323209 0.7316532824777074 -0.8277360666483745 -0.5861924946097904 0.4117472588816006
Ni 1.7530034266336814 7.454619176457004 13.346676065928348 -0.09505831185842983 0.45252778323307224 0.7203943094369013
Ni 3.507608761740748 2.1679989913164035 5.550343113623682 -0.7800261621669212 -0.1978337898554593 1.2686900290009184
Ni 3.356642697679979 3.3638420794396766 8.11724033073939 -1.5134526221974323 -0.32436548973182205 -0.576448270738833
Ni 7.987981047130048 7.871446808876528 8.052873070495016 -0.31305520692532535 0.033958359223315714 0.1315497219162444
Ni 3.498264295646 6.826578991184561 6.198329821300933 0.2041119095546872 1.2527710437778166 -1.6713394393463086
Ni 1.5676607749888831 0.9003167526211703 12.704685467381646 1.0317844699549779 -1.0737340749138864 0.07955353135461138
Ni 0.9219627710270538 0.5894268259674259 9.452315963674412 0.2173489770702515 0.45731800553286406 0.6500759235273127
Ni 0.5884997444543804 2.616772729498269 2.790344115774845 -0.7132880374094233 -2.1124322412695618 0.4284766558211395
Ni 7.9965982099523965 8.62447268055518 5.803447414329735 0.29882749336171766 -0.7541004434400947 -1.013213648931326
Ni 3.921849404039461 4.081276122623454 1.633669531099952 -1.936799412991174 -0.1403477798238486 0.6152361901403082
Ni 2.0138291103088637 5.737097101871755 7.508477364733738 0.4939276863360977 -3.295014739847435 0.3919258532802992
Ni 0.9502631540568626 7.103064711142665 8.874477196301527 -0.3299882352352382 1.4612797968486189 1.146644389920367
Ni 4.089469792401116 8.289296348425626 3.715742704286195 0.9004669186541976 0.3152635274305538 1.2681231007538547
P 5.664873125011362 6.695379004666082 9.687068285352613 0.8727074891527422 -0.6960174232544336 1.23206337891682
Ni 9.02332947768707 2.3301415892087234 12.762881697455272 -0.176726832673515 0.4664783318758934 -0.5594910740592042
P 1.4281290231346933 1.000106444142544 1.4336012897817063 0.7993336042462815 0.8587422852219018 1.262155313206194
Ni 6.892220413111215 7.404186678656973 3.919071842048539 -0.17972088230483244 1.503702999009836 -1.1139299304064816
P 2.348729251322316 8.594284991565347 8.043561747334198 0.08410901193577773 0.3941585992655599 0.355768943743768
P 2.961109400311836 1.1458985279616885 10.907556827402626 0.061331351919629865 -0.0019136720829450917 -0.11898885453209829
P 6.105968750165621 0.0340046502143466 3.1892552304929027 0.6454014008697787 0.7163494499435663 -1.562827058865502
Ni 3.3427963163927856 1.7275662248407857 0.8546062022694125 1.1227048483856341 1.0889786597777826 -0.647795097912936
Ni 7.966668299337592 5.380847387583701 3.244069040031347 -0.17042480171488714 -0.6106354581435033 1.019404094012754
Ni 8.538503592483496 5.652011825371595 7.819239322837023 0.8009981364328979 -1.8465850594886069 -0.3544247710110477
Ni 6.117412268742736 2.3267260257396085 10.265243085250086 1.9670260730861993 -0.3018824781379575 1.1327527195399394
Ni 9.096584568047575 8.884000265984687 1.2590687584210987 -0.22508799758572204 -1.2334887985094372 -1.5861474787589973
Ni 6.23421349174182 8.899724746861366 9.31363672173192 1.57020895315187 0.8622862938194182 -1.973443546576769
Ni 5.867560578747298 3.0807830109183696 1.5305093873250935 0.5888245329159988 -2.4668971214899256 -2.6294648890542396
Ni 1.327024661900679 4.69487151252382 2.5769220339931196 0.20767365876401653 -0.33432285805485007 2.519757202713751
Ni 0.629069457498446 0.8492996502920599 5.4277124168007616 -0.7549036560676805 -0.39935197054104127 0.608821544863216
Ni 8.743409781518777 3.8920115571300236 10.752762754472698 0.5635102225209263 -0.7069708369421437 -0.18733751830982576
Ni 6.915383641381546 2.5678500764662573 3.6295729173368114 0.39854618681029425 -0.40176906462296613 0.6882588623549373
Ni 4.04014205906549 -0.1335918015839129 12.647391461620614 -0.5400147105021474 0.8459826715633882 -1.6190447437076503
Ni 4.086845976798157 0.1465285934620805 6.867982801399251 -0.39603961833835666 0.03676291855164636 -0.3147341372896451
Ni 3.8927204476613495 5.414487465524794 8.925976712446761 2.0592343170903438 -1.5115068113249712 0.34903291057151503
Ni 6.225255693209613 5.3126189755362345 7.136435042427033 0.14464537875793798 0.3961208651982533 0.20799144711475148
Ni 8.108427992861664 4.1012355339470155 5.512116421881205 -0.5751434358844805 -1.306015247813938 0.8806280295513995
Ni 8.531930243920295 -0.17893685902536371 12.372216728826936 0.05660412164728961 2.1543630771753928 -0.933938825159398
Ni 1.0737942339182722 8.20322599027804 11.275692886690612 0.7496555202948637 -1.109939835410482 -1.5367437315148889
Ni 7.921952957640852 2.836409111392266 8.549594507069056 1.7482462771066922 -0.35516293472865285 0.09907977431299711
Ni 0.7877605870765579 7.114333308679583 6.327832153092445 -0.39096683180113956 1.9626472272922137 0.4387207021466508
Ni 8.49207586586693 0.2092295006393138 3.305727786063826 -1.4645093595295102 1.7560228357283176 1.3711706014653482
Ni 5.828341440260966 2.943203009617959 6.148783896983589 -0.3015240663572743 0.5725517638979042 -2.633158792966059
Ni 4.528871445376623 1.5527372483488964 2.948695530280153 -0.3016464508677515 0.07098661562120678 -0.40265429544139686
Ni 4.9818340821526865 5.020427187442523 11.24820450554214 -0.3614868200641516 0.16828564388469724 -0.6056601164160988
Ni 8.769141587168848 4.272234660295639 1.3694356490520845 -1.8061878866184828 -0.46653900991049974 -1.3057967040452285
P 3.9995419649986523 7.04707156553847 0.0010366373224321604 -0.6562586552992569 -0.9116972401523782 2.1239605536241357
Ni 4.113783816988534 3.7862395660339034 4.1702087413709 1.4945012779059101 0.13269489126428113 -0.8332821932775842
P 0.6996307638399119 3.9922413131630514 6.961549907074871 -0.14992745309248373 0.03897946658699094 0.526273706766971
Ni 4.977184865031654 6.662383372662556 2.248468193629463 -0.8554085928629783 -0.23398709984756477 0.7530609464319868
P 6.387444322954616 0.24781063764745284 7.05828308357806 -0.013086400870312946 0.735565874971017 0.97313606418415
P 7.326273164804901 3.371290033203865 13.442924066704254 -1.1561201906212863 0.9741349377623095 -1.4556961321132542
P 8.029336063580894 1.0918203074291264 10.260715392220138 -0.29759902027125523 -0.3413445407883218 0.1658009297896306
Ni 7.9209770823639625 1.8534173100774431 1.395697741645068 0.9064156800384647 -0.5608828122004083 0.6691617365141702
Ni 5.39749250551405 0.8425292853993724 5.010650942569604 0.5573781414812594 0.23929591365498787 0.7419208706547674
Ni 8.422153481640711 6.661131306269566 13.079382906951134 -0.16835660633194877 0.9198486656149191 -0.46665830909718337
Ni 4.030650291042154 3.171033061289617 10.377107852367391 -1.5380835333722351 -0.15210569169072513 0.4438307696797066
Ni 7.799305689350965 6.341983265244403 5.649933026904408 0.5478704591011403 -0.6735215561447626 0.7678293629904132
Ni 7.654250115174757 1.6090986487745595 5.747770967872003 -0.45138029989219036 1.7416344282171297 -0.7280777941240881
Ni 5.824750955751654 7.7875491541756015 5.875966915684358 -1.542438467906821 -0.5718845626275506 1.25578926177885
Ni 3.0036060067092327 4.589946507517076 12.714225108531771 1.418391739235841 0.5558689039255846 -0.25450758839841975
Ni 4.1982522666627355 8.671434376662875 10.135093545609845 -2.061963543096049 0.04385839194584704 2.105610333251722
Ni 1.9509219804316082 8.026813518053839 2.804115004823638 -1.2194377197330093 0.14865115748322144 -1.059895112148265
Ni 0.09594971437051704 7.49792594346163 4.1746149103097645 0.5853782262386112 -1.28082615014282 -1.0906884433800377
Ni 7.1880487175669225 7.047743630587649 1.712131744636012 0.682331955347541 -0.348528974351903 -0.3373058519425739
Ni 1.7369567227882172 3.460923256749154 0.6382970026873781 -0.589668626083849 -1.5761448590203309 0.36197301567195084
Ni 6.184047978687355 0.15681026807746448 11.512653816660565 0.7260311960077044 1.3399484102262729 1.4831848244518262
Ni 5.461937099270934 5.361688930496833 0.4572693769131304 0.808514242304285 -0.4716516485467167 -1.717242115415694
Ni 2.1530754646764163 5.227855922004859 10.25139118014057 -0.630166071977263 -1.7052831432816051 0.26166502537880737
Ni 4.128154961396319 4.626578655882596 6.456378863622248 -0.3260642175904836 0.013449183526370386 -0.649412836022017
Ni 3.6317382556870434 8.750949798988334 1.3942560240190212 0.31766699466572385 -0.8840334556885227 0.7305182852447806
Ni 2.6016282499654015 5.996735163747703 1.635919568059121 2.442918242076825 2.3008470518039665 -2.556079948404185
Ni 1.9460057785650118 1.469244673951585 7.335707853330908 0.2659806220350258 0.270877802226327 0.3372431170254385
Ni 4.2762118123674915 7.427110541293351 8.243751512743529 0.40921729337089524 1.3103948649388721 -0.8814944913167527
Ni 7.140792417602053 4.996269671154228 11.886664460988015 0.019750443154049856 -0.18940751346497703 1.4387865008421092
Ni 7.070409714848998 4.841390899615362 9.452976060441893 -1.5573398104986858 1.1459622762516781 0.0829684705734313
Ni 7.780377391527515 7.366937703465495 10.735286301282885 -0.36168350945599 -0.5008028161893762 -1.047878547303363
Ni 5.532964247961557 5.765342246678343 4.738157104876211 -0.27979181688650523 -1.5433774347813225 -0.23577658764781972
P 7.017012765736152 8.247453394336336 13.52444371589555 -1.1862501772374472 0.7970790038841499 -0.8094976892634768
Ni 2.14330750553698 0.974825750648772 4.001319715149289 1.9781643490912064 0.2641829067046547 -2.410266774590391
P 5.890226663008648 4.401031784104039 2.9512153138960473 0.0914122304654103 3.341734512501477 2.3384512353099853
Ni 0.9016931050164065 5.175812309360907 4.829985127157449 0.1786201930414859 -0.3435382060055309 0.9880096388618727
P 2.2080282904099646 8.107746721441949 4.918498856045475 -0.3273112026237072 -0.09203289476854473 0.283112396619306
P 2.025806598377107 3.375957663065971 4.253871633623141 0.0682195943990309 -0.5280840205028325 0.16679903203684174
P 0.3168740675025979 6.05004925552572 10.718550960921275 -1.2523689232433917 0.1695969064969531 1.0221968262665428
Ni 4.3530205617551605 1.4779999323319843 8.815419249945665 -0.3179619001983234 -1.578203284211256 0.2663454615736123
