# total energy = -381169.3383268543 ev
CRYSTAL
PRIMVEC
9.22378479539995 0.00000000000000 0.00000000000000

0.00000000000000 9.22378479539995 0.00000000000000

0.00000000000000 0.00000000000000 13.49994140251976

PRIMCOORD
 96 1
Ni 8.990847241449568 8.98343131855055 13.119378222908646 0.0786454177180452 -0.3861159314667415 0.1846311751222562
Ni 3.0710129970314592 0.36628017996160944 10.099103420756432 -0.6035775228554573 0.19289521490326134 1.4040156730198272
Ni 2.06636759126273 8.281362946089486 12.234186363279237 -0.45436843598623683 -0.7194224324419352 -0.821776763741146
Ni 3.278843313897947 4.905153360895486 1.8888042015117088 -1.2384952505850928 0.26508330703173705 -1.1550711805314817
Ni 4.586969683874966 2.039941448096456 4.793937576871979 -1.4676918710225497 0.18351223102646458 1.4772836284760429
Ni 8.48049523398362 4.183216956190039 3.106147315333258 -0.8671420792498227 -0.058982134961162926 -0.6064689854706393
Ni 8.551103305864187 0.7927723040681127 8.14154420571044 -1.235928261188865 -0.3956228425159122 0.8811543343685148
Ni 1.5590133138243683 4.640965719510348 5.9391368586603654 1.6857538149994258 -0.9677755712031849 -1.178811204460899
Ni 7.0380890063400665 5.134834823716915 12.505980859906687 0.022313318785219634 1.62592244466409 -2.109463388449225
Ni 4.998673313971526 7.410001229239661 4.824284750914337 1.9047986917148618 -1.31918803775047 0.06735133286146465
Ni 3.046007316709027 3.87157294252201 3.948854422633224 1.6755879302100176 -1.8048329152524853 1.4351198506237992
Ni 3.332903916026231 6.680362964309487 6.164100355607605 -0.7505165827435785 -0.23427943427700298 0.448506320778505
Ni 2.5774667252894017 3.3244180341019822 8.346311303677968 0.028137638776480574 2.6202752521351713 -0.027818564874164994
Ni 6.885831992292707 8.333117602042702 8.951608338956149 0.21064019759150818 -0.12211145932148001 -0.6269935877865523
Ni 8.38527810452273 3.498646103305386 9.26845180005972 0.4823739200602274 -1.3671663654019617 -0.3154432475415277
Ni 6.550326047605079 0.21628483792275563 12.603396939640122 0.5653020243140264 0.2847219071982709 2.1797136401250397
Ni 2.396274698637294 2.7945392744255604 11.339356571016515 -0.24909361647170003 0.22497229794346418 -0.5649754942125431
Ni 3.026831068317165 1.1843247317299925 7.774035417626755 -1.0776624634340148 0.7601137395137103 -0.3420091709555142
Ni 4.780429344178432 6.725531837986711 2.0319702533584825 -0.4940313017934976 -1.447691516641223 0.8812831466368952
Ni 4.048780294183601 8.491240943159434 3.2156723796212066 -1.5748274257604877 2.3022727285068996 -0.7350935633202889
Ni 6.28680251871836 7.118621870558126 13.534366442736971 0.42726643756312227 -0.38404002277431926 -2.136384381209785
Ni 9.150870682214556 7.581637414942288 10.517938881183241 -0.9330798195932124 1.4885355472407784 0.12449667172420495
Ni 7.729863635075631 1.5093893521369146 3.320526519336938 1.4081410080421104 -0.17681733550479226 1.552022254940514
Ni 6.7335842020300465 5.632587141282295 4.191759103200959 -0.5993452299416645 0.02609309754262603 -0.19726840427029255
P 3.6102446743939547 0.5907354463718644 1.1096655736090655 0.07190552789105036 0.4716596189665167 1.012691457879269
Ni 2.0001684884688906 8.070267409439102 8.48189171498724 -1.334014047019709 2.732093042840127 0.10070882527598785
P 4.1838165021955565 4.927954556674555 7.465035863032293 -1.3537593479674364 3.5206449830898725 1.8233898523190661
Ni 4.869337404904337 3.126761551759892 7.30070030291993 1.3061152637269118 -3.213005290753163 0.1139291806210038
P 1.048753544205421 4.368338315124461 9.74880713730192 1.289117957837967 0.17042043083951297 0.2392727737265363
P 7.357130495337712 0.815483106757118 1.3457538772833013 0.7256349890105503 0.6956533550467955 -1.2362738174537418
P 5.853100162111654 0.1729395064807759 5.04079741631919 -0.23764038032943585 -0.17813116922020936 -1.5737506477565413
Ni 7.441860181594394 3.4159733210368644 7.22461514768434 -2.275170730083785 -1.3974745294671997 1.6562380649284958
Ni 5.417525377210795 1.225416692569696 2.854683884942142 -0.3130161261572738 0.26161540308779463 -0.3687494151638359
Ni 2.4592731481401393 6.033572733557142 8.342774904623885 0.990631649865752 -3.5885413898215295 -1.1555622612352874
Ni 0.4708880446258437 9.100564160459284 4.023374301605177 -1.0565933014685416 1.2055884725547432 -0.594311524172499
Ni 8.184734577569456 4.031476474085895 0.3907610269345966 2.3368077861692917 -0.6527372724095598 1.7821017922035567
Ni 3.863686606603279 2.864012820787995 0.8298869689450599 0.14231853039697426 -0.5444804595829849 -0.3861899792377865
Ni 7.510992447922919 6.434871934511797 6.341030071349718 1.2909141305064413 1.8650489226207492 -0.8446508401258421
Ni 0.4667188939413216 0.816952455659871 1.9036674081777243 -0.6242867303783506 -0.32921253341147816 -0.8980143433486469
Ni 2.3906297424007286 4.689243008631562 12.917337675698517 1.4922693032515977 -1.099280555924423 1.0508569132053964
Ni 4.337327950962154 8.718920844700904 8.413541625601297 1.2860303200515788 -0.35152173843163975 0.1781152283806094
Ni 4.334699172322576 8.582722439816713 13.07035934149753 0.8683294146897045 -0.21810590984093403 -0.41199254212318726
Ni 1.9955197009799548 1.2745886888068365 13.130974365033826 0.13769363003045318 0.06567625915188689 1.6239771480122611
Ni 0.00401972537237775 2.5889595610259386 12.269610308420623 1.3591329535745236 -0.6843860096630923 1.1166894954294897
Ni 6.536167538090163 3.2960917912874526 4.54748266157311 0.05586081572336186 -0.19426946954296864 -0.7518769534262147
Ni 6.278353531932912 2.8785771768297224 13.222085065546155 -0.7742463222603505 -1.1861671306053376 -1.066265791561299
Ni 8.219941763770386 0.7845825056327428 10.963883044844145 -0.6620680628921823 0.297662526519339 -1.354650749433454
Ni 8.452335019293695 4.501603556473966 5.590190937285973 1.10538872570469 0.32789175771752566 -2.2125643681064733
Ni 9.112573528139034 7.600500054654342 2.130371433297905 -0.42678049906563914 0.7844772559597393 0.6233431355181587
Ni 2.9404226532450335 6.480345193084129 3.7173706322813627 -0.0690757717517391 0.40880900218888305 0.7628941304723249
Ni 9.408906059204615 5.091944224860659 7.685624518896195 -1.1772693138950756 -0.7388753989602244 2.6658038326945896
Ni 1.2526729763589948 2.9135076494896452 1.3675847309119005 0.05127036813920202 1.4744078495901447 0.004596104011114665
Ni 6.535724796424551 5.31727206130356 7.9042964722993805 -2.057775730266946 -0.2310305883224021 0.18244008100820838
Ni 6.321963585995789 0.911995255589925 6.94981000773072 -0.6932164634705287 0.8934778889308741 1.7010511074781285
Ni 9.256067946721139 6.594876927707384 4.439888135422928 -0.3909745451106234 -0.0905964194323343 -1.2827909871786747
Ni 3.362807426024507 6.602338969529902 0.10340047124696891 0.3878699380433707 -1.2725019465478409 -0.44214566866779986
P 8.952503968450547 7.7032437924306505 8.289328606556639 -0.12780002506582505 0.2796740603617183 -0.7200976041320888
Ni 4.8991579008403106 4.7215723740060085 5.53546161076692 0.03458570839466947 1.0905855992535864 -1.6273098119299203
P 4.435856419130439 3.702860696569368 12.11147220924837 -0.14064062847391906 0.5888774976411213 0.4330079680325898
Ni 0.5227063446934916 4.966777466477992 11.888007577314925 -2.3277767863152747 -0.06711376292936183 -1.2632722004194565
P 3.933289285951518 7.779284673499678 11.013535600264168 -0.2771104133996002 -0.12600153840450556 -0.2391917839769558
P 5.096842054536501 4.4567482914765515 2.875676296541487 0.8206753031468511 -0.13716218300701538 0.7619757324231134
P 8.0769546533468 2.2962704249169645 5.696233100471099 0.988500205345046 -2.5924731423212384 -2.0896671796589046
Ni 2.11107527570494 7.982779811557039 1.345273318100417 -0.010788863085387871 1.1386099496516648 0.5217850748679982
Ni 3.452296585186528 4.783989725072737 10.415569629065764 -1.131032137304407 -1.6594221190834324 -0.8574755026943363
Ni 7.57141746149439 5.619766080548919 9.816981974778558 1.3512926315944984 0.8784006828827776 0.940289192857458
Ni 5.537914215118723 5.003644933924972 0.6396215052832964 -1.721882442401183 -1.454433977571379 0.4315884619772438
Ni 0.8835039070292605 6.822750528727559 6.5138026273274185 -0.1912862185449286 1.9602334756443982 1.1901608251457632
Ni 7.2816153699966 7.902385304109484 3.9730733141207235 -0.5366756188265854 0.7528274902649421 -1.1448950113294283
Ni 6.693589871569675 3.0936389409012217 1.9212304166255085 -0.8240061672922969 0.33318025980997457 1.0833813681956632
Ni 8.021233769972465 8.950142679567277 5.889997145669676 0.4714469887350784 -0.009675061195918822 0.24809602844512113
Ni 0.45853462977677184 5.993523060388568 0.6180194015152637 0.33899403827827423 -0.12244416007055041 -0.1558060233604478
Ni 5.024481463562882 5.89527130576129 11.503570377170835 0.3110212072144321 -0.286363556566752 2.977858880490175
Ni 5.890327357161945 4.041668756179693 9.81799382396018 -0.9348466816856481 0.1227606628697047 -0.40100570409438036
Ni 4.436077789963246 1.5707367441784115 12.172505992610061 -0.8076374961262864 0.32824091352682827 0.7063272898208739
Ni 1.7576198459905858 6.478205275033666 10.402204365035072 1.627028276133759 -0.1754219978191624 1.09145668900463
Ni 6.800179927565997 7.345554645538874 11.056681697956623 -1.17614599892391 1.3828416100453733 0.8472224575077604
Ni 0.9844914361986387 0.4092187424983072 6.6010799229183155 1.531187834693666 -1.5938836710609905 -1.2419155891205513
Ni 7.181897033601979 6.176034088252814 1.9536575541177785 1.1217391420382552 -0.25288805051712576 0.05723147081864337
Ni 1.1043452945939496 1.8369997371211113 9.401696749082884 -0.13024720105473697 0.18881230308313934 -0.6278070848267834
Ni 5.661854210136253 0.6304798122668587 10.584210851876215 0.26922766821741373 -1.5564635785413197 -1.5375045209403133
Ni 4.387219402405915 2.316562751257559 9.548468378368995 -0.10912533147445723 -0.3866278381061535 0.21402479779302497
Ni 5.531586698814337 7.26281729677745 7.13617657759968 -0.42154624724989337 0.1909244643301357 -0.3655921004817768
Ni 7.4281351899603925 3.3665707301822168 11.27570415517842 -0.1132565800340114 -1.1583339104431534 0.033509958831987444
Ni 2.6884473028030524 1.4146795308345403 2.875460459979501 0.16174192922890857 0.21213683674169273 0.2530631426424093
Ni 0.5306489456988943 2.5440028343968217 7.162339842901996 0.1515534187316809 2.064767331093431 -0.5283555289966643
Ni 3.772943012722021 9.285953009150013 5.961628135273504 -0.40584889111929456 -1.2131161483903559 -0.6084993856371069
Ni 5.877395611012166 8.54031147776487 1.5788177019543181 0.37101712815209004 1.7339691983623877 0.5968054942389464
P 1.8160801934208985 8.026998635410134 5.0137163844391965 2.4789193427617824 -0.9004936581270749 0.3670434882163227
Ni 0.8391199774300303 2.6100820279895567 4.065696715323896 -0.4225209524583368 -0.6480270114180839 0.23927405927811696
P 2.2152210287556904 2.2918522320455352 5.774545799711804 1.4941870890996007 -0.12560173186292561 -0.2256312716837017
Ni 4.781397841571962 6.444298642475473 9.406745848827812 0.4194939927065549 0.9219389724850445 -2.4007608919824848
P 1.1296738073808916 0.8230539892390997 11.180313618565163 -0.11735517558341724 -0.831124266394317 1.6770879117943116
P 8.357090218478705 6.840377181289775 12.45275039840143 1.0941535191105027 0.2340629473908227 0.9819603473439992
P 6.701503878842507 1.8447292686999377 9.154701320000578 0.12897579054148112 0.3542987869561447 -0.26472746635421507
Ni 1.3248490916386089 4.9407571698385295 3.2925415565563183 -1.6328160864601298 0.7447675960749431 -1.2299450470222366
