# total energy = -340885.17061816406 ev
CRYSTAL
PRIMVEC
9.10877338731757 0.00000000000000 0.00000000000000

0.00000000000000 9.10877338731757 0.00000000000000

0.00000000000000 0.00000000000000 13.33161058126850

PRIMCOORD
 96 1
Ni 6.526108172100725 2.0792141432152516 11.324216461127985 1.462254502057062 0.4406346313399121 0.10059518251625901
Ni 4.836039042910584 0.9185560284943185 6.247952650173235 -0.4119822577105421 0.15066715947198567 -0.19954100235455313
Ni 3.0678348561316744 1.929447692192339 4.516682717475805 0.09557458937321604 -0.9965012212726514 0.4166830056203211
Ni 3.4977598483364214 4.519226797865704 4.78288843967717 -1.3059291158580348 -0.3700046277271757 -0.6903260292966111
Ni 4.209574048654907 2.632326185878208 2.3131675208245994 -1.1486035705292672 1.6183294628081806 -0.383557683821262
Ni 5.372819055000369 4.8331606705396295 2.864616301478263 -0.27044817088807616 -0.7133785402407005 -0.7408263520390079
Ni 5.588287088022325 3.0610852550972516 13.182789698949554 -0.850157114656052 1.8103433035477534 1.6690326455900029
Ni 5.933127028590713 8.215712753851248 12.381333327699808 -0.7520787850243756 0.08219276874967135 -0.1403223259025519
Ni 2.690403724603551 6.621449702501942 0.33109024723308245 -1.552101702028198 -0.8880400057447545 0.24374855010970278
Ni 1.022824156754827 0.27179213288208126 0.115853577053602 0.7345014382622447 -0.4316833356838952 -0.1460787687703549
Ni 7.949272025298078 8.821072720311031 7.157568417648275 0.9574456500320865 -0.21222528269044094 0.1256115020549385
Ni 0.1565816352252812 2.5836580099984228 1.3452392082724112 -1.010286447982202 -0.9904902391918812 -0.0043621336234376485
Ni 6.880239061461435 0.7746875081998655 4.906673025665551 0.8973767097646481 0.7883393100183068 -0.63534247397188
Ni 1.1644564731977944 7.539386334410106 2.206461884822105 1.0208773361241708 -0.6604840062345141 0.4901121692447495
Ni 7.694818442441671 4.196457415065745 3.7070940334007796 1.5414151688486293 -0.9684687406154676 -1.0393921070989067
Ni 7.732556090330488 4.093118381684469 12.493892261441466 0.7487371222456524 -1.4414684185496467 0.4377480538207364
Ni 8.468690715428876 7.124190228673188 9.249177779605283 -0.908959529506241 1.6447498617832381 0.22701735339795098
Ni 6.801284214273342 1.136528974180871 0.46184031218370863 1.7889841211456867 -1.317736650015924 -2.0717301355645095
Ni 2.3153226565934855 6.574402888274151 9.212409305198333 -1.3009722860733917 0.9824745679762563 -1.2444085307457342
Ni -0.03257570604508227 4.899253929791683 1.1763816792359403 0.5328744999129403 0.7028997521965636 -0.11266368364501887
Ni 7.006523094850418 1.8408284365055658 7.139397325740623 -0.7622953205460613 1.630788771617456 -0.6528984805777723
Ni 4.0149286714557455 4.692202403322772 0.7042584728447286 1.0157364153531796 -0.36538718355982236 -1.1060502705480888
Ni 6.441524102997284 5.939484952372126 4.642973127006117 -0.5713569722588546 1.3209782968816735 0.06554436155971292
Ni 5.770289487845267 3.751184139807014 8.589223469339945 0.029873390520664685 -1.4793610798303618 -0.394016931481373
P 0.316179185298737 5.951098638362528 12.55796337301519 -0.02046263872972605 -0.5315686366173232 0.16992112260559122
P 4.463535757751722 6.434947568656051 12.349617489856682 0.8024842340601211 -0.8626783870515143 3.524337344339795
P 2.9454129426328333 8.49324796831525 1.273876523651379 -0.8505818608982963 1.2084519101454672 0.6920628094820597
P 6.7910004091885074 7.837716878376924 5.609981453452399 1.391044971791772 0.46402189991560083 0.3071856355184258
P 4.831147631634626 1.2736342302809127 12.349844298312496 0.8351169324934778 -1.8722788647102853 -0.322895847164831
P 4.213099143931994 6.477239603207773 7.885793894867865 -0.5076980006473127 -0.7166803509204238 0.5602181820332158
P 5.029755325230514 1.2990112727666099 3.7177194174853327 -0.390485778399663 -1.5006305307320995 1.4343544332126845
P 0.4613429731601196 5.647548767280023 3.2736703613615896 -0.38498361763451117 0.24527372850497756 0.8757696730178337
Ni 1.0903930372856605 9.04165988394209 4.50069864204368 0.5811806432174959 0.008453787194308022 -0.15739085134906441
Ni 2.0925129522709294 6.496613964071763 4.569009887600567 -0.6835113203676229 1.1180503803327584 -0.40461604715345806
Ni 6.00153391626752 6.0766721874320995 9.133446260114246 0.2787602902981974 -0.3986372038622038 -0.1648755897618838
Ni 8.967933472643013 2.8018131311514916 10.284777901826885 -0.2772343405719741 -0.8265420463402734 0.32225075738166437
Ni 2.278013121050981 5.76456917819666 6.786843165042609 1.193047916885571 -0.10581375060272101 0.28944888036029504
Ni 0.9310532654973251 0.20853807827568224 8.945391080416305 -2.131195123699362 -0.9077328561879916 -0.4886134732120359
Ni 1.5673010823049185 1.1110153000952867 11.285527857303952 -0.7489826625975553 2.2227338524403075 0.593271770054075
Ni 4.764507845983024 6.965715790350805 1.687902152015931 -2.064489909062328 -0.9130252149351824 -0.06775319628557364
Ni 5.789636522389281 8.213335364013213 7.980581611850875 1.1302456368473697 0.39926918101924785 0.4641314289102716
Ni 5.33849719710873 3.166683264263328 5.11333925102278 0.07279975757054559 -2.613656461267073 -1.489936284243047
Ni 1.076055828070841 7.963290427446496 6.691921549091711 0.18845517685403673 -0.9576420823136087 0.26463387819914425
Ni 5.071072721036373 4.95636593854449 6.423636293940065 -0.6460814576559388 1.298949856326724 2.0012618543406178
Ni 1.0073028070076524 7.626675709191311 11.34774715526054 -0.499660732165133 -0.09996063425605364 0.017109920207409243
Ni 4.567776559692253 0.5068649787331708 10.209800855950173 -0.4022074377119654 0.33205797328007325 0.7606449294268319
Ni 8.41074980830342 7.629672495615501 4.006148724847 0.18975769771554415 0.3827660411579021 1.6378330800587468
Ni 7.272317100497456 6.0399911572490765 6.984151036684904 -0.23096759629495062 0.9398261371781105 0.6523552064797926
Ni 2.4736331369960043 5.351704918431149 2.3589354632774473 0.2504966674668137 0.12596837117372497 1.0896841704852394
Ni 2.6355689091821946 5.796012663717345 11.386488589969861 -0.7890227092385766 -2.2467158171772015 0.5684089453741243
Ni 1.3195151215230005 3.4351734668148044 3.562846588135973 -0.7128769180139336 0.09292918133056899 -0.23578995738425843
Ni 1.7141618346368988 1.1461660563595746 2.4183938920389827 0.8030887004133396 -0.4831552783109421 -0.04363881973587323
Ni 1.5947275987889225 4.041125503540765 8.197006976949373 -1.5938993547902742 -0.8491921796396213 1.0289449436236537
Ni 3.452543897547118 3.109771648523688 7.193736623893055 0.8899873592791124 0.7595768931736339 -1.5720076969235055
Ni 4.716987375542291 7.620973617089357 6.037486244584479 -1.4315352185963348 -1.5760756963452922 -1.7663039059393513
Ni 8.268580074234231 7.736737017287033 13.213318663628327 0.06547365622277757 -0.9232690041503777 -0.44712460993962994
P 0.3290079816508031 5.896482433500993 7.937094506238807 0.853270463474053 -0.08296050015363132 -0.9126171808634863
P 8.952293708842602 2.0996542305583614 8.118417391571645 0.28548835305065023 -1.5955050087144975 -0.4773204167967199
P 1.95746627894252 3.594467694736511 10.370272848262909 0.30658451159931716 0.17831294621371227 0.010237104346975917
P 4.194772292000471 6.409552308623702 3.9244931263678065 0.687248675922868 -0.2860203142947203 -0.3776469747637819
P 7.11686677491924 4.0923077008584725 10.307681001477295 0.13945123615150823 -0.1942285890027042 -0.7676650694984068
P 6.294718003305259 8.087588748250452 10.131237686015092 1.8129254624526328 0.15110733233319784 -0.0174845299380086
P 2.899650465443981 8.927973284062698 5.793664421953952 -0.5560542804635134 0.1103841435822228 0.13652403520238424
P 6.956461276651785 3.867266347071094 1.434600828985237 0.3277837713847516 0.9737862961736391 -0.08033514671564229
Ni 3.2330680042618067 1.726030566280425 0.21645633492780594 -1.8379896045101118 -0.024133659823410047 0.4254376118844996
Ni 1.4944855483384203 1.3219380552276654 6.617411783286612 -0.08947901799843945 0.0742424035543431 1.150206910460645
Ni 6.647282183653931 1.0831333449449927 9.347938743513009 1.2440285216984963 -0.4011062342279866 -1.4684961120914
Ni 2.6797009159457277 1.6602834404147526 8.954269401776969 0.2428728323729688 1.6100119440814207 1.1626345947010364
Ni 6.550282856507415 2.034480957412215 2.4901846890063277 2.1534444220158653 0.5358950319068191 1.1623404604993854
Ni 4.310089362305183 7.147508688387253 10.486671129961392 0.37188101881428215 1.116444212187903 -2.3048397179031275
Ni 7.296847027063853 6.008866478794795 11.251839059158458 0.3893709480689294 2.784310348273631 0.15151099552951972
Ni 8.047373514017016 4.076294477351705 8.217337759012572 0.9162753464413639 0.18701484486308437 -0.2310305883224021
Ni 3.1754732305227313 8.400784810284987 12.314661661341567 1.1598788863327703 1.786269807538317 -0.05826094052442224
Ni 0.3012981823163667 5.2887815122964765 10.447983437014694 0.9091389925068989 -1.0865903620512642 -0.5255653678460368
Ni 8.845283839811026 2.7295167972645644 5.642070751001883 -1.1080271917688014 -0.00573818803535786 -0.31170306377280516
Ni 3.756230400229511 2.94735311135123 11.347400110996826 -0.45623865642575623 -0.32267216118979913 -0.20181668576260725
Ni 1.0899922512593252 3.730835140197162 12.553750565352004 0.9770184299576917 -0.21474239268533982 -0.22287582042575163
Ni 3.503680550998196 8.640099611873906 8.085968297475791 -1.2241826906171625 0.044670089213865 -0.5025431959192506
Ni 5.929447084167086 8.132039562080388 3.3742977129237737 0.6213268764190784 0.38092847372853106 0.9772169191217427
Ni 3.549597877333587 8.468991304948627 3.6793514424823703 -0.5816853507680563 0.8237205177310781 -0.14627288705903194
Ni 3.803149691630741 4.644918760988509 9.270175323875932 -0.9148396424361018 0.14969939624207768 0.3161299891959072
Ni 5.296551295943391 4.749068475195783 11.3311755639489 -0.5194430569983828 -0.5344768114030536 0.10164753504017332
Ni 8.645728833789255 8.948049020472777 1.793368083968783 -2.356457956300051 1.859635464914662 1.6674727573020507
Ni 4.844901879356594 0.44156327188313044 1.5249225144066032 -0.5392107265436134 -0.937469978241108 0.3522408759858514
Ni 6.506897769156598 5.791631343747633 0.284628216252808 -1.1828514359685434 0.27864433354562335 -0.22393434359725303
Ni 8.168948311596557 8.899289756859734 11.053944582513981 -0.7242440222002946 1.2452120004836362 -0.01257166601742351
Ni 0.09391418562106414 5.5030380784661 5.744857792719615 0.021571298412872527 -0.6216310379230584 -1.3731094703592739
Ni 7.60966962939203 6.328584422530608 2.370746809649021 -0.8560467406676096 -0.0931155863097622 -0.6145270798884256
P 8.795212912839066 1.3549391409870626 3.657860202697462 -0.08207501222488445 0.7085091279635412 -0.8183854786714099
P 2.3081085081194463 3.463492643084737 1.3131034559789654 -1.11235538683051 -0.8075529068322803 0.052232989162787465
P 4.746590888851164 1.7978714615010618 8.227790076403936 1.396633778733459 -0.9058711203889044 0.8827165366493122
P 8.739111977925424 1.769880201070858 12.601131671560852 -0.4433335183283139 -0.028002398750196937 -0.7015717774137595
P 6.517983146294105 7.95769764062445 1.2482089112965886 2.1642119449450146 1.2179817040127734 -0.40598335981462985
P 1.7851738314848873 3.285716714084969 5.743084314553081 0.9484282770248247 1.7170546819952364 -0.018941574099509317
P 7.038248952344202 4.141504185591154 5.745857025153456 1.5595206202000884 0.10049773770644628 1.9628014934818907
P 2.5417394351530604 8.753021074793931 10.254781800387672 0.8096172455604765 -1.4427585981159798 -2.0433119894331324
