# total energy = -340860.46400898544 ev
CRYSTAL
PRIMVEC
9.31543440921288 0.00000000000000 0.00000000000000

0.00000000000000 9.31543440921288 0.00000000000000

0.00000000000000 0.00000000000000 13.63407987642295

PRIMCOORD
 96 1
Ni 6.601941576356576 3.0353784354761926 1.5774086051570781 -0.8419655799841951 -0.247929935180902 -1.1471233864393149
Ni 8.025293389029464 2.297176829433697 9.337176712612766 0.5798169301007499 0.3281722650724219 1.5115494916374486
Ni 0.07490447717871287 1.0595095724204089 4.591221809792355 -0.19712647937578953 -1.465048519862432 0.22459974509539385
Ni 4.324681145859328 1.0391087708905575 6.497279875247746 2.1545155435928574 -0.4574270203069026 0.3404994191792071
Ni 3.666461860335236 6.157213418440307 7.583915992898715 -2.027942191845282 2.311202941116994 -3.0618542496662235
Ni 2.807522907887077 2.496145194673922 6.6782182170354485 -1.823227615709589 1.1887865705060556 -0.21059854572029538
Ni 2.8714547347817665 8.544684754371195 6.55093025709746 0.6974986357856504 -0.14786234303333887 1.2459342233616415
Ni 5.948873726104633 2.8617387366102434 5.571035045533157 -0.2138805589056768 -1.3302725776994058 4.21056812052111
Ni 5.55158907603838 7.722197097076602 2.9983113901029363 -2.2151519263279913 -0.507568417047984 -2.2846832975599103
Ni 7.865850412324015 6.508237620836589 1.8734316877028112 1.1098033098326177 0.07634505171964272 1.4084827076522453
Ni 5.825043655448783 5.154406895751499 6.672491087911908 -0.26947397990026495 -0.39454272207785596 1.2952816634465174
Ni 1.5814440513775037 1.4479818214605267 8.492995271481314 2.8967099796239855 1.1465058074599739 -0.8713985405333315
Ni 5.246340918718669 6.069126669916894 8.902495250792361 2.0672456174305944 -0.32765187379257765 2.9716280690891144
Ni 8.827790123911702 8.473039747720014 0.22674326471118636 0.033679651640632316 -2.038033000422381 0.5965139311404566
Ni 0.6211960226929318 4.125302901501608 12.39637844024989 -1.1537113240694776 -1.2195454489554673 -1.270954913775695
Ni 6.978219921651226 7.522148141435709 11.708374916035662 -0.07935504219056011 -0.19400773124114976 -1.040888232028459
Ni 3.6906633591364018 5.829133131189242 2.92001050550971 0.522074838194275 0.1923380568482107 0.7166790653688432
Ni 2.0510351039436236 8.98624566456137 10.325688701078946 1.4960773641437783 0.030385811380708963 0.7590315621931251
Ni 3.3176361004782446 4.974702849033525 9.43686956096542 0.657314607367597 1.502607451952812 0.6804275392359765
Ni 0.9484137007103602 1.037981603317447 13.506737243369315 2.006768900201776 1.854297083420884 0.24909258803043552
Ni 1.8840000481300332 6.858134655659759 1.3933896491840243 -1.761198723502302 0.2438668208551219 -0.3714583294545667
Ni 8.029774113018442 4.364262427001035 2.9841863967879982 -0.3760567474585266 0.24570335984322844 0.5586870901006701
Ni 2.7382253907270027 0.9824522983313998 4.578528598758302 -3.2854420085573355 -3.011126641404369 2.1272286828524463
Ni 4.807742316695843 8.443118572142899 5.222288466869319 0.6722331763506422 -0.5311536605670918 -0.6206930994898213
P 4.31544023484672 2.0477560710036657 4.219802395126916 3.025498336745009 1.2846498947642844 -0.3565104498954828
P 8.68713637856959 3.774651316484867 10.762606798720041 -0.7846991421625582 0.30828863877461743 -0.7202097042299209
P 0.1967345240498791 0.25900168280147035 9.324715455897476 -2.49236672651594 -1.001325125023856 0.7802547332379595
P 3.2792099332131137 8.088181887261442 2.260639832282837 1.4221134110618023 1.8506114070391808 1.8587234946233537
P 5.5156408143471936 3.1454216630890386 13.046273453515045 0.5718336547849572 -0.28907041397495375 1.1418544247308915
P 1.6145697364186686 8.405912726795764 13.186854538468145 -0.6868699524272106 -2.1086776593231358 0.3735113553288535
P 7.271218282618538 6.6496645472412474 9.049866355944141 0.26589140475532913 1.2683866388278864 1.5363567804891152
P 7.869576586119423 2.555521774103727 4.723581092265891 1.1786620804775443 1.0094112444661003 -0.06425546754496031
Ni 0.07520163953889654 7.288638145112063 10.925478786860715 -0.26116880246867924 -0.27723794011639996 1.3952304706280294
Ni 9.006357687622076 4.028385121083081 7.953713590419705 2.7469290794116947 0.922150060054586 0.7982174883639672
Ni 6.44850705489622 7.188571747836419 0.3113944809952341 -1.007119105997814 0.06681731473486559 0.2247884640674322
Ni 0.8862518063684892 5.527778825485732 4.038619057412165 1.1713200382901765 -0.9382950452455647 -0.46301762702080257
Ni 0.9552512296249314 7.297608908524505 6.273735530739916 -0.5823882903723518 -1.2905788586542095 0.7099373757696353
Ni 6.837137666322643 0.7259396996252611 6.676336499268768 -1.0376216454620453 0.7897696147069301 -0.9598231491253275
Ni 4.57711078962915 7.506740412791702 10.841138706088584 -0.7213111648242158 1.1136118849454306 -1.569469246772368
Ni 8.485000765603269 8.55143844437537 7.303312749061824 0.9656783223545239 0.2592199062724246 0.44093802151294387
Ni 3.2881713811910664 0.01374212895745964 12.480936502189051 0.7825229604468459 -0.9161766160799706 -0.05251092541452247
Ni 3.888504556803517 3.703732913723791 1.5027621655136973 1.2946041777635189 -0.04752915592921492 0.2644330750422478
Ni 1.0359601540334389 7.542306741668858 8.885302684900354 0.17909893245011738 -0.8146172698782294 -1.7953743409427467
Ni 4.165275430891833 4.2961852317589555 11.77634125760733 -0.8922722986585472 0.9960008845974654 0.22111512898090308
Ni 5.594440074685555 7.970583842278407 7.613842757736524 0.7232747163084898 0.5226145127478289 -0.34224879777014605
Ni 7.526945590197294 8.450477765388827 3.5301900953765224 1.8074045326344033 1.4462704679239802 -0.40176623640948866
Ni 5.671497348774565 3.743919698107251 3.7230307678102013 -1.151061030930824 1.9582827796759306 -2.938054861119359
Ni 8.98052598778542 1.8203290534010224 7.280884908987271 -0.5552289563487406 -1.1763203197182452 -1.5597610183456685
Ni 5.361013917272307 3.1005119534199004 10.115151497747432 0.5921911353953865 1.4619963632996693 -1.3964360609003563
Ni 8.102415871159893 1.1759245572234005 13.389852760668102 -2.065538662041817 2.3627864696212404 -0.8096491272396765
Ni 1.4389272191376885 5.332238540137279 10.532285475621817 -1.5731382109835228 -0.49552099896514656 -0.7123791524419087
Ni 4.163701122463273 1.0744887910779435 9.067085936596165 0.3447476529325998 0.3712516127603993 0.41881959234734967
Ni 3.955566369686347 7.169447160831494 0.36911850234677585 0.19627930088414583 0.6307839080669202 0.3503133199458354
Ni 6.443942491996847 5.127904484631669 11.497864727464167 1.036843372535124 -1.132119971051947 -1.1023275702808628
Ni 7.008625499821744 4.506388010992332 8.570082354960686 -1.5299423923223394 -0.7923443174126419 1.567539890960139
Ni 2.471673548272589 4.541264997717338 13.394488120869589 2.049049149027226 1.4633017123746541 0.9003131666851526
P 4.32862157464797 5.6670632019580305 5.33306575071986 -2.586316121580907 -0.2906177038574156 -0.48615472725889824
P 2.3066040491360758 2.5525408350674015 12.627680678599756 -0.7585260833116162 -0.5019824383197743 0.28063282473056184
P 8.671570287539279 6.434515272294469 12.981348601303878 -1.4263073945384919 0.31357225577105996 -1.1167172633436317
P 9.280324615929349 3.104638690898313 1.3376609938999229 -1.9493068014295654 -1.093513828643975 -0.7627951430006155
P 1.9675036028850958 4.670134718431477 1.9621621327493803 1.7185626339993305 -0.5353167908058458 2.0222934781999364
P 5.858309072007277 5.33255526490989 2.040626037446155 0.34697319982900887 0.052663906052618975 0.31149634707863777
P 1.082956521028005 0.34774889563011885 6.3846898078457395 -0.01589764506686294 -0.11213557905569074 0.028249224653680384
P 3.6835743134906402 8.279576804262502 8.66933924097928 -0.8650687416605618 -0.4698428774727521 0.07062383296514933
Ni 6.219999446892909 6.204647610855834 4.717500908175237 -1.7174125795552875 -0.2761783885036341 -1.7019648775416496
Ni 2.8634527765561306 1.7474730402663343 2.4946686983074926 -0.01650005453755223 0.8410852342617708 -1.2373500812370561
Ni 1.2524787978500294 0.15880393789953734 2.205612629215721 0.012750871907765136 -1.49785245376633 0.5613476676519688
Ni 6.6024446098189555 1.9536701826696485 11.530137118706183 1.5461025470219694 -0.05146860019293717 0.8061015190977344
Ni 0.3562874228822932 5.227020707589485 0.7625307262961541 -0.9251482234509616 -0.303898994347354 0.781765513455531
Ni 6.574507621787895 1.2411232832085277 3.681310662909931 -1.838709513395272 0.42300791939708443 0.07361788259646677
Ni 4.034905925225043 1.9494409754118622 11.575183765262302 0.26965292868029045 -0.7239933396420694 -0.5241751723667295
Ni 2.5734074083216787 3.4098495864800697 4.277052260862991 1.1618774048200378 1.2228637146954229 -0.17671603404023759
Ni 1.9149924986733278 7.943177834013191 4.300979885890196 1.7174681153835711 0.5031229796821206 -0.7069258426368212
Ni 0.9487770026554123 2.0467779503823715 10.723122398097015 -0.10873529512489016 0.4792744551992972 1.1278239147797544
Ni 0.5231436223537043 2.9711205683744053 3.4477177592193384 0.2768252780590136 0.06931565567668707 -0.8767371791374257
Ni 4.318635428876281 1.1446805899489159 0.7045849976037857 -0.2507257527584843 1.2600961166843203 0.9451760886361142
Ni 8.273223677941335 6.624391773473901 4.627379668759532 3.0462803064873665 -0.4825623819219496 0.5782583273643783
Ni 5.948873726104633 0.22849642948192517 13.12055193349613 0.1756783368043426 -0.8401285267754562 -1.9217664299174517
Ni 7.0338144346786935 0.24813616001406466 9.031242007771251 -1.1278100308226835 -0.8019527870366834 0.14631325337866416
Ni 2.4269222009897558 4.8209609182350475 6.182332487538592 -0.24679273625266532 0.760327398186413 -0.24435635889703078
Ni 8.17854160180005 6.219533675168483 7.228598306746677 0.7853719998598668 0.6369388719247224 -0.17964632031315514
Ni 7.799151901386237 4.199798431106275 13.384589540182091 -1.003638603648381 -0.4961046393827585 -0.017229219394092908
Ni 8.253540164867099 0.09015198034951678 11.067341675599435 0.17765165848062953 1.0216790060898597 0.8357972463899541
Ni 2.5154095131961745 6.767299853962235 11.984737774093382 -0.03022743142597375 0.4761577639471864 0.3788767334058249
Ni 8.322567534427007 1.0738739724017015 2.0697349071358717 0.31472410998731604 0.5083901416183308 -0.021458426984092074
Ni 0.4644712897712315 3.612423024867351 5.8769697503746725 2.607524637337722 -1.725016102934158 -1.2096739554780265
Ni 4.562951329206605 3.573130522194788 8.031263650993155 -1.1964119482617976 0.10868284462039993 -1.8125156286087236
Ni 7.904416311106474 4.519196733414042 5.767693183020231 -2.038357987861967 0.16361883453664725 -1.3502924724647583
P 4.944772358021922 6.25377721234827 12.423073680863633 0.05883635341191803 -0.5047695141466081 0.5987577328693108
P 7.001070682451557 8.029541227156228 5.690469162653877 -0.5960333919596122 0.5585647055901929 0.009689459373622021
P 6.254047359948436 2.326008099175656 8.113558993895058 -0.09365191842920645 -0.8478428647005786 -0.5666482539292758
P 2.7731862163624053 3.147536266717932 9.856935106073344 0.21797941156539882 -3.54333368293664 0.21597523665117646
P 1.5027472608185155 5.532296811212662 8.178579795081454 -0.6103999450939294 -0.3464484376737904 -0.6693337433156601
P 0.3047320822490471 7.501495823174667 3.093504883597638 -1.5804967082311232 -0.01932852512528284 -1.0570424731908183
P 6.355893005211389 9.32577462079882 1.5152644101407353 0.5854702717317852 -0.1658587796107595 1.4255910851977578
P 5.645824011324214 0.0948516170489734 10.869715664469005 0.3003231040706376 0.17635299427386403 -0.3139931453585625
