# total energy = -340871.3625350331 ev
CRYSTAL
PRIMVEC
9.21796796310629 0.00000000000000 0.00000000000000
0.00000000000000 9.21796796310629 0.00000000000000
0.00000000000000 0.00000000000000 13.49142788048648
PRIMCOORD
 96 1
Ni 6.793338211556346 2.3386722213851328 7.582627642017049 1.4147646840062151 0.19459137165876164 0.8616931403201096
Ni 1.9927311008987367 8.364273533425092 9.84558531797195 -0.2072311719099592 0.0020805366781125457 -0.08835441747569299
Ni 8.964068274233767 7.1765383586356695 1.8045462844972928 1.8568054516650345 -0.4950661708159151 -1.7983002563402901
Ni 8.61179440974209 4.827431397492201 3.7829563503354717 0.5445897314673395 0.322296008797303 -0.9833009205322936
Ni 5.635026790573116 9.179510621965072 12.979873261245476 -0.37018460494846567 0.304250721259818 -0.0816068143392143
Ni 5.314296812524043 6.626594388686607 4.607916551505392 1.0806871091929517 0.7098281038852808 1.2814984936194962
Ni 7.606565783075726 6.699268848275585 12.378803675464559 -0.7483329448286983 0.7116749272860324 -0.6159064767344554
Ni 6.264890542946893 4.951781785601702 2.9381093050360154 -0.6688300642063643 -1.3690507269088679 -0.679690661069952
Ni 8.280731089582511 1.4780089866180501 5.643262123170376 -2.0503025618183526 -0.6662414775435817 1.3216269862092658
Ni 8.633069479850079 5.01218712980345 10.46517933221431 -0.9307221179943133 -0.23004431314973284 0.2573242319116084
Ni 2.826883459742697 6.256170345233654 8.305956980768608 -0.8474317453050889 0.11024530401151336 -1.1171823759055084
Ni 1.334724892268599 8.885429789358886 5.3135584532884925 -0.15471459006848193 0.8707904746356875 -1.5648114362853824
Ni 0.4163368983896315 5.4955865888731585 8.219949652287 -1.23587812467722 -0.4821317221424342 1.272276717910912
Ni 2.8231133108370785 1.0472902145791638 8.35672493944267 1.3422834861173527 -0.7967324191780085 0.38688546264291435
Ni 4.113942239563984 3.3049364973814566 7.853832243476358 0.7209869487155777 -0.24524930302494538 -0.09945618381580935
Ni 4.417600540905956 8.042133206274405 8.513670984141793 -1.6802729943905128 2.1109160617353515 1.0301029684874967
Ni 8.631041526893512 0.8717745733754739 2.0339409485697773 0.10934284680190202 -1.4452379128944077 -0.6508256572091436
Ni 5.304147829773223 7.921599056910444 10.90842624454079 -0.8004792878149504 -1.032920383331634 0.9705919576060574
Ni 2.470378547946183 3.231165099602335 3.311389996767332 0.2490123696118034 1.0143372210128079 0.12573877166142217
Ni 6.870446513745818 1.4984175677355027 3.549742682127052 -0.5829719307899637 -0.272577301415937 0.4526797354299043
Ni 2.594535358728012 8.486190377986713 2.8908487831800174 -1.3367142195596915 -0.8698818467784889 0.3069382953943101
Ni 3.5054457369780376 8.022692511795315 0.5848883647811104 -0.43545617246276624 -0.5975457148390806 0.6723553037508033
Ni 5.49678492471113 5.407601084462099 11.387142975874426 0.03742086385061942 0.7806874499000038 -0.9570849242585583
Ni 8.592952883181987 8.774851045418073 13.41806135274212 0.586481743715435 -0.5481306547410625 -0.39470778690081054
P 3.4669515026751996 6.790849360200559 10.369767832795022 0.22629461629931352 -0.5534842057434919 0.16441304830316847
P 1.5617634437242718 4.834768900007781 4.461359156724682 -0.963191294266612 0.8108629450421196 1.4807124516519337
P 1.5175356333351397 5.891590493482809 0.7978114418622776 0.9271326008708421 0.08301140799622478 -0.9337778741015015
P 4.22609725603013 4.820628537119717 1.985438766426281 0.06401275540653492 -0.4222566430533567 0.08225498944617447
P 6.503995414494141 0.4738275211147123 1.3855970139808835 1.0107217357474079 0.3614112296312098 0.8671783318043969
P -0.06868676663892814 7.207833359942694 10.830392458365685 1.0920562702618417 -0.4995638015759526 0.16448118253694252
P 1.4273839064477474 9.035221769105322 1.0174009533897599 -1.0510371475370026 -1.526950656683867 -0.5312588186863882
P 3.1490422228293515 2.7300210521626638 5.838671982877989 0.9186065656777018 0.8841702383767032 0.4893889179254798
Ni 7.30543320496148 6.919117384703428 3.284218192539728 -0.18996621418192444 1.4264884002010465 1.5498758980214726
Ni 4.783166715231132 0.7941592829468599 10.34065288091631 -0.6205989971141183 2.0366237787796795 -0.7518766963158987
Ni 5.347877869891197 0.6488343304856636 7.310923426692985 -1.2756268653300675 -0.08954535246000063 -1.125246383860565
Ni 1.390318457182491 1.8314904049156822 6.664117970960687 -0.10781072642809175 0.017386313797247473 -0.7229327595880388
Ni 6.709675934129967 7.335474562622626 1.1662646837601656 0.367169986491858 1.176750208166812 -1.947718373896523
Ni 6.0468763821479445 7.568864294019547 7.027833177314596 0.4041715034168717 -0.9062603854075231 0.19365677565963424
Ni 1.9356534431393568 4.217672033292392 7.18611490557466 1.3456310624333472 -0.12681220723125902 -1.8576341182139169
Ni 2.1919590429454865 3.377454251514699 11.662232950839158 -0.4215285066380805 -0.6827451316255596 0.25029175054485925
Ni 7.061387502574596 6.970415376536592 9.969342068943256 1.664622175227133 -1.0463649388723142 -1.333600099410742
Ni 0.15544904669845833 5.295529029707812 12.770810669156175 0.24327443868676168 -0.5655136261042002 0.4186018199095888
Ni 2.9368261638925874 6.900598487022777 4.98632427702963 -0.6136156238177497 -0.12748840736267722 0.4054925362211404
Ni 2.7523838424928084 3.5887669495889924 0.5919908091130873 0.1830697441724073 1.7415860914776975 0.24392775600004446
Ni 6.773740811621519 0.07580764690687401 9.114255704806734 0.11871580337636975 -0.394154742610818 0.5746299865831717
Ni 0.40530022532191423 1.1010401858961767 8.615612492081228 -0.5776602887690632 -0.7397709141913001 0.20053961882239657
Ni 6.824144660560196 8.750137673251906 5.230963616554708 1.2694963269522974 0.33616736746275655 -0.6380663006609464
Ni 2.3600486891409473 5.898144468719715 2.7215451306010117 0.880313069414142 0.29468750305141506 0.08656981477144446
Ni 6.4021460862345485 4.463893176123593 6.586137648999891 -0.36560418466663486 1.5179931903802633 0.48544895944112515
Ni -0.09040153381976972 3.119295840143706 0.18747687646024214 1.4312945633404384 0.004547253051050234 1.108022563783111
Ni 5.177640437155373 5.952041927524479 8.762102595695653 0.17894698025328537 -1.0508250315261967 -0.5596926485470489
Ni 3.1710547303760888 8.899100035879746 12.007748201204674 1.9016025533750671 -0.591624207148323 -1.712553194580457
Ni 6.111678697078248 5.1931450593051265 0.22906926980263517 -0.5156439949672668 -2.1119491309855567 0.622235761386593
Ni 4.487389776515818 3.4033014337429455 12.282946948191624 0.21926470603572562 0.11710500724582414 0.7603690500576259
Ni 1.800942059015394 1.2299719040939232 12.77373829578802 -1.0882083572706613 1.2956092219892654 0.9158110052104357
Ni 9.11184151899162 3.776020751224012 5.890869648386429 0.18103317335835276 0.7778839190129377 -0.3812436909761047
P 4.74877447668135 8.680772464169326 4.856631154676372 -1.6318215837573444 0.646293573666745 -0.5129327666836908
P 5.14716583499896 6.913033525833726 13.06342584485284 -0.63764566818376 1.3063384354813117 -0.566540781817134
P 0.6383276905770491 2.5534600933895435 2.306157682913773 0.7355316792989719 1.51385988493818 -0.5120472787549439
P 7.570698669648442 6.184592823834819 7.743432328114442 0.09595151309666056 -0.3379514559463728 0.21677176441054283
P 8.922568982368018 3.24314845798205 7.922706134865369 0.20874992254733082 -0.196801491936203 1.3805746683880673
P 2.593917754873057 1.3237370744311991 10.630274060611642 -0.45707092251906445 0.04636110376304274 -0.9422686851813321
P 9.289038517555664 3.091107294047423 11.599012439214977 -1.2272579871083766 -0.3496641163976107 -1.590937958169105
P 7.99154499797604 5.039241865837652 1.223718434613309 0.5536765242599562 2.252715486404062 -0.4186149325357113
Ni 7.093134184312856 3.6212971586059255 11.842707858818454 -0.5328410755718437 0.663245113919419 -0.12825511032537268
Ni 0.4531682112680841 7.0483532958446595 6.456970872618543 0.540471595533908 -0.36495446689777794 0.19415325568007852
Ni 5.940934276103282 2.683627019297199 0.6678565292182631 -0.06954654074057054 -0.5906577294699956 0.44363793694261017
Ni 3.597090774678902 4.477950577299797 10.005890390204588 1.6646972514394427 -0.3964692496766075 -0.3451736847264249
Ni 5.449837813766602 2.6092287996951393 5.704634432213686 -1.2793775906217513 -1.2803852059506593 -0.6851357433449233
Ni 7.595061759031201 6.228249120208919 5.462247042267196 0.42397413996509564 0.257367426444718 0.9976988411251785
Ni 7.651826005879111 1.5968839017448204 12.813186589777242 -0.5501579695837363 -1.0699596954731185 -0.3753982879389212
Ni 4.4881917397304605 0.41025580491032554 2.3691753992422977 1.6251706540997302 0.4293518593372412 -0.001198134073159227
Ni 1.6381066545710392 5.350080964239469 10.602872728981225 -0.022401507623651742 2.173083793513348 -0.04409390499542083
Ni 3.2608930463520123 5.634796341373507 12.683817939897036 0.09705837300759412 0.11141978393558877 -0.10580937972734682
Ni 0.4345313235972323 6.962635411557762 3.995243387625716 1.3513335121347632 -0.8725506518599038 1.2648112627718022
Ni 1.703120982764984 3.0629648377910623 9.184693885362696 -0.29392131430935187 0.05373477051929456 0.8814299566274045
Ni 7.862852946945887 2.1502846096880326 9.800294675874216 -0.19955822874573373 1.0097675993642548 1.2320181275011814
Ni 6.841290081011173 4.353314432182779 9.089660322630769 -0.06954294119614475 -0.5804918446805873 0.010358974636820869
Ni 1.5157196936422137 7.326238158702261 12.566604102601053 -1.2986001862967893 0.7830821753844255 -0.10915335649891524
Ni 4.25989954462891 4.649008409186233 4.316798373809393 -1.5032502277431337 0.17300310396502463 0.9852001944375356
Ni 4.83241831817176 7.159171706953068 2.3474818333878202 -1.306615086181466 -0.8447989356679323 0.9183209161164829
Ni 0.20844314464075075 0.6278874200379222 11.065412848299047 -0.02883697883635034 -0.2871603414364345 0.0252582603461565
Ni 7.817841609278083 3.2093000795433477 2.108521683937928 -0.6851887080700457 -1.0381021846428895 1.2763678572611503
Ni 0.6887720985748575 1.9165814673796413 4.357947382891736 1.3923966007236601 -0.2920392667952906 -2.032149802168726
Ni 9.139172794065354 7.906776564391534 8.658097184724511 -0.6501052341033514 -0.11792390360269368 0.0987794694637589
Ni 2.4441534290305764 1.6023317208235985 1.616057275152364 0.7778569224297442 -1.5441456804059148 0.8575307814123039
Ni 3.115092446742821 1.1184897992906384 4.4696018636963295 0.8411315141186739 -0.7160447742189539 -0.13095553997567122
Ni 4.780447414675734 2.632577912599614 3.4577851553115164 0.5024616919490379 -0.49926298250608203 -1.75367567565238
P 7.244778975624154 3.486115658114759 4.742115416609423 -0.5260734178307069 -0.6261232693664572 -0.5910860752566659
P 5.3390009667222245 3.0313472076045835 10.377579138865 1.0717718089811927 0.3386042590390233 -1.1561510438592217
P 4.298200201604075 5.552756426312382 6.465861602739493 0.043702068873640865 0.3762344106869714 0.8810756586117795
P 7.9397123639997815 0.10638272491431702 7.323079161074008 -0.47059183982363473 0.09379461465465783 -0.6725874743662675
P 4.07744830431376 1.677955930167583 13.580336304733022 -0.5722470881732918 -0.5158077742386408 0.06494220919933977
P 7.2663398027396555 9.152262308603197 11.356395521865673 -0.1244514203085663 0.1819582562757834 -0.28998701225195217
P 8.731646429475209 8.818581085536046 3.818950671720941 -0.8830726344371501 1.1607849430868074 0.9249137388426523
P 2.1480538614358085 8.438542701475368 7.168791578341584 0.36444950223690137 -0.5775672148346247 1.8335238554292748
