# total energy = -340871.2868000374 ev
CRYSTAL
PRIMVEC
9.22614636215122 0.00000000000000 0.00000000000000
0.00000000000000 9.22614636215122 0.00000000000000
0.00000000000000 0.00000000000000 13.50339779417452
PRIMCOORD
 96 1
Ni 6.102874428092899 3.287257516494391 10.269144741044858 -1.078158172123511 0.7815138024560412 1.0077719090904644
Ni 5.134894824339743 0.013214609514717783 2.5255810049535854 -0.09021538194383173 -0.24115199302712018 1.0396193926183643
Ni 7.063307044076008 9.221450309624235 5.545966700615105 -0.03061772488585695 1.6956505052878474 -1.3563775023165736
Ni 8.606592233879391 3.55262916591967 9.436228539936298 0.8939627989870926 1.0895802979175235 1.9515341480981874
Ni 6.570778443689431 4.600405710043415 8.503899688557519 -0.054785323270995966 0.6094105845974667 -0.9627655195831033
Ni 5.890700738914679 4.419933059957962 3.413334652527709 1.5911765565424725 1.088641588153338 0.6962668202610783
Ni 4.920663704510275 7.22970982087378 9.055635238353297 -0.6827284194550113 -1.5565677082193514 0.7395629119455521
Ni 4.608081863863316 0.8595133360028048 4.865895454142846 0.15881961337579098 -0.28242514074429426 0.5160312031033565
Ni 3.533890862544405 6.018879591102051 6.193941106313259 -0.5608149350769502 0.5005282223717509 0.5552505536152954
Ni 3.0334831331167273 5.583313218701139 12.740415112493356 -0.02774888797849415 1.4492981990067104 0.2246197997000519
Ni 6.065766867199096 2.0005422324333697 8.150111110163174 0.06533970174807457 1.0072528033622008 -1.033636178451736
Ni 8.382304614454139 2.4416535188315907 4.8961839702189955 2.031791390388043 -2.242473754071396 -0.49752723076189803
Ni 2.872837471683881 8.5637460099135 6.3726312649107255 0.642644664060248 -2.3542138974608813 -1.5716495422531385
Ni 7.489398164105478 6.970547367987916 1.127938839892492 -0.15535530897627436 1.3242775364582353 2.3076651031670647
Ni 2.6165351241876444 3.2769150063596437 6.847843311085075 -0.2592178493898955 1.7636078471644272 0.9943381521830619
Ni 7.1652928665822495 8.248082636362877 9.501936232111728 -0.03807829492896023 -0.20174186666061383 -1.053724721671495
Ni 4.197730549623212 4.505643960182585 1.6420270992290045 0.6103840042543295 0.9098601869436395 -0.4697356624709265
Ni 4.414720287231707 2.8161428019443426 3.5029703554386136 -1.854883294941657 -1.6446292770449742 0.017421537910557096
Ni 1.8578321996374088 1.1723295207687843 4.905649073829376 0.06092023252414024 0.13934170715683744 0.4487305209741691
Ni 5.662676530190075 6.1090559461930605 13.342572475078969 -1.2403364175588898 0.9027731981898709 -0.4772278570829136
Ni 6.335696232954941 0.24088084375829727 0.33239314485065413 -1.8178578667572434 -1.04520562845689 -0.7458397460931994
Ni 0.7470060161213035 7.998524601898309 2.5163041147301346 0.22535307832165058 -0.10101401522123249 -0.6234472651961909
Ni 8.547185077092918 6.138920982148615 9.00710386296454 -1.2202697287160016 -0.15328479960049088 -0.2966171159739601
Ni 7.5188941542043075 0.2555993151391737 2.5585294190420864 -0.6352491429271253 -0.16621616295017824 -0.41603457340304484
P 7.695316526012192 5.7933372157639305 7.030706455707471 0.48242122835839496 -0.3840420796568483 -1.3138820521565244
P 7.716721185702302 1.6795369201066395 0.9648381008977757 1.0999050768822993 2.278125184726419 -0.25531182946726994
P 0.8199590010789076 4.794911328830875 0.8762920058788544 -0.1959903088888173 -0.2539979957518529 -0.744595332163137
P 1.9414856692107847 8.798726733037388 0.610671250500285 -1.7683515324969996 -1.4431059541530695 -0.7768973867299523
P 6.559827007891085 1.8821615477420732 3.949824917982134 -1.6112969814414313 -0.05100862983738313 -1.1285044857865467
P 5.053963067959722 7.336723893177914 1.6070932184313174 -0.6926513349956781 -0.24591393319213778 -1.520921676880968
P 3.3469875884055007 4.889322485127816 3.674814713393812 0.2829915547707255 -0.2650881921277435 0.3666416247922137
P 3.6633613752303194 3.032837302867457 0.19987708123210848 -0.7318791701480492 0.21662109776529145 0.24725013550505803
Ni 4.818216574683126 4.128239214801698 12.172935143835003 0.523584332860266 0.3726317809373776 0.22041501759008492
Ni 0.08063375185071493 2.315319895927848 11.630665620264246 -0.30662616347052996 1.2203936558883757 -0.45263782644837525
Ni 3.414218517354568 7.387827518188054 3.6749226593069046 0.08925661757498822 -0.3326444419111626 0.7842684823830428
Ni 3.579790940974707 0.11110679085522611 10.347910198245897 0.10166219032819265 -1.0069820661993174 0.16363451826593112
Ni 3.705248079968725 5.024227198054021 9.985735975372092 0.10295005590168077 0.548327601243217 0.8481940773924102
Ni 2.9159697061887373 6.8171442314933195 1.3196627755348804 0.05542167130341423 0.35355959479727495 -0.16718366906977014
Ni 6.358346422411501 7.735127347806515 7.157476475336791 1.147535791386385 -1.614373563484226 0.9771364435927945
Ni 6.358697015975392 5.893367095229524 10.785487870565966 -0.6833341713598102 1.5397683772738258 0.05317375580950197
Ni 8.088664052403645 7.099141396764106 4.87252536295893 0.8093884173791221 -0.7694620134978296 0.39606224404617596
Ni 1.607997380780296 4.77792599327506 5.129414493367362 0.6255229167782969 0.18615841040006006 0.5496920856909113
Ni 8.103259816037161 3.1065818911877385 7.320691618547094 -0.13920235336549575 1.653209305404501 -1.5527653037541258
Ni 7.9441825994954 0.372802743547514 11.831649839066534 -1.3929573583231365 1.2090849157437755 -2.087449603182295
Ni 0.8652187849477895 5.47118786128135 11.654296549085057 -0.396152232656821 -0.8760648356607493 -0.779280028029516
Ni 4.56065947127402 1.7048995966101368 12.3491812962463 0.5526642809453578 -1.2914049540999308 -0.797363110783472
Ni 8.70964828937014 9.150639635864925 0.20248900328308703 2.7890676604529583 -0.5051906608444268 3.1782529748736423
Ni 6.3905733518501044 2.7851706284186095 5.9150282417900595 -2.222854951399204 0.04360308140193136 -0.5739650993056631
Ni 1.805307748078875 8.036370254505565 11.762378086529774 0.840165550660979 -0.45382670455015395 -0.12959156974860908
Ni 4.255633844543528 3.810001746400413 5.558065869027868 1.1245251894238246 1.472865444803689 -0.9890244532796322
Ni 3.8372834613588855 2.6690042188676695 9.234528372171964 0.7689539635131596 0.859558867585926 -0.777470742734919
Ni 0.2914539653493924 1.6721652291185367 8.234749932174008 -1.2650940841195437 -1.9116943903934303 1.7978351437784135
Ni 1.553083357299461 6.435965992227406 9.379486816850028 1.5992405644975296 0.1645274623938457 1.0701967511845891
Ni 8.93584572110395 7.558179085652794 10.894528004623526 -0.8395016918247348 -1.406264616955004 0.8500761249064714
Ni 3.5102073446890114 0.8785118167070615 1.0719499703539423 0.24221360152241508 1.7172647411235136 -1.1802055137052643
Ni 4.79254943534783 0.08783568174472367 7.943401144893782 -1.1571447752310589 -0.33532198874332575 0.06188516754057085
P 5.001982959039858 8.041601479524656 5.568126059082221 -0.7425546475840245 -1.0696843303245447 -0.6798474983627905
P 1.4427017415527015 7.210445627152681 5.108011678906534 0.8250124970696243 -0.5275384324120076 -1.07590485731296
P 7.378546014891393 7.598986331260277 12.525683935528022 -0.07696520180214486 -0.6913465001413255 0.12370914282590306
P 0.796743248846914 2.4046474455483864 6.4418633450178895 -0.2812252068989221 0.6296955600987478 -2.1906709104674915
P 8.841858967542244 9.043856217221244 4.0387179161063775 1.6771640164478858 0.5652274623223491 2.040072399449912
P 1.6053310244654504 4.225547381073937 9.854806808937468 -0.03734475919704536 -0.6723992696148613 0.7452779600524584
P 7.592887848477879 0.32035025593104155 7.721432056063411 0.4482306985196152 0.12115629449706232 0.24324949898609716
P 0.5167103301485508 0.28453620076506275 10.71433859723311 0.8990538403567548 1.3345411231677726 0.4696212483802493
Ni 1.9403139486156795 1.6035319259139111 9.78406256343237 -1.32204710446582 0.9983519013281452 1.964529274806275
Ni 1.3697875064100533 5.656790248775295 2.862125915692408 -0.39063515949333366 0.3100830116708788 -0.06494683718503008
Ni 5.823598976015466 8.736274947932923 11.377922720056134 -1.1938228473783827 -0.8702094053212368 0.04936209537289563
Ni 0.9632373644942264 4.570817458480405 7.840140268952552 -0.5621377676534318 0.10965806404947565 -0.7812826602818416
Ni 2.017481437257095 1.2164305006475462 12.458680892395483 0.36574430978892497 -1.011435988205613 0.42253277953287877
Ni 2.4782351893795598 3.5018669083270026 11.790343458937828 -0.28559891048658553 -0.8511593306683213 -0.48069036171021734
Ni 0.5796095833542958 6.96538995214017 0.06394457559492145 1.1475884990011913 -0.055399045595594915 0.6690318958045252
Ni 8.555829976286725 4.630501399659424 4.997931758147648 -1.297629594853404 1.6959248419951567 0.9045698850789776
Ni 6.186158851809548 6.855792558838954 3.2605847271995163 0.6322304107054595 0.12660626186804003 1.0318832003163714
Ni 8.072804306710843 5.438250518568551 13.145031454119938 0.9600350080258176 -1.4446635284481764 -2.3877377402499396
Ni 0.5538658670037289 2.4713340318587824 0.7336843833081351 -0.5668218033926625 0.4520127912698667 -1.752561873762911
Ni 6.943773091082442 3.0711627150884566 12.878663380881498 0.42931226434855735 -1.76790390343662 -1.521407358268135
Ni 0.2841699227522621 8.90036196197974 6.246564277638468 -0.8078982059868408 1.8057955362760707 -0.8075472504053254
Ni 0.9538635997333851 6.956542077725163 7.139678316281536 0.29206034984121315 -2.2423045754833835 0.16182471875070195
Ni 2.138085623235166 3.2666924361283325 2.3471879282707837 1.3090005556945068 0.70970263405101 -0.15841877839294652
Ni 3.888294824904843 8.419698185886906 12.835020017865077 0.39312424446377453 -0.674645899557193 0.759805207134356
Ni 6.759111770523149 4.3387983283567415 1.1045228802832248 -0.2674857458256425 1.1369037655938357 2.6825311727515997
Ni 5.64992599584019 2.3202835627008134 1.6861825133716335 0.6519505148422062 -0.3809981506242019 -1.0604579266302705
Ni 0.9098742562262825 1.3697875064100533 2.7349914632795698 -0.9203765130939311 -1.9223984070744957 0.3090946796156806
Ni 8.912743450472899 3.5989259686459523 2.658036176005772 -0.3705792692837231 0.3524067121397544 -0.11169412064289796
Ni 5.818773701438773 5.845142027901849 5.520188847522792 1.0870233358236248 0.28027338450861405 0.49133807123205064
Ni 7.487211567404377 1.461430818781548 9.756097191024311 1.882819873450925 -1.2925277548504643 0.5886245010900508
Ni 0.47533290869242695 8.560489180227892 8.759627247131906 -0.07449205767130396 0.24871746407920386 -0.018442008755271466
Ni 2.4346877782858867 1.1276657459585149 7.566709580631017 0.23900872143187227 -0.6050193975083064 0.5331781471962883
P 2.8961888482682214 8.048142817335126 8.568540838207012 -0.5603583071555059 0.6236221002111582 -0.6738334309582267
P 7.6535497611772225 4.335615307842479 11.21478784431967 2.1137609873833143 -0.40491275245827046 1.196275165573617
P 4.559856796535641 5.073623985976802 8.026230719592018 -0.4852838946181707 0.3621175116696151 -1.221317967474858
P 3.161947995843063 0.9389172425359802 3.1304388605957936 -0.6876014312765965 0.7648155158647537 1.2060597557642068
P 8.14777597250474 5.575535577270639 3.0442463555281427 -1.1404899402831972 0.7333308149929112 -0.10916312669092813
P 4.15432153072581 6.908409271861669 11.190927184453047 0.07655433951697138 0.031248416491320374 0.8015840908433549
P 4.336676314680567 1.9661563847329206 6.814989003690038 0.47012904125460325 -0.04811948121504616 0.02310316167636666
P 5.342455440308888 1.3368224852579997 10.195551461525833 -0.19696295721473175 -0.8216505225759269 0.34677419644432533
