# total energy = -381171.9170551437 ev
CRYSTAL
PRIMVEC
9.24299106145519 0.00000000000000 0.00000000000000
0.00000000000000 9.24299106145519 0.00000000000000
0.00000000000000 0.00000000000000 13.52805171429237
PRIMCOORD
 96 1
Ni 9.073715046447797 8.883910222421779 11.797394398790104 0.08205778583370385 -0.052568775235651406 -0.1349057828726709
Ni 8.916695112162238 5.163310493917222 8.103938562504549 -0.41987528730537366 0.32246184495120594 1.1049266984666068
Ni 0.10024670951735981 5.467349446023959 12.97079120568665 -1.5754730297642867 -0.6830971156483397 0.23308772796174695
Ni 6.487008504805465 2.528105977516452 2.514026129041223 -0.10992880121235908 0.0365924544120531 -0.33371530637783814
Ni 6.82577337480194 8.111741495664655 13.195180529837243 -0.3288494936451046 1.2824192056615527 0.8588700690490175
Ni 8.748352513672543 1.286698317166492 0.6966433214686426 -1.8920354785119222 1.07904417427289 -2.0834129712190763
Ni 5.82894450425244 4.995189727216017 12.093267168183086 0.6045758822129845 2.355041535568499 -0.9519314050820766
Ni 4.257876320225248 2.1303800667378034 10.326949114021586 1.2867075486242614 -0.19547711669782464 1.540196980170812
Ni 1.9862078902022382 1.8309163952686551 6.062758906516465 -0.28491165461157386 0.9990026475382666 0.6910281975699583
Ni 1.752831605720479 6.889337425195263 0.20355839491234454 0.06218932904455097 -0.041774769943940956 -0.4191443226766201
Ni 4.796040239099895 3.065622887008006 12.569440193764443 -0.3549456765115242 -0.21530006496102275 0.9128115562624796
Ni 6.297712045294735 0.17151941456068218 6.491638319091058 0.27651108925270446 -0.12872922174831378 0.35334413635235923
Ni 2.3324503400690335 2.9850147608657656 3.8137468964911463 -0.3920963174198925 0.8346582476895045 0.8256892114216747
Ni 7.740025362086357 0.2315489451240801 2.955487101219624 -0.009516681241183609 1.0370043235930204 0.1879730950112956
Ni 5.353762327326334 0.4176926203409087 1.8049666975110195 0.11700576266379849 -0.06647073002872422 0.7661470901919838
Ni 4.389311654905062 5.836459056087509 7.186641933923117 -0.6125421882479128 0.2802139920255884 -1.69346403915949
Ni 5.1239630804339615 4.798813136456008 2.916012134457982 -1.6531483702595788 0.28642423460135835 -0.6937774781803213
Ni 8.569167886520443 5.685142047364356 5.715182693021379 1.377670093146763 -0.8667425298185588 -0.47227745505617374
Ni 4.02818798922712 7.915891755402307 5.656308536356362 0.039430952302112736 0.31101709344937406 0.6544804803529116
Ni 6.955507999103336 2.1549664232953494 4.908112431541963 -0.2526273406565714 -1.0935752780095294 0.09975391756188627
Ni 4.70511693479291 0.7458677953343822 12.46002536128865 1.7052530613746177 -0.4085917439717544 0.03635077071489223
Ni 7.226318397892637 5.106050163513464 3.549788327068803 1.4939060675240723 0.5049818872677303 -0.5077095706115384
Ni 1.0550412290455236 6.911409688149933 6.93518266148302 0.7746083335854594 0.18981888997078278 0.32710268615732696
Ni 6.4273912116490095 4.848873176725057 0.9183521781749922 -1.2273852567148602 -0.3810961096546469 0.511563654250306
P 0.649346935564521 3.928779619010426 9.722516645532284 0.9406558321682573 -0.1688021785097996 0.032432666607408664
Ni 8.23384140924555 7.272163634180393 4.055561107627561 -0.4128155522451148 0.5739964667642308 -0.8207637490955993
P 7.909957755060223 6.309922036652825 0.8739026335564812 0.6912032896952418 0.7019047352731461 -0.1471681451797917
Ni 1.9679067676518842 7.187294489100924 4.174553527571372 -0.5091681574349359 -2.0777935681497697 0.37280198796665476
P 6.488977261928306 5.117881192232884 7.205202784525828 1.4898990032472084 -0.451559505782532 -0.10120607662738054
P 4.225729196876697 7.965582076023875 2.8091003039956424 -0.6037513294291602 0.6255856516954323 0.6613288707333127
P 8.855968660063336 7.573291044063209 9.69662333002089 1.9247334829655756 -1.12280872095335 3.215740687406455
Ni 8.911685410938857 3.516782529838976 4.155371547960892 0.5457495561033956 1.486439326833382 -0.6627738307099554
Ni 3.5688945141515487 5.511688074748226 4.905596489340848 -0.23416579151727415 -0.4580803376201853 -0.4920343259681268
Ni 2.285810206539192 5.317881035538216 8.444629671864403 -0.1698463035035978 0.740592638761647 2.032964327650222
Ni 7.517666723099558 3.4766309761224417 12.877163402158336 0.8821755765441776 1.434165714240646 1.675257286343476
Ni 3.0427095118553154 6.127955269153423 2.213324821052129 0.5464229280213363 -1.0018313752363133 0.39325794182816143
Ni 6.1327523815794995 7.250035913278601 1.950731441428113 1.654814445108092 -0.22980854298984293 -0.26927831894969106
Ni 8.252207232734214 1.2897022893022825 7.37288266054741 -2.5719788790226286 -1.2516891235675474 -1.461774219986534
Ni 4.050870289600135 6.163097121646577 9.641469477308657 0.6433918266389178 1.5653256569176397 0.27796839052452127
Ni 0.6786841895922096 2.1820761164469595 8.223459681544258 3.6534748572701212 3.265913194495788 0.143197847678134
Ni 6.8623571339202725 7.036911022487662 6.171984257672923 -2.0718910866224056 -0.23187339593867165 0.7876471690472887
Ni 5.921873537647015 2.5627394654943187 7.153539085285827 1.172433583069329 1.6613283349672097 -0.8572590158081559
Ni 1.8421281435785437 4.1022335916265575 1.8232299237975065 -0.15316627174475556 0.6643203492614688 0.48301515318865196
Ni 4.246498198073993 1.2176531729992481 5.942941087459651 0.5576838456471364 -1.0831258005414315 -0.3901085975659023
Ni 1.9753288895750836 7.9252549054747865 9.872028498076606 -0.5209571796500642 0.055379762321885274 0.22971366928319148
Ni 0.8676220210448825 1.4461399151430596 2.4137563120458956 1.110421403032591 0.08734860191899796 1.48760763610987
Ni 6.590178772435288 5.994976354945372 9.479633944614644 0.7227324706517747 1.025684270594511 -0.23677057612997288
Ni 8.468835217185042 3.841701399037252 1.872363816349613 0.7984059502256894 -0.3078546365609924 -1.3674371025648449
Ni 2.0527389407666052 8.320180189923759 2.199403952025317 -1.4177682467192294 0.1348193938064517 0.9785664911711018
Ni 4.160538380034452 7.406797043810925 0.5843492972380852 1.157791150565806 -0.48132876662516466 -1.320189996652423
Ni 5.781574174418822 1.0959137360746471 8.719100295163775 0.07479210541022603 -1.5570276785749055 1.1798509585793229
Ni 3.2684048706606386 0.17869659721742445 0.8166358330588918 -0.5843688111374904 3.0899970306490268 -1.2664290008808836
Ni 8.581054373186985 8.493079583068669 6.162812437518015 1.1701668985223395 0.6034515388005542 -0.669451499840447
Ni 3.5816775709632354 2.622097954897537 8.308022883615436 -1.6359240359614922 -0.3826976498138119 0.42494935939417144
Ni 3.9044150942413687 3.4078538786996226 6.367897774574461 -0.9915518476871762 2.416586803271148 -1.536868172907895
Ni 5.122197669117235 4.3876664024737675 8.737592747631702 0.34020888452198184 -2.8341429555250417 0.9420234019397453
P 6.138843512771765 3.4068833646249823 10.616057862463883 -0.5189892572904159 -0.7036998795003558 0.16524402884489606
Ni 4.031737297842946 8.784196833495912 10.01752242235192 2.3763865769031782 0.510293786398947 0.06035844648339928
P 4.465473902286332 2.736701802625738 4.254680093872767 -1.1292819873825197 -1.9562994306973147 -1.7468355128020947
Ni 2.569320475219497 1.9597914213896568 12.253817925102098 0.11126783173875676 0.2658194138668132 1.0199828493343595
P 0.4920293769627373 8.870480156227 3.880277947055513 -0.19448235688472312 0.1266494564011496 -0.5476586002006505
P 1.1440050192208546 9.017175669356629 0.04491354277610065 1.6332338907238388 0.5463694490755816 -0.7814199571906542
P 3.122421067852412 7.460692925422598 8.020321842730924 -0.4560270546355824 -0.12116220803433327 -0.5225718324353517
Ni 1.6210635233579314 4.492130688869777 6.666231952520551 -0.925459069823161 -1.9045966030063843 -2.7711545276179628
Ni 4.068006795260921 3.0261645576305005 1.7685354477472723 0.002150470684099522 -0.5019166180788452 -0.11142878279665325
Ni 8.057485137396686 4.485586651109347 10.713594526965203 0.6123730096599002 1.1757806451646913 1.4231919888379618
Ni 5.33180098026591 7.856311434210601 8.088287405527522 -0.5067942578861206 0.5814716920953534 0.1763437383024834
Ni 1.7855055795666914 8.825697863925756 5.644295420710557 -0.09869333750785583 1.2016919657138145 1.3041635393171798
Ni 7.73015384749859 6.678467824253964 11.675790833835952 0.6869357726681395 -0.01632367686068802 -0.934390567984836
Ni 5.697259608810576 4.0828880110720664 5.0006033471542715 2.003368102050343 2.687916091212597 2.01634934480136
Ni 3.449512039979645 6.185622291169412 11.82524907703139 1.3561659005264 1.402359882583959 0.7954152430284817
Ni 0.4045925289315064 6.136976428551981 2.3299630511405987 0.028207058561835294 -0.5313842885206591 0.21717851293065824
Ni 2.9532743291294445 8.610705888915033 12.100233610640762 -2.095215620280959 -0.20744894434772013 0.19608466837483648
Ni 7.365027966636657 1.6590984320926312 11.81147702016269 -1.6025210350210142 -2.4757504581154977 -1.6504808507297448
Ni 3.056860531362685 0.39176695436035947 7.898840285260443 0.923459780004945 -0.3613006721952745 -0.4343495696621487
Ni 7.734100604735459 2.888536418855365 9.160235914052391 -0.9674786087880562 -0.27920046315940944 -1.2390187271887307
Ni 9.169333790277802 1.4798768329757825 4.925415311044116 0.6951905564777641 -1.448175655366493 0.5515790183009791
Ni 0.9142492143870619 9.110723983160735 8.286446044988393 -1.6104336049998715 -1.0847000870070869 -1.9653602553480025
Ni 8.943314926780934 8.310548993106856 1.3242747735383147 -0.8859550981912678 -1.8528798913583833 0.6864074109684952
Ni 2.137709758749132 1.13118499044442 10.090397862067075 -0.8653770169296001 0.2820764991556239 -0.006516718072595229
Ni 0.29399644218200965 2.4330233271752957 11.576860326263628 0.7012994975889792 0.8348127709894977 0.002974252136975523
Ni 8.464925431912922 3.4871125281285535 6.4674096662924505 -0.6792373755826173 -0.7849809350690351 0.6121560085530877
Ni 2.8685623149001556 4.214619121469866 10.488731961665831 -0.04978144229850136 -1.536870229790424 -0.5166109868662264
Ni 1.296006009291849 6.043566759615681 10.77455205384378 -1.9379160430941202 -1.3734280300409574 0.30318782721294235
Ni 5.784994081158029 -0.024750881800675487 4.244264167104084 -0.5487700880972742 0.4175093581763584 -0.23938487382436838
Ni 5.6095898374014315 6.900817220249577 4.1769215819134935 -0.32569654983841967 -1.1045903981731104 0.5910536793568337
Ni 6.66952985177609 8.758556775943044 10.506155924352534 -0.07470185968926489 -0.22672861851293852 0.5691612501591166
Ni 2.1728053962863507 4.516421269709337 12.679531613195126 0.2852934634310248 -1.5107750753652691 1.5019834452155683
P 5.1483460911853935 7.801703842277524 11.815738963399038 -0.47438935919285397 -0.44927405218246497 -0.5197626451213306
Ni 7.610725158370752 8.298320515766394 8.39553644847352 -0.9850299874082584 1.1368536290821905 -2.519104142510784
P 6.418785986853869 1.344402311147229 0.27787574125268033 0.6522685603032573 1.02657027274389 -0.5111831309824357
Ni 3.3370710521892137 0.8478789918693492 3.691873436194333 0.49340420973246 -1.0214121255817183 -0.4813678473932161
P 4.1928333912419955 5.250166882101906 0.17490512223249763 -0.23840554063023456 -1.5135791204729674 0.6877793516153574
P 1.4160447358380333 4.934112041452009 4.529637822807696 -0.43328204762958283 0.6989333113496479 -0.6465044041259704
P 0.981772037905799 2.9226060843708215 0.4149391332662873 -0.6331395527832903 -0.4518608390730347 -1.7161612236466897
Ni 8.844535079964958 0.9688595792174938 9.7577703382188 -1.2303301982757975 -1.3544414616361253 1.4488721672128853
