# total energy = -340870.3840061861 ev
CRYSTAL
PRIMVEC
9.28834923850599 0.00000000000000 0.00000000000000
0.00000000000000 9.28834923850599 0.00000000000000
0.00000000000000 0.00000000000000 13.59443799127857
PRIMCOORD
 96 1
Ni 1.1409900896168734 0.79902930096859 7.835711660083986 -0.6221162050895931 -0.8057793598716252 -2.2286882702515296
Ni 8.539011520070922 4.932494185005283 2.9869017849704496 0.47029410607755784 -0.4016016858071664 -0.08942553905268469
Ni 2.387848782073622 2.7055381857349885 2.2644121957795145 0.40335723504569243 -0.20175343662483963 0.3255404838765297
Ni 8.48968109809491 8.450038424211721 11.158097467887641 -1.6152184279830246 2.2438706344189225 0.5835833391217174
Ni 1.780836592848185 4.899028263261813 5.8726478754253755 -0.7462382670831987 1.0395216906982356 0.4963337246744291
Ni 1.551405082166683 7.82231321653279 3.013234254618725 -0.7664666783149315 -0.5315202998778911 0.5615685254135231
Ni 2.3333075962624488 5.574439855129191 12.29436071665654 0.06237624824437644 0.517128035711961 0.43100482155963193
Ni 3.536910447043 9.156491678712094 10.723673021795035 0.45388661125381186 -1.2289119777720319 -0.7791396457969098
Ni 5.407091669713677 6.118291270595096 9.224302200022217 -0.5655066841256647 -1.0681110723001541 0.6401270398447169
Ni 5.981678232292859 0.07840666994319384 6.7992851602609266 0.012834432760506928 0.3773394708256921 0.9323064317622975
Ni 7.331609734515716 6.469576632887084 7.965661236754591 1.616272580279152 0.7560097446476657 -0.2738227437872639
Ni 0.38818054251663775 7.934144939483492 8.936017851885545 -0.47668124055082417 0.19594942834855283 -0.4727819054964181
Ni 6.9756801976825855 7.503239848858163 6.039818653373418 0.5472590507693865 -0.8408180966433133 -1.2820631078737146
Ni 5.1417514014800645 2.10449840496946 8.29176402701469 0.3248092621374599 -0.2641060307201323 -0.34826672182945184
Ni 4.237493464923368 8.01595671820025 12.948688684942042 -0.026444053124141557 0.26324779648489505 -0.6081566575857075
Ni 9.25879355550437 4.395348957576788 7.661675863329227 0.9010862974057513 1.8607770347182728 1.996007547920214
Ni 0.0795983651304509 1.6609054294977315 13.523692294395019 -0.6318102924489054 1.0876961935209333 1.1352160934787674
Ni 1.7510767223885464 0.4082730992514349 1.583044914480576 -0.2182324081164693 1.297955867844571 -1.0642647019708704
Ni 4.767040822802556 3.771766353588556 1.4652222063718008 -1.1483228060640545 1.2210006933447553 0.031804803215422645
Ni 8.049116124424005 6.710209892561821 1.3606261073561983 1.138848290914716 -0.8425103967440716 1.6746121965603096
Ni 5.0891979223725 5.6999161628817685 13.008749007777908 -1.3283288237094735 -1.4946802266859356 -1.0708948056928784
Ni 2.1979206200390746 0.8097071870735839 12.5028590750113 0.1324364953965719 -0.8632288602383456 1.7080753613147617
Ni 7.762245463017659 4.588583771884628 13.294435404676264 -3.4870540345083043 0.8647915767397751 2.1511466271206245
Ni 1.9582347719707307 4.791190530416493 9.507636786932938 -2.3674555929621355 0.9952120701475828 0.9034401423499085
P 3.731993642818215 1.5548231946289635 0.9665846165686394 0.959236423383922 -2.6709311266188256 0.4306746919137228
P 5.09114847567978 7.292329306246737 11.070779555834903 -1.5446768703190366 1.0122769960496696 0.38719836589764284
P 1.0252665484006944 2.366968573336647 11.709011743995715 -0.6293885703812901 0.4227999171513363 -1.1850487007301784
P 3.3110921041545067 0.8729394811210501 8.739306408516207 -0.6818565583730192 0.10163802195847657 0.719354041097845
P 1.3474793780651335 8.210529054775941 11.962370970748088 0.04655753604456498 -0.11380705322084271 -0.43700911877218285
P 8.146597348042578 8.729255485974265 7.556958086940646 -0.2822248518080301 -0.18280260655394967 -0.650326606085538
P 8.090727928312639 9.01830890941495 2.8174200657707344 0.2358776320020583 0.792398567689345 -1.8182131932141332
P 0.15436493106829757 2.395465228321095 2.1775029710863976 0.5909197248821306 0.9914554313186281 -1.6017767006558221
Ni 6.173556947634687 3.9987364517632527 11.207784562468413 -0.8243370682691544 0.18712977317439386 0.1457013308262781
Ni 2.64499672641666 8.132061081728803 7.324819022501658 0.6622287568397628 0.5594558499458946 -0.5207684606780256
Ni 2.10579877384098 5.096535718147505 2.701051913128245 -0.09544449155325498 0.4863159354271108 0.1502537260836509
Ni 1.4507936849073806 7.5158162735155765 0.6764035875493657 -0.3930360556253425 -1.402859962148829 -2.069901824106519
Ni 4.893018701405576 1.9177561466701365 2.8036352268977165 -0.3746884063560902 -1.0274557606726369 1.137763028270337
Ni 2.7599307579608445 6.816338569176001 4.83249674762032 -0.8910895912043557 0.16512267277568335 0.03600212912622187
Ni 7.8030398921870505 2.2756083717632998 11.702704026133935 0.8409553935521259 0.056069332189742145 -0.8379865407317891
Ni 6.715792190360273 7.271634864491407 13.33649676466048 -0.36195270395697665 2.0669304001830207 -0.9976451050691076
Ni 6.156299195039803 9.022878777163434 3.9717101424385306 -0.1680213344797171 0.49326305616890537 -0.2857909718927336
Ni 9.259016475882346 2.9673117279210044 9.574535192363184 0.4985168483686768 0.6467520013604022 1.4360097094279205
Ni 3.0448880194562418 2.238817221048372 10.740679988964697 0.47387231034711935 1.0922267344014351 -0.19832204234578746
Ni 7.81918304289206 5.0887427932674685 9.603192535786754 0.8727709954008259 -2.332777067743344 0.2071301275557207
Ni 7.216842893255012 2.043613276735087 6.850196459250743 -0.343930299237627 1.4061915976252233 0.8418043718159826
Ni 6.263328841514963 4.349724586884609 7.737831966289783 -0.5452402205671449 -0.6265572715800822 -0.527151224275918
Ni 8.334352036391872 7.3993496643728145 4.0657156658305125 1.3032484837020781 0.02546986213633033 0.45690251526200026
Ni 7.3201107583518485 2.0594684886185464 2.7054973169990264 0.9311761748125963 -0.8790306031572925 -0.9167191188470019
Ni 0.06848392661858962 4.2672719120811715 11.998491502659276 2.496342423334236 -0.9147326845445924 -3.2615168652003055
Ni 6.933065252093066 6.34147172234422 11.174247120437009 0.8091526472192322 0.3896344861429612 1.3051994367808617
Ni 7.959483555779964 4.906124561960678 5.811159933335562 1.6867655440933917 0.6291309458445293 -0.25036862652938174
Ni 5.5827807926050825 6.192988173914825 1.6629665141590901 -1.5620477574973162 0.20721137441561735 -1.8190619143676736
Ni 0.7545251051757335 3.2750347330170797 4.148913266230348 -0.35589929867404513 1.983984812427725 0.6898431761229217
Ni 5.0853061041070236 2.906677385111853 5.651914903659431 -1.8540389446634908 1.0183558552538978 1.5354358113367426
Ni 4.721239973477812 7.73655388945606 5.489909376636048 0.26420604663310626 -0.057908442281009956 1.6001520205682056
Ni 4.080576095527259 4.056333504422497 9.237053245642375 1.3079944830274957 0.3336361164004706 0.9944751919815583
P 1.7615539801533628 0.1744240497463985 5.593268267553889 -0.5513977555281084 -0.008260183126263193 1.5103153621200311
P 7.066223024536693 0.41315505552908344 12.46923989550797 -0.8124637138703361 -0.2783370867178496 1.1945144741287688
P 3.108652535906123 5.856183347842118 0.812285632778826 0.6610488775990486 0.009878435455976536 0.17061994844482872
P 3.946619525062556 4.323615037614307 11.537069541124103 0.1780149553573192 -0.8392055007405547 -1.218834538931372
P 9.275354681918083 6.04926026021556 13.124763274320362 0.48431047496130786 1.4026532454546616 0.836034816322057
P 1.557089551805041 6.406545896014704 7.91840676079847 0.38452390438927325 -2.6700093861355048 0.7825245031087427
P 0.710882868177713 6.061028598502814 4.226945615705526 0.5009295715752276 -0.45231335322942107 0.3023743301727115
P 4.92694904060316 7.764335341561173 7.993189116929757 -0.8699831482430437 0.0955067122497581 -1.7156691145016196
Ni 6.667520640179642 3.8795297796412176 4.0740900413631 -0.5209895755498962 0.2007782171957639 -1.0860257477970459
Ni 8.236229916686622 0.473798686687317 5.490806631157396 0.7900226112580008 -0.7370584003561435 -0.4871751981036126
Ni 5.97692259756273 0.18633078443497864 1.3778912906303484 0.22922593101349553 -0.2715028374048356 -0.8037319904242932
Ni 2.965351886264642 6.907280795040645 9.533874515420575 0.757291953794199 0.7175121027930997 0.7807244737855263
Ni 8.682330746410567 8.773811696521983 0.5376858093450841 -0.49754908513876894 0.7714949847674584 -0.19336649811272505
Ni 0.9986275632327034 0.6522631682845091 10.118027148719603 1.187405116777497 0.35199893517837444 2.0596739757309237
Ni 0.31716925611275854 7.1595059143700714 6.413855826742461 -0.665062626744132 0.22200061690964992 -0.8071888386246422
Ni 3.308983648912828 3.120142223720908 13.324112608829068 -1.216663242311666 1.4914311236210185 -1.780278880062205
Ni 0.29775196235624346 6.626354677046959 10.839810823380285 1.4941567500822976 -2.818414231935875 0.4909932862981221
Ni 8.182766179368993 0.9633318367200234 9.099871760376304 -1.2327781455956577 -1.0939357466727417 -0.1493939491865169
Ni 2.049325611420692 2.7588440211182177 8.488557207855953 0.8466673563352386 -0.1037625245006471 -0.5477539881279341
Ni 6.725526380198508 2.5932141802829256 0.2704479313939608 -0.6998391109933689 -1.1020802301567472 0.2299191004257782
Ni 2.307968979965978 2.6569972734309713 5.905736690196104 -0.9832608113229777 -1.957955735353815 -0.586593586702951
Ni 4.287836316949348 5.138565497744841 3.955097930104865 0.47689515633384316 -0.166611598616384 -0.032018204777809374
Ni 3.283802934550756 0.11788215354290169 4.153087450307927 0.5361842810124637 0.04191335240433427 -1.127381427925697
Ni 3.744774411155438 5.761107806635857 7.2645144160849275 0.39246501361322084 1.8554124279722497 -0.1511153027529978
Ni 5.81093051111323 1.1586100878259664 10.467214272953903 0.5704833114046497 0.013727891109053777 0.24765534136327672
Ni 6.320089942756803 6.561456982009039 3.6248748281918646 0.008770547103778444 -0.5206316779898453 2.040399443772028
Ni 3.550183497881584 8.154613193300591 1.5797141124996688 0.41051132959197045 0.2935742153825783 -0.21242197208227934
Ni 1.2400224675321876 4.0166722538411435 0.6368147860908541 -1.173115182517386 0.5929748076389465 -0.036146368013570004
Ni 3.7967798776671478 0.8086566747923776 6.567853868022008 -0.44835334014040845 0.42895410967819025 -0.4458254315122322
Ni 0.8321459807865661 1.0940932151004203 3.7591611350489886 -0.051436975624053353 -2.7431235896226758 0.16292720778626132
Ni 6.40209677680429 8.266751431771008 9.51162055985433 0.7005487354658838 0.764590030117509 0.04848509208458101
Ni 4.582304847905005 1.1921503163620946 12.51471286611011 1.594414603863796 -0.22829879121353588 1.1410422132422413
P 6.733031366256993 4.27734977083545 1.8623288523565136 1.2343087233075711 0.2504555298162332 -0.6596543112443672
P 7.054724048372824 2.8487273751874818 9.524725491574525 -0.8010768121896332 0.27732818583736113 -0.6312973573682289
P 9.083132297660212 2.877493392295316 6.37407847179758 1.7800721633680376 -1.0149038921495552 -2.355793326132859
P 3.589287447518001 3.716500676548965 7.146256084404193 0.46076714042372907 -0.8983015355717626 0.8127938435162454
P 3.4944162499915503 3.1023643235774165 4.068475234342859 -0.8933845578861195 0.7061709667486676 0.25380027791875
P 4.348442794711253 7.579395022983812 3.3695306812406063 0.5920252992414836 -0.8024096720684438 0.5730477296977163
P 6.427370374657184 1.7990696220967088 4.6520027617486495 1.6780685305400262 -2.088212192379933 0.2950844813795176
P 5.965154259275476 5.267218420883559 5.515399393022561 -1.6672920087498124 1.270906834146579 1.045180945866542
