# total energy = -381172.95306953567 ev
CRYSTAL
PRIMVEC
9.20223786703144 0.00000000000000 0.00000000000000
0.00000000000000 9.20223786703144 0.00000000000000
0.00000000000000 0.00000000000000 13.46840529485968
PRIMCOORD
 96 1
Ni 1.4033872547501325 3.598700678276941 0.6604059476538282 0.1908653289574261 0.008311348079172784 2.7780839077479444
Ni 7.583968956288602 4.960880312773501 -0.003914631901712772 -0.492490696779255 -0.5464797494012008 1.2127466808660792
Ni 2.910594154810852 0.5260726024774932 0.43890992756016084 -0.7905100924173805 -0.16562326656118573 -0.11492625442695045
Ni 4.638719174440021 4.899170107007431 2.820459157128467 -1.548145031373295 1.2182714673390502 0.6112075285968892
Ni 5.123833537304601 2.860552386401087 3.524466227051936 -0.6979334093302237 -0.5218758348095917 1.3285561092289313
Ni 5.351690144070726 4.228649059714763 12.178306658705186 -0.3517377110971878 0.997837937806204 -0.4730714117123788
Ni 8.452761416261815 0.40410890516736026 3.3594645844171196 3.033471584758473 -2.1915455997629616 0.2590854375770893
Ni 2.879978310107047 8.183697189242116 8.899410425696306 0.6977950839801466 -0.6714351059293792 0.7014270243057791
Ni 0.9903172105468346 4.573300466895883 7.801398507559123 0.9512364358975811 0.2289539082990315 -0.2857881436792562
Ni 7.5862235045159645 1.273083569446294 1.266837090520853 -0.4601966126322397 -0.4121352383486386 0.5557161803978041
Ni 0.1936979005621818 0.6616298452629673 7.942035385534407 0.8960759886753534 0.8077817350136347 -2.6317310593805967
Ni 2.5508142689122524 3.190875909541382 8.806047283041847 0.7884845773469195 -2.1858135823751903 -0.21410938708703123
Ni 6.260990854235146 3.413533252028082 5.793178538623976 -1.0304822062037866 -1.3428234177812228 -0.4350378539784249
Ni 5.590819491973661 7.529206439957871 7.689395312295097 0.160279228640453 -0.3320276342627701 0.38056440552089293
Ni -0.27292732639050016 2.8760857635757247 9.166434516626184 0.4647209828651545 -1.067219927944452 -0.2793071639406028
Ni 3.664367846237971 3.5245490471909005 0.5800004758522167 0.438553066220535 -0.6359487400973112 0.8816271602398752
Ni 0.26251499447515464 1.4931274764367874 13.348886502826659 0.338759553669965 -0.614038313177465 -0.705465713151527
Ni 2.369125288499894 2.279274639961287 12.289986855427252 0.8985959268837298 -0.22450615694032305 -0.6718235996170494
Ni 8.508379740695176 8.158004541687855 1.0225848569110938 -0.009806701677776659 0.9317400177358663 -0.33804530121175974
Ni 1.710217465137554 7.450260443049564 1.6399804659532262 -0.5698814161545928 0.2700545349940833 -0.37052347634512317
Ni 6.98901668468203 9.081918405260645 11.958206618064947 1.0806799101041002 0.5789324706132675 -0.056883343450605264
Ni 4.707966012851842 8.861543217714294 12.505507862606525 0.35629062057519284 0.014499479167755673 -0.14609445249963873
Ni 2.956329275994473 7.294282514666792 12.985266523151413 -0.7052505118169273 0.749144127876084 -0.11328049129341136
Ni 6.9626246670654055 4.949101448565244 3.3728253132795945 0.3396604682176796 -0.9031953733289542 -0.2247514401819097
P 2.383029869608235 6.31774105390102 7.621541692665408 0.14492562900251812 0.24925019665422235 -0.036757005014375406
Ni 5.944305047310972 6.7919599673729625 12.754808443798044 0.5869861941556794 -0.4159289010631159 0.11017768399837155
P 8.842779855120048 3.8385109917669147 2.0789695327572866 0.04364113372871839 -0.16957839455419182 0.6820457915656899
Ni 7.768832708694592 6.168600388101633 7.7200893760190334 0.5520194482725073 0.007589125201167574 1.4948339786549805
P 5.223493771191647 7.94139306934555 9.81208283574034 -0.8182731214632617 1.2555583767149667 0.582612747678332
P 3.750914891455669 3.361651036085777 10.678061251436299 0.2609358605222667 -0.3388605980242035 0.3716200518434116
P 0.8190681687628106 2.7641221379336485 6.627964129314679 0.6282495716808406 -1.714270948602512 -0.7861502727867881
Ni 5.640143485845734 6.990645480748328 3.8582939622941876 -1.5084847366691956 -2.147113337591515 0.43986330039152627
Ni 4.002053159508427 6.718967818232422 5.924091412061085 0.4687486159673089 -1.1262984792741633 0.7541798905277786
Ni 5.6457844575329705 4.957309844560373 7.591143020770443 -1.1664639957494556 1.3711289495941354 -0.22643011343591327
Ni 4.465266196735779 7.800055901084134 1.8866004353135983 -0.13594965075615298 -0.3396501838050344 -1.1329146990391004
Ni 8.045930489193827 1.5643343914707635 5.76418136752504 0.8683109027469432 0.13680402833664826 -0.8475330467696436
Ni 3.7638348331341005 5.197902348251676 9.208186909349388 -0.3513972970386335 0.23715829848669476 -0.36942098730956374
Ni 4.151064993980536 6.535742064130393 11.175571028432536 0.8263350725357897 0.7430146179395785 -0.24916946401495796
Ni 8.062982235582812 7.099876041804581 3.8932983541393344 0.22854201757259351 -0.21778143662197977 -0.4203954214749018
Ni 9.088939712597286 6.032876584814464 1.8500739933590415 -1.0806531706312228 -0.852716390742796 0.2337670134169587
Ni 9.519990929193499 3.8211003581090854 12.367941771339284 -3.2214760472283355 0.3322623759813956 -0.35009374773586155
Ni 2.2842346460614826 8.351969307142257 6.651008372869613 -0.3893079560414779 -1.8661606676276892 -1.2783316658557404
Ni 6.709406693300877 6.740142167094296 1.6658534773656748 -0.439756856720649 -0.053254745559082474 0.09622302159049234
Ni -0.0317403581461864 4.909172939346786 4.176875430176878 0.06542531948334539 0.37847512709203207 -0.1360514664413399
Ni 6.65469018815846 6.113589411354011 5.7755479714860085 -0.5475303021529022 -1.288752346968432 -1.332968379364014
Ni 1.9258903092382642 6.407324837547408 10.629870973244268 -0.6733032694863695 0.3758587725151076 -0.630417782976753
Ni 7.226820910361535 2.125928551550047 3.5348638353870214 0.04364421905251193 2.1965489665148232 -0.023708913581165617
Ni 2.653759701644882 -0.1081824261864728 2.8290926965036127 0.029632992375084453 0.002858295384401529 1.13952809059056
Ni 8.322089641451468 4.174217823939889 6.286728592753953 0.4485510579735114 -0.6897709281240895 0.4777533905690805
Ni 6.277775735731911 -0.2656998889302153 3.155634099964538 1.1055846437655799 0.7203174334523789 -0.76384415309042
Ni 8.193994493186677 0.2357429244430602 9.768135709334581 -0.21840364358701095 3.4328628931778815 0.3481193976183101
Ni 2.700617495823353 4.869345654742619 12.264249116908443 0.4127301916201602 -0.2810218326388644 0.4298141436856404
Ni 0.6020407552781506 7.47743465086752 8.549177861372758 -0.42469353462962345 0.005446367826551911 -0.09407666467145089
Ni 7.0056819370891805 1.3365145936552885 7.745572212554584 -0.2562094015808749 0.35504363554196916 1.3505524109943643
Ni 2.9288790010466372 2.1301431763995633 3.129034111776736 0.2826737664199906 1.6484864460075352 -0.008765662007771999
Ni 0.7278335036797332 6.319314636541341 12.87229341203774 -0.8564889704113507 -0.3127716142466355 0.34127409256170255
P 5.256069692517606 5.160688499143715 0.82586770217178 1.4570140795937296 0.17086600301736377 -1.4734056335778754
Ni 1.4994034025227492 1.0815573969725096 9.826723595861697 -0.3770031705321959 0.28844357902423223 0.5775854696670697
P 0.9459256160619676 7.746609304739169 3.8398425555567073 0.995368650330105 0.34960755212806244 -0.5875094136490011
Ni 3.934904431283702 0.9979826745198642 9.419506174811875 0.4048315055983738 0.2905909643845383 1.0260151715713683
P 8.599030983910438 1.9596165102720615 11.375011125296242 -0.06223252357766056 -0.4891546904274866 -1.9821040504652445
P 6.288137455340112 8.848384017856633 0.5604052309732623 -0.2596731917597592 -0.6315459830439252 0.9757639887253002
P 4.6116185845233675 4.583248085809262 5.0575608621053645 -0.2508172840310261 0.9594125439504704 -0.23389916811944877
Ni 0.46488876470573043 2.6233463061696574 3.9662840617135102 -0.4569714208267226 0.34633428069342936 0.7624544718317449
Ni 3.586774578266081 3.788460021119487 6.826864975051351 0.25004209642789843 0.6488744470200438 0.3519392855850326
Ni 4.232725650999339 8.94171311223174 4.697173628521026 -0.997243755865631 -1.582167925285959 0.11742819491319777
Ni 3.218712678471051 5.785446818539775 1.0660700309861848 0.21347303905461298 -0.5695150339541095 0.3587066862158532
Ni 1.802249044002221 4.9925176058578655 2.6703264901090416 0.4863120787723689 -0.6050571927247772 0.18653739100603356
Ni 3.757862580891008 1.8998571788904848 5.30977027062206 1.0355290245990747 1.4575771511860511 1.118251183489655
Ni 0.3535131620503006 6.132638043315801 6.188677830234113 1.0569493992563797 1.7505083336679916 -0.9141145913446193
Ni 4.827668720368249 0.9377080178291762 2.0107248180269335 -0.8683970347028465 1.2062199354911551 -1.433783648310879
Ni 4.868167768321794 0.5314586721814718 7.265019398899404 -0.36870313530693277 0.19817009014895548 -0.916603419204744
Ni 2.3336874712608346 4.161463522539387 4.897529348032172 -0.35496778799871126 -0.15627936345244053 -0.45642506140494943
Ni 7.1414609538023255 2.5685009696999623 12.77338132007267 0.7672408374767947 0.15539413263400978 -0.1947536082682388
Ni 7.639016741986876 7.4202795527444865 10.121964508136713 0.3386952760909328 -0.8431374888051092 0.19196190445571454
Ni 2.530790199758216 1.1590494403301101 7.428539481270526 -0.21152311441709376 2.108179379530479 0.2990414091447366
Ni 1.0975692905056085 1.515571734096114 2.098539011370785 -1.169726211440495 -0.593391840571707 -1.3000022088506387
Ni 6.063538440706582 5.956709663680293 9.894671078315545 -1.0978322535136706 -2.3814722189562016 -0.527701183242117
Ni 0.3255724078350432 8.274615297349596 11.239290082680371 0.5708486651638685 -0.44659856223283084 -1.0763532577042882
Ni 7.195708144823945 3.8455415013412177 10.564927101163526 0.5879858390647873 0.1454578473569043 0.38112490601005333
Ni 6.639607720629293 8.40211230016631 5.47637494305772 0.5818159628086496 0.9745933654559666 1.6559405882927354
Ni 1.4301381596356026 3.7816871741997393 10.602988476360222 1.1458658598831297 0.22635169478949405 -1.4567975927075492
Ni 2.740463184902846 8.928645934750707 11.358417650342862 -0.8944081140546274 0.35123506042915636 -0.5576375657902332
Ni 6.018392262733374 1.6405473237932486 10.567485323233758 -0.002336361442660493 0.036147139344518395 -0.013766457656473066
Ni 5.913514360091577 3.0061869996509842 1.3518234362309567 0.7675668533576459 1.393250206973207 0.09598596587902179
Ni 3.1734652758835526 6.859403167202894 3.7303846992301843 -1.4265585913173495 -0.49438251448532927 -0.5049363787417757
Ni 1.8185001957145501 0.8509732469631593 5.036590802919602 -1.0725531672319075 -0.04312125666950638 -0.4900856868821882
Ni 4.954190285992717 2.049485563285994 12.855768033643063 -1.2010743867344735 -1.7958160564658558 -0.6933627592404058
P 7.245510655054479 3.8657496152485082 8.267849812219978 -0.1550542327960878 -0.550531293762755 0.4151999933168914
Ni 5.13599889549469 2.8211484047294033 8.414439617739266 0.12782882142123145 -0.2974241852562878 0.5662924132517537
P 7.735548215068604 8.384039105396768 7.711079465123483 0.09677812276301397 0.23513098364402085 -0.4143427875229187
Ni 9.168097360971835 5.382480831290122 9.642098181411171 -1.5682901388626023 0.3945051839717012 1.3192692846103669
P 7.8952714541800955 5.808387997032887 11.590020488061471 0.2635851252196557 0.05538233342504655 -0.8558387384218616
P 0.9633730586704478 8.581160238369474 13.127398764746887 1.7389951908220698 0.39431466522744996 1.746443933790631
P 5.787434501874919 1.1004219841810454 4.882593196081843 1.0155602947866318 1.69462823467092 0.6693622825607505
Ni 9.130285366415798 8.546789880699288 5.535824159030064 0.0054993325516744 0.022828053638109073 1.4546072699244497
