# total energy = -340897.23166310275 ev
CRYSTAL
PRIMVEC
9.00518105728756 0.00000000000000 0.00000000000000

0.00000000000000 9.00518105728756 0.00000000000000

0.00000000000000 0.00000000000000 13.17999273499513

PRIMCOORD
 96 1
Ni 6.216690728411221 1.9987539687565958 11.322286196135353 1.2940742734019777 1.0054391471922297 0.7521988555420078
Ni 4.584699774123792 0.25188752167852296 6.003447140242606 0.029281522572936664 -0.1333502654600929 -0.3854636425947232
Ni 2.7006718121521414 1.5939080435579516 4.8228093687708435 0.2414047324678746 -0.3926210795751109 0.29858349567171155
Ni 3.5030874762478414 4.366666330146002 4.935011223302897 -0.45589387149182775 -0.42374196934963154 0.11268193847746401
Ni 5.074167385802666 4.762498069097258 2.332225729341678 0.008736094321417212 -0.4739083057913774 0.5347624609642726
Ni 7.413569343936096 6.027969148804308 2.5095764668161458 -0.7906581879594706 -0.28135839004267676 -0.13910439433505076
Ni 4.929634229688196 4.588653048611909 11.27739446800163 0.0034365364853747265 0.3824135429144898 0.07661887420631966
Ni 5.654794445415918 7.837137040571624 12.285334479055892 -0.9482033054982123 -0.1356370046117406 -0.015822311744237264
Ni 1.8227837255395951 6.364627842968761 0.3696978029786823 0.5792584864941185 0.978500670930173 -0.604370708180714
Ni 2.740807904164739 1.4202701422371282 0.36779140614694195 -0.16694558491703504 1.0132586432366484 1.2073699899351982
Ni 0.6352254724183635 -0.0037839770840685616 4.830072047300831 -0.49048857874756174 -0.02678652406522484 -0.060279770726663934
Ni 8.48812157985605 2.2405610907494777 1.280920368344433 0.2762326387803372 0.06820571044195996 1.4816555322914935
Ni 6.8742310395119315 0.681833588063327 4.687424576101649 -0.7559714352105625 -1.0190636799541999 0.7935447654786463
Ni 0.6527882770520115 7.225802313522213 2.4869464467964777 0.47289323426330165 -0.02787770024687457 -0.02275760541148984
Ni 7.6031013898389785 3.743687903977836 3.716811040567291 0.55332428312686 -0.27757706862337356 -0.005013136943875237
Ni 7.546269692129418 3.7544581005331574 12.577140167365208 0.3111317646503674 0.07525721797210265 -0.43682219957235735
Ni 8.025246267866027 8.889473494800962 7.009014286085893 -0.5816344429254628 -0.06909454080481647 -0.8915354204925225
Ni 6.781504690072012 0.5116545767900779 0.32110404490859484 0.14335031409559829 1.0054908263657716 0.3171831130507699
Ni 2.018493325653974 6.4515998817073 9.272625938810837 -0.09845062536943044 -0.1161956080576773 -0.33480853944201694
Ni 0.24175309090648403 4.841662615851296 1.2556338199102004 -0.7880066092692365 -0.8791889831120278 0.7842774812441073
Ni 6.490367186197817 1.9297652766075022 7.028323195328302 -0.6566448349940821 0.14330506267995965 -0.21915440571010644
Ni 3.512939144334398 4.412700815757041 0.43586066930916434 -1.1390478085200317 0.22292030051044187 -0.10249882729687508
Ni 5.721675925195494 5.2917505707271415 4.513369734897456 1.1320518368181731 0.5199063697880465 1.1275495780724454
Ni 5.263582364351686 2.941407317598131 9.082398692929635 0.5316092600472715 -0.1661778535130751 0.24214572439895718
P 0.11019369915426408 5.514241579332763 12.332993499331296 0.33225620533380845 -0.3391238789879191 -0.11134470772327922
P 3.928960499236348 6.371273666595707 12.496215107712704 -0.20471303347379582 -1.3165876240131453 -0.016876464040364483
P 2.2525649971108854 8.391396930022685 1.5459869725135185 0.8721063652336335 -0.06990495252125381 -1.4615525908940314
P 6.456786866001502 7.68747093124935 5.765113316587004 -0.27284186793123333 0.24760726173416067 0.053254231338450225
P 4.797059954029801 1.06719500298877 12.649814680124749 -0.8138274269870823 -0.4630453949349445 0.5970813736081524
P 3.9588577003765373 6.1020457682558735 8.240368336805076 0.02461317056298987 0.1463811305021221 -0.1480361496070418
P 4.682342952425924 0.8887303246163979 3.803100486581003 -0.05437034722076443 0.3580482266962479 -0.1635609847155183
P 0.23521983204286737 5.363575894912127 3.595949803921862 0.028497850329376722 0.40675391943206723 0.3629940007372975
Ni 1.4563088768645496 1.1350490423235071 2.59214857408568 0.052289296322019625 0.2916512873282526 0.01359470796529917
Ni 1.797704296269888 6.528486117651559 4.755499242372512 -0.0032154216135041394 -0.15719364773659378 0.6333095027022512
Ni 6.034056651205142 5.870360469781538 9.155138943510957 -0.1913584665437608 -1.5260448570401461 -0.49517801380343107
Ni 8.535488832264905 2.3478668283357726 10.47943816956997 -0.23102210368196985 0.5234732612036985 -1.2266033842435133
Ni 2.205783081471342 5.330454838950194 7.037641756695732 0.7968432337242598 -0.3669822959610841 0.004539796851882504
Ni 0.3852200335827018 9.108110285910199 9.256071714456617 1.166554755691049 0.5587462254733796 -0.08109542192043452
Ni 1.4473667320656916 1.1529513422833557 11.489764553606811 0.08563444744136865 -0.057052522038617874 -0.9488599652456045
Ni 3.9810104457996895 6.780036845558201 1.6190171899251777 0.32097600443429886 0.8267654752049891 -0.20588211408123253
Ni 5.681224651845574 7.960859223241824 7.913861183256689 -0.39393002819452155 -0.11638355569876731 -0.47797656232348
Ni 5.264212727026329 2.6696849841029264 4.984303783423731 -0.016166068236901192 0.5779212557399337 0.18864183894354608
Ni 0.9153496398484461 7.505557268528577 7.19408786684284 -0.7015141847029467 -0.6116284181843917 -0.392557316216711
Ni 5.147145373164141 4.703865335174434 7.067890159897508 0.11721556468175941 -0.9198034141992804 -0.44085111822609235
Ni 8.015214496158144 7.298645223167694 8.923132160072555 0.1148205820870216 -0.4467484575471338 0.5698834730371218
Ni 4.59721697580598 0.68645864905899 10.445579589278706 -0.8740480623410366 -2.047373818207332 -0.8171441500651411
Ni 8.332259905960148 7.0724440799627475 4.68933637604203 -1.0711097499171618 -0.0373046499877293 0.2890007370792829
Ni 7.361267252302897 6.0373795630186144 6.890751044178098 -0.351004432475589 -0.07763574550660823 -0.0917942963951774
Ni 2.282435182707876 5.218601484925407 2.642456918630795 0.3289183992098271 -0.6429729939339442 -0.38808102561291224
Ni 2.4093632098376863 5.129801394430404 11.371618379052878 -0.3360231285754084 0.17120436019338903 0.1937814741629566
Ni 1.1178491464868319 3.364623812172072 3.814184063437432 0.11519133516287904 -0.6781742244254256 0.140404601203713
Ni 3.7981332287048195 2.7940015087235035 2.8806196438461367 -0.706581314813209 -0.09859846380120439 -0.589860687489997
Ni 1.116003084368236 3.3477481028537843 8.136602535895953 -0.5539518894085299 0.39562232829527993 -0.038039214160908684
Ni 3.645477399268527 2.5826949350022548 7.184848551068794 0.26029359895257753 0.9357853914498335 -1.0040785193992774
Ni 4.000722787153869 6.779217374081165 5.992982219325433 0.5748729558319132 0.5460094946330015 0.2934621152847462
Ni 0.7014540765706296 7.171960335926673 11.076768939543145 0.019309241851573195 0.5602919726939448 0.5304872306276863
P 0.23266596269245837 5.586535172933196 8.12999903662002 0.045397711408508915 -0.10088777405601335 -0.8971692217395323
P 8.597408457276936 1.738801406915075 8.003194380470818 -1.00736310368782 0.12046518196730865 0.41210387089007094
P 1.7122991590368888 3.1613588651430486 10.412826845222387 0.3534482660303913 -0.3079821632777922 0.4906384740618647
P 3.84543744484621 6.220265785294551 3.8370383124656513 -0.04245379828883657 -0.35185701028387145 -0.6956333004421374
P 6.768150006550656 3.9553997108470695 10.347586109433097 0.8425160531710264 0.5399041530662121 -0.15785673524188942
P 6.239545877957547 7.9414800735870985 10.12604334639376 0.14396815018525527 -0.6783446885650188 0.14337114003120469
P 2.3615276880133833 8.464771145351078 5.88379890148681 1.3251892496392275 -0.024698531187944562 0.09610937883076351
P 6.979600663168966 3.8640421489292316 1.5889930157319532 -0.4102719598876547 0.8619368808997995 -0.4262372249676595
Ni 5.269273638785602 2.978571699858842 0.49272388515245547 0.3973375112141737 -0.9266016680680363 -0.3682069123968046
Ni 1.5115376523443032 1.0928057379413902 7.129967375578199 -0.2602313782560744 0.4890901557381383 -0.7000363146058396
Ni 6.833347517470829 0.8251816623494692 9.234218841562972 0.019120265769218683 0.31272482016910014 -0.7971425101322336
Ni 2.708056060626525 1.6423559176947649 9.2044324041499 -0.05936291533934938 -0.7887609709367578 0.34329215143299585
Ni 6.212269184507657 2.0214380198626616 2.6886264819578285 0.6482437554145803 -0.3956830063298863 -0.7806550540001718
Ni 4.247860976338013 6.962833016023474 10.31675777257065 -0.8551432550167338 0.687994295839641 0.49133215769477967
Ni 8.013737646463268 7.227999577702396 0.020538116457960897 -0.45987445340613053 -0.6722012946714423 0.880113037588194
Ni 7.523972863809206 3.8325060048349715 8.18878215706665 0.6705563028688517 0.22617814532610722 0.20411859442290653
Ni 3.0354304131116 8.436918120312944 12.354147570174193 0.5524521649345518 -1.0649043924373982 -0.4283439868980171
Ni 0.19404814420764255 4.687286796831335 10.092658438626584 -0.7516262708679894 0.7935612205388785 0.8876939352592454
Ni 8.473281041458753 2.2549783856366594 5.719167982268522 1.0162591206258693 0.34988780237264255 -0.19469652977805824
Ni 3.5932923749891903 2.60582023998057 11.538451065041881 -0.2820317619606175 0.7809489310915068 -0.15755154529664478
Ni 1.0486173144489475 3.3683519571335294 12.670032212136748 0.45540793299434473 -0.09167268321564857 -0.1876005421632253
Ni 3.0382040088800277 8.358320899966085 8.053489217244334 1.5542053786347618 -0.08965873810941333 -0.05937988462021385
Ni 5.560312085668067 7.707705573105376 3.7001118327979032 -0.05256594702217398 0.3199362503158748 -0.33869296209808764
Ni 2.9261165201475157 8.370342816689623 3.602487565376012 1.2162076428314863 -0.17185510640351048 0.37850160945459327
Ni 3.299345254622303 4.113944928700738 9.235233725469147 -0.1028973482868744 1.0813566244561506 -0.2719707781801897
Ni 7.249909183236757 6.157274543735628 11.206499379020794 0.11727855670921093 -0.9896016659393406 -0.029783144799703547
Ni 0.623956388831968 8.762563478033284 0.17094355114577986 0.3422428842328751 0.8580650566492191 0.3502647260960871
Ni 4.565698842073854 0.2709343801519009 1.6226543825578652 -0.01559168379066992 -0.3704165184536137 0.1341449934472464
Ni 5.910694675777595 5.481606803148411 0.2137100565478503 0.2400145369885673 1.0547971288000673 0.09435382959223751
Ni 7.931358250068552 8.832686822996735 11.169753737679669 0.20010715927066827 0.1206821830741212 0.9354874005934405
Ni 0.17770824316280104 4.767432908321602 5.844127476817235 -0.37415927332549753 -0.5742744030159658 -0.2595721474055207
Ni 7.938148156592559 8.751469094959576 2.360220135722553 -0.43282516259782233 -0.04523264658555436 -0.018328365995542627
P 8.559397587995992 1.363456454889702 3.5944612474915987 -0.3069308391951424 2.174695360974842 -0.38736137383806835
P 1.926460375156162 3.1135773744051436 1.6585706467227843 0.056401261607864156 0.49157692671573394 -0.6309263471820553
P 4.751943996887528 1.0072655229923961 8.126876039826218 0.2804906427257427 -0.21005912827705758 0.3479885284674007
P 8.478594098287882 1.5546004282034556 12.45819073066016 -0.18011297553692854 -0.3442462878161491 0.04820329917810408
P 6.277655804230221 7.560335784955014 1.3458747393758146 -0.5725211677702849 -0.019935048361030182 0.5377261715782868
P 1.9304136496442772 3.2758507372202685 6.024891177915839 -0.8305331697775373 -0.06468561310384344 -0.33668595897038794
P 6.971297886225817 3.979911813709599 5.8238964370336355 -0.41566099211370994 -0.1103283506436229 1.086431982096529
P 2.3744501228435557 8.588142125959692 10.138011232030902 -0.20424200737464823 -0.43573513715576573 0.9799520586647187
