# total energy = -381166.58977925713 ev
CRYSTAL
PRIMVEC
9.26892539568006 0.00000000000000 0.00000000000000

0.00000000000000 9.26892539568006 0.00000000000000

0.00000000000000 0.00000000000000 13.56600923391318

PRIMCOORD
 96 1
Ni 8.841386664342291 3.5254912767331708 8.846190748223526 -0.22025483786313677 1.1494798024866333 -1.063598272031465
Ni 8.076496426936874 2.399122229209557 2.8454979050298386 -0.5830680900481958 -0.3268941696909467 -0.9150268187462436
Ni 4.704350247118892 8.9216277489648 5.295504679273548 0.36578827565298294 0.4722903105719802 -1.1361522321397917
Ni 8.539488504790512 4.857491427681801 6.765897297160118 0.2645207496600477 -2.252611613836346 1.4505392705026632
Ni 0.18051138950154808 5.557387962260252 9.968371168492789 0.5925865710615924 -0.7383097562647414 -1.1307074069751364
Ni 7.742064340271199 3.169305022849172 5.100330777150496 -0.12703640742692315 -0.6590444455745101 0.09390337231838021
Ni 6.421084941270838 1.2936082631692105 1.215061538055653 -0.2335114457627269 0.3294519031157939 1.4191203898717497
Ni 6.364720607715394 7.24554656031757 3.567480434345326 -0.6406536017721483 -1.3399543237635438 0.4241592593927082
Ni 4.6211060307627925 0.25380170718881173 2.8480885695963156 -1.2073633050669788 -0.14682593134902452 -0.2062351265452771
Ni 0.46181677815049277 4.371215809967731 4.613216321714545 -0.206730835234773 1.5771666154166255 -0.6737138746612268
Ni 2.321133493387241 6.744922646543014 8.63395090119959 -1.6450303691381347 0.5903499684215897 -0.1807773485938048
Ni 6.862749222460922 9.156168629788176 13.013912868895147 -0.5811395055669153 -0.10486089977114843 1.6591369837428458
Ni 1.4671596168104095 6.8475018406653785 5.012897933540047 0.1950901656720511 -1.2033724387400309 0.37312697540624123
Ni 3.0882390038924354 2.448080691607165 2.278167391069158 0.8388437465257618 0.48926781896658317 1.7688932639330828
Ni 5.988810081210777 7.892424843303005 1.400052599059807 1.1546176379338309 1.5247461928333805 -0.5281033037765421
Ni 0.27514989548759455 8.299191621477755 3.7549082957592357 -0.6542223415955184 1.2714755621658556 -0.8190272260204668
Ni 5.1283016124358545 2.670108523540581 8.358953942976205 -1.4582734059221272 -0.6340042147764308 1.800953120582105
Ni 1.1610533652615633 1.094168801713449 12.086282552089457 0.16054225249385254 0.7976112222385361 0.5284216063479092
Ni 6.423429979322068 8.82160677817105 10.62225305128656 -0.06529393611180367 1.428321082534411 0.9156852782658488
Ni 4.0240389512845045 0.7416141126850697 0.6079135756346082 1.2090142104068404 -0.058515993958021796 0.12556805041151275
Ni 0.8922322918347576 3.519902114895655 1.7621839415053027 -0.34725807805927933 0.4569027723723163 1.0456200902864894
Ni 1.8064671580806175 6.290661896137037 0.11281950257690376 -0.7716765046506452 -0.6571654833842424 0.3849321955712855
Ni 8.849515511658213 1.0971070509713137 0.5432924835968113 -1.234774092979764 -0.010279784659453265 0.012751643238713525
Ni 3.0661789621456905 2.6068944543335215 12.976999374669765 -0.5935610191597197 0.11971981916085189 0.741612081165097
P 2.428263729735509 4.1208621429174865 9.182926162777463 -0.7761337690910504 -0.5741458478579015 -0.5136596175473863
Ni 3.716505285269692 7.252628019096777 3.981948762388719 -0.7807537843615651 0.9050475960463447 1.602836509378904
P 4.43947217443119 7.707185375106072 13.407733739377596 1.1486544783718604 -0.463506393731763 0.04160893379003802
Ni 0.21760562776645292 6.864454704679998 11.79333817418783 0.6831413386227138 1.2143027124992893 1.9211709624252977
P 0.7752186006484411 6.665339655602866 7.180366552096022 -0.9737410447580005 0.9640577560319655 -0.7999390990407642
P 8.515046349292124 0.10299536885951928 11.821420236574433 1.0445880494775492 -0.09536118781082932 -1.8293391279239657
P 4.107227554089982 1.8924179005669897 5.642401616418644 0.5565888128107447 0.4570459828183999 -0.8022908871023924
Ni 0.5407027459228446 2.7610644855829376 6.30974105157044 -0.8442955136689524 -0.015518664460889404 -0.523770223618827
Ni 7.365087887379659 8.239750004787892 5.391267505874669 -0.5921181160656062 3.118387923086894 0.8982421430887368
Ni 3.814320251888768 5.632253070322631 9.792080847483454 1.7133618065246814 -1.7972288776529821 1.3534055641724434
Ni 4.081552631552804 2.9523009483219473 11.0214999505247 1.0579205049203972 0.5443799294493785 -1.4695690334406046
Ni 1.4820733173022216 0.6781025109821824 5.531974423410998 1.0851999094616407 -1.5286013049134126 1.1976288513880342
Ni 2.4603064038189113 6.715725532466439 11.490137730658986 0.8409921603273323 -0.7932452319603565 -0.9161084818461965
Ni 3.722743271864465 8.040532997534617 10.019746039664923 -0.6473996622467302 0.895862844223283 -0.7064640725090543
Ni 7.245583636017985 7.165741115174934 12.269721995031256 0.8294995863067004 -2.1964016423036816 0.16317711901353832
Ni 0.9590742183273949 2.6318927453381313 10.193281636133447 1.1080392759536595 -1.1741197125225005 0.7755172185529741
Ni 3.2798647614857996 4.579998347927997 0.9756934010382831 -0.9229828403685264 0.6273913374456033 1.1958573613099082
Ni 6.639229093585814 0.4374821421833061 3.68988678615696 1.5393487732379039 0.45253395388065937 0.3082775830310239
Ni 1.9111503982015159 4.811804895845789 6.933668549106666 -3.651472225017795 3.3825299492512846 -0.4938510674618914
Ni 3.112347478087093 7.659190880919247 6.361047332696808 -0.9188485064851789 -0.04683033008997742 1.2419999213042416
Ni 3.90541524780768 5.225578981398917 5.2373338322153975 -0.6776443200638845 -0.41000430804856486 0.4046983224546191
Ni 5.937200706233518 1.8455171395423975 12.511157102346745 -0.6779091436894971 1.3782529622334263 -1.0083948873864441
Ni 8.292165776249169 7.609222105685338 9.978084075108928 -0.45694802378795496 0.31721293784744076 -1.1063078950848495
Ni 4.529232445135173 5.347558035763272 3.076662116437946 0.8066424792028689 -1.0372989720153039 -1.628439811769305
Ni 1.0959113596329397 8.358902036995625 1.2349582126832006 -0.38259017770167014 -0.6759288800346747 1.1052280317571095
Ni 1.8097668954175254 1.3057876307554386 0.9566170262824109 -1.239035439359279 -0.6541930310194798 -0.9682599670387712
Ni 5.706024445222775 7.2411994344439465 9.18372699790642 0.47978533339744467 -1.8735556745401796 -1.0678938140830254
Ni 8.413292089503987 2.641439738194916 11.906913094160682 0.7471790337299131 -2.198770913866807 1.4814117917118035
Ni 0.8970048613706395 6.165828012840749 2.7090908418491044 0.012014765072688985 0.21038540126822475 -0.5005061108845639
Ni 1.9190104466894315 4.33382496609951 11.350760903875033 -1.1777673365774168 0.33180086296394473 0.511205499579939
Ni 3.80748905408736 4.808041712253698 12.370572534621786 0.3927856301774332 1.579246894984422 0.5555472589201077
Ni 5.659411020876396 5.662330732284055 0.9508916112458713 -0.2041946990764806 -0.10931713577028916 -0.14913992419418187
P 8.61705087005806 0.9079931720810456 4.800617303245654 -0.7618528336920041 -0.047611688340692196 0.47646732476780523
Ni 5.033378550449125 3.306466576533345 1.5766552828451357 1.990808263107462 -0.04793024802237551 -1.4873577248825933
P 6.299606408862082 4.854238034970411 4.406253273752131 0.2990653204041365 0.3740219764166849 -0.05864917710177641
Ni 5.611194072487082 2.8080857426338777 3.7327416613737987 -0.5592841002547208 -0.46963847477142984 0.7088459424776695
P 5.294752969447639 1.3288394474882768 10.140889963877438 -0.10812003013839444 0.3981240116712111 0.256049736074559
P 0.8074077237484815 3.3737775106362284 13.279332246808904 0.7206740454608492 -0.5619608757559353 -2.2585570327865034
P 6.803808127726656 5.755650270227847 10.513711157645002 0.951770196913864 -0.9034946497369278 -0.14160479215940128
Ni 1.2658478324837057 8.601173201355465 10.578284978164769 -0.1905943346842266 0.006597193601543478 -0.8086291706155945
Ni 3.26591502920477 3.3848538761351192 7.099146668982565 3.7888704352950167 -2.7569851780961163 -0.42348922990887716
Ni 1.7174205946096177 2.047626051428017 8.006618000580273 -1.135826473369257 0.3214051215519174 1.645554874183037
Ni 7.901100557200044 6.936353756709201 7.544844786377768 -0.08229535576580665 1.1552771258947006 1.0937169457937164
Ni 3.520430443626564 0.8199902895767195 7.431052973557488 1.0887953401223829 -1.0480286997279822 -0.17292571375986993
Ni 8.402549405308829 6.439520833302047 5.311417569891535 0.8479500797024041 -1.0958188226280676 -2.4510460133902816
Ni 6.5044403847281815 4.708317347063264 8.466545771794637 0.182727273231324 1.0395067782999001 -0.3083791416058947
Ni 2.442055890289777 3.365101796739189 4.539688719544627 2.4797577795026777 -2.1870094024555042 3.108533656000634
Ni 4.363114769427121 0.024990875864526852 11.904416972630264 1.0930417741035625 1.1439015370679075 -0.7468075093231074
Ni 3.733235695081824 7.3230903877349105 1.7971574497064868 -1.3985541356846236 -0.20713706953425617 -1.0907141544116508
Ni 0.9509546399365763 1.8940585003103403 3.7115510448017783 -0.2652815390854722 -0.27276730593955606 -1.638638349568862
Ni 4.199416283171128 5.68630944152726 7.425219112097236 0.2503727402944398 -0.19822562597723925 1.6034301770988448
Ni 8.172763483063637 4.760631160348403 2.8161274620538257 -1.4309986293665744 0.5442179499502175 -0.13803815785406548
Ni 2.913000705882368 1.0877454366166026 10.139900042676366 -0.013334512325377032 -0.35281268932892146 -0.7015386101829789
Ni 5.691694687012494 3.6002451576943044 6.270182206120467 -0.40508733036292177 0.8858409412109067 -0.33553976118108664
Ni 5.961930198410121 4.225526845188178 12.677218237611665 1.0824362306735746 0.2200262667920985 -0.9754174040191588
Ni 6.121513281920082 1.150987312598973 6.309645581641872 0.4474228579063391 0.21619455175083413 -0.5004960835822349
Ni 7.221994221629133 2.385116883377905 7.8969638359262735 0.8853346909984494 0.31934721058162424 -1.8798204245029693
Ni 8.561038755656556 6.345886151904728 0.8365223443916331 0.09936002455757727 -0.37835377102281936 -0.4917378777736305
Ni 8.66571272685235 0.30528409789215033 6.984174921996588 0.06201115159547386 0.9013565203480026 -0.5304309234684542
Ni 6.913014603298149 3.266851190640241 10.389025577150374 -1.7691871410244175 1.1105882676277583 -0.4624941504171648
Ni 5.1006616777766975 6.689077372793375 11.604634908679655 -0.8578704241399098 0.04689537899995795 0.018071512789730168
Ni 2.5489451345853493 8.458311258732532 12.925408537542713 -2.0391825406457915 0.6537664850050224 0.6445706774383674
Ni 1.403463563497959 9.083926627530138 8.03917602689944 0.3607250021974626 -1.7222444537262922 0.6518235023460387
Ni 5.854392129357291 6.47224940784312 6.074017455903834 0.9134826141875753 -0.22515458915759934 -0.7049424936582053
P 2.322635059254036 4.671807051079891 3.0631776841971208 0.9960877878843168 1.3772229783070151 -1.4436098903726815
Ni 8.000407820760811 1.3374410099844867 9.667924522612246 1.6143805054627616 -1.2538845885569696 1.7983488501900384
P 2.438515160900173 0.3501132541560715 2.8826681484805934 -0.7464092454434241 -0.5790355718500351 -0.016751251316409862
Ni 8.482679262830093 4.856017668590316 12.107445361886167 -0.559230878419282 0.4558841012998149 0.43169644831001786
P 4.99936159531864 8.117094318890967 7.3157957436783185 0.4549168522905391 0.2968778258345145 0.4410619486853178
P 7.2358976092846445 3.3678268607196697 0.630230366606725 -0.4896642830740536 -0.5082114499486216 0.7020921686936038
P 8.157849782571825 8.314837567052757 1.426004662457585 -0.08021430486706185 1.050891623098074 0.5180631459317208
Ni 6.830150412871299 9.16722645743686 8.296577784598519 -1.0500655276523527 -0.5109933835691328 -0.6956716098792406
