# total energy = -381169.863040704 ev
CRYSTAL
PRIMVEC
9.19573222739578 0.00000000000000 0.00000000000000
0.00000000000000 9.19573222739578 0.00000000000000
0.00000000000000 0.00000000000000 13.45888363364865
PRIMCOORD
 96 1
Ni 6.015305298804115 5.294148411453964 12.971442486559065 -2.1165424067831937 -0.4854728707005251 0.3377609372021216
Ni 0.09019081947185834 3.815998869312943 2.9813850410637426 -0.46535116024998563 -0.6889684868274522 1.1031647214701774
Ni 1.56691594273257 7.062781930419438 4.070693057356466 1.0361211496571188 1.6579599327156092 1.7576606284420568
Ni 6.051095087585044 2.3983664391881843 5.0460310109068764 -1.4868684439510007 -1.1896442905206608 -0.39013893658320553
Ni 4.1044230021787795 5.012124508030967 11.265825479556066 0.15976140846377002 -0.33609743345676957 1.1678971286515565
Ni 4.249329346374535 -0.026293356387798054 12.98459238325915 0.3146492908853226 -0.8645462934981886 -1.1436272003605983
Ni 1.1964015106767665 8.737600591948365 8.387535628620986 -1.1088463452359871 0.39197933222605397 -1.5758216713529571
Ni 6.413452905394013 5.52088757434486 10.380325229370323 0.5799190028962529 0.3638602053923346 0.5146289234391911
Ni 9.095305369386534 4.806287243880836 12.16494644791815 -0.4820499610619053 0.0022381453018993714 2.3486729130379937
Ni 5.563537379166532 5.496647624903306 1.9740818036537766 0.6417393786371592 -1.076532720704946 0.9755647282303006
Ni 8.268130888291436 1.8951759864409 4.48179469155574 1.4411418884481633 -0.6653500760775638 0.4354176059153469
Ni 3.4917481647383455 1.5686999147324416 6.357168588798064 1.7397287265539847 0.1796362930108261 -1.6091897052904414
Ni 7.641386580955108 6.7057208542183355 13.018414285401043 -0.02523100665264687 2.119316369983905 -0.9104574542080062
Ni 1.4906281504081644 0.5504978958057345 5.705786156826395 -0.2089916062444917 -2.5675591526883785 1.5720508914566151
Ni 7.713950101836482 2.491739901490741 0.8069300771893377 -1.0536833269105983 0.36001229240115423 0.10684013498470632
Ni 4.823676373013604 2.7200239473505974 12.593382956431638 -1.1883517969614825 -1.2244320876238073 2.341974675082212
Ni 3.726156568082297 4.454118297081443 0.5451395427937491 -0.6217302825050841 -0.05458914809978986 0.21481669756670096
Ni 1.4581212379362778 1.4755747371927532 3.741206303004925 0.32815015358523486 0.25801405888978146 0.25568489653597254
Ni 4.104974746096266 2.31238634537994 8.625205758090475 -0.09923301206140973 -0.562367881386367 0.09655032302292405
Ni 0.6507516047593428 2.6326736894805967 6.259915447182385 -1.1691916790932637 0.17619461431912883 1.0357989904310099
Ni 6.573982798186581 7.17220194498888 7.046963432305112 -1.1840454562766447 1.9765026451180672 -0.7740365202423896
Ni 3.7725674272748324 9.076858731078582 8.144105292652942 -0.056273734891064374 -0.4351417265461409 0.26316989205910807
Ni 7.054947166791136 0.6808483158850114 2.9775495012640185 0.23899406614385293 -0.16506405162360602 0.7297189292719368
Ni 2.650770889974139 6.1412040650424755 12.839613392780924 -0.6228021754130242 1.120227076269103 0.100943052773981
P 7.8223401944266175 1.529011135601278 12.129899674279436 0.0005828690866635124 1.1110569797340608 0.49399067836354926
Ni 4.766515703162049 7.109845686580997 11.797667074365206 -0.20842519221806038 0.764490271314851 -1.595375939335801
P 4.745981633699609 7.1363477860842455 8.078277645430875 -1.8705904212642688 -1.2032999336308827 -0.37350209935747286
Ni 4.3761476858087045 8.78294474623376 4.775104516810915 0.7846880864189647 1.6162376132761584 -0.8124524010164266
P 6.614379648678519 8.036775467957574 1.0403867222756258 0.057492437789513885 -0.746198929204831 -0.3019776089549251
P 2.610898196203813 8.258410999611725 11.58256694941368 0.9501380606270797 0.43216567463695243 -0.2609757126212667
P 2.274104513238366 5.180351228472466 3.5290672037439066 0.6465208591862027 -1.5134919600758 -0.5728196728473102
Ni 1.1440686001032139 5.25524126953924 5.931948747323519 -1.2205314670178207 -0.6043959049916945 -2.5634970668038624
Ni 6.931393312202092 4.956205261993754 7.236249298503859 0.030625181085024676 -1.3276292265392875 2.6915932829538676
Ni 4.478146744687961 0.8038228393606953 10.571643352331808 -0.2692297250999428 -0.5014484201931751 0.5336571437152358
Ni 2.4704517820077374 1.574263332567093 12.294770872129423 0.309493457715996 -0.5003001655213448 -0.18138747137397793
Ni -0.20216724752565368 0.30197220475970654 10.759609630994568 -0.5182256396515139 -1.7261653860472532 -0.5402566513096243
Ni 0.44898804986664975 2.3632755260360705 10.956567496365956 0.5052297416124782 0.09103402119038516 2.2976696825172493
Ni 6.504757328005997 1.6649516411378844 9.166374583824716 -0.15716973647719384 -0.31708052603463455 -0.31655447832783545
Ni 8.509776332686414 9.42323436674437 0.34025771519406406 -0.5072639984336876 -1.0072965121159427 -0.44861019334622093
Ni 8.90850327038967 1.7355840583080577 8.57682149481973 1.3241299551367776 0.7663836316828221 0.3996422480879504
Ni 6.669857499581742 3.4200398469290745 2.99869324775528 0.004609987968185608 0.0025453921296730354 -0.27921074757205466
Ni 4.9173992731305685 3.4988932484697903 6.845295513024784 0.23749074212544904 0.8389208796206002 -0.7457641556602577
Ni 5.228766757231867 3.0106182729585456 10.558978070705916 0.7535664253134957 0.7297495253995562 -2.273827071571697
Ni 9.35582965149149 4.212141806335974 10.021888471668289 -1.8909319610350983 0.2903598222103386 -2.683021996345089
Ni 8.727733571557321 6.963072608797749 7.685439654473586 0.021125469124705552 -0.3981252972227918 0.8034070029847067
Ni 4.5197850189942415 4.676655010467486 9.092578834860957 -0.4575085242771153 1.1601642787836728 -2.014101172197131
Ni 3.6463468104179384 1.4537808524520541 1.0048093549029289 -1.2048994169075185 1.2542568842947237 1.0641729135880125
Ni 3.2649170445278695 5.054388092110399 5.651829279989043 2.446445024283161 1.3636992327889674 1.1382093717791364
Ni 0.45289991424162584 6.864990931732644 0.5199570308264896 -0.16944058342474688 -0.02513767560789219 -0.18054594930928905
Ni 5.898758591967145 5.407550177961266 5.326151397814548 -0.7443081399400214 0.8370714851166874 -1.498236576578626
Ni 0.49917927446716054 7.399869876807544 11.756980558316588 0.3064338449540658 0.492174708200733 0.6144268068651353
Ni 8.781363080336966 8.637826900202969 4.155161372830798 0.4342724365673102 -0.1818638967897642 0.6310862697986873
Ni 7.848364115868043 3.975029857796341 5.317375910806932 1.305463489075526 0.9277697202342087 -0.7657819935430812
Ni 7.3713906949333055 2.412178428589252 6.89322274841721 0.6941389752847981 0.16337972194264766 1.4720437202333423
Ni 3.7153975616913186 7.14939652973279 6.047332194067789 -0.2223718842061396 0.5373333070152424 2.5126023368365242
Ni 8.329448028988054 -0.10153099612258844 6.632026258306115 0.540313729799805 1.01483318681262 -2.113144179734922
P 7.580611988444018 5.422189783238562 3.6837633241822556 -0.7606397872205094 -0.363311017757084 -0.7333117888295178
Ni 2.480373976790528 7.2986892380725585 9.588000733250036 2.088904590461267 0.5220853797172363 1.7861808473689367
P 7.172698514514618 3.7460929149674596 9.288149983853064 0.48158407716908025 0.0007026824939794351 -0.7937843922932781
Ni 2.5846903601232256 3.0801196150978725 2.5956663857884146 0.5332393394515269 0.9415603462603978 -0.9154754762478878
P 6.804584168499878 -0.36749271453437166 5.047551984972746 -0.9312527936868026 0.9314309711358797 0.7104346271210281
P 5.41300324701242 3.341885321017174 1.1657696079511364 1.0691400277853005 -0.6943819445335396 0.5354116645124973
P 2.0789710810874635 1.7675484225944167 7.815653977719883 -1.829557414582359 -0.5244340824550711 0.43163602738572754
Ni 7.779230603007041 8.88855772777255 8.707076279286644 -0.6284655443463886 -0.4753617504084523 1.5985926465008857
Ni 4.755508412008202 8.481913264853366 2.255049117474789 -2.3144070498765883 0.354831262420847 -0.24743988291836094
Ni 2.3487002908824803 3.252548785044224 4.966826332405361 -0.4722311751992706 -1.0253939930476017 -0.7726584089479402
Ni 2.800882018458179 3.1847854362449777 10.58311043008356 -0.4639995313180977 1.0757901861119668 -0.13018703724076286
Ni 6.36731791816022 7.471228756802408 3.3396332862606353 2.224436179843395 -1.4206589380034629 0.8098183058276892
Ni 0.19666728024151348 6.586121164371275 9.684581666859579 -0.7007598230354254 -0.1943185776133492 0.37264669333571304
Ni 4.624791082223797 6.9131121970693865 0.5270432618734022 -0.34417352559668474 0.860402446533144 0.6080324733030174
Ni 5.785761437666 7.9224817154503375 9.71681546609231 -1.1303309974723244 0.7876942202351401 -0.15790532909163774
Ni 1.7089532185573975 5.434374128083046 10.964534678534456 2.0114398233148845 -0.38401045508796444 -0.7020677432135716
Ni 2.032284349936185 8.655657424469727 0.1525388017209786 -0.04766259618328566 0.4041082542791041 -0.449312104509252
Ni 1.78917678415987 5.989171028579193 7.907134038812267 1.0129645090349972 2.883970934790762 0.805530991306245
Ni 5.952912257468402 0.8627426527358356 1.1101501427757585 -0.3591915962720717 1.2530248116598355 -2.6205683578955576
Ni 7.893708270153439 4.838876917940345 1.0886229342618443 0.31048384665372336 0.42739499272118653 0.34077555565872925
Ni 9.052876262131855 6.6181223115854655 2.696662190311042 -1.3945691828949467 -1.1293213252608874 -0.00725102513545848
Ni 6.320897863235727 9.073024110852055 11.907007086066614 1.5548761794495416 0.007682199135606124 0.09459679884097902
Ni 0.7827986373848892 2.389685668219737 0.4212077436212267 0.2669177891373145 -0.8556227657563135 0.7928837348558797
Ni 4.443065027267806 3.9552958170142563 4.164164913990974 0.7424602880980052 -0.7302385492208328 -1.7564203282770523
Ni 2.1978626995737507 1.0855193747259853 9.82563040149891 -0.2851546238603153 -0.9587486851142263 0.6011874253567259
Ni 9.23269880057252 4.548172243548899 7.736125609453443 -1.8744385913657655 -1.4618071301069986 0.5787620064736743
Ni 8.353890284532685 6.3206495784728585 5.641627534954726 -1.118591854658525 0.6136390208565173 -2.7144709588829894
Ni 4.591870361813795 1.484283095357075 3.191518551184699 -0.04158527964095418 1.4478882060330613 0.6628419649437295
Ni 4.1467509563819185 6.6107197473591945 3.7068188633476065 -0.8619952449415607 -1.1270883221653107 0.0684427661534305
Ni 2.3610593546341683 3.961447761694226 7.676462780936088 1.3465484320412937 -2.406075105106546 -0.16995069029194604
Ni 1.245258434570157 4.785320975016365 1.298343556017882 0.30780681404219246 -0.6934748593382379 -1.2591376094257927
Ni 6.889552731792731 3.6001474530604396 11.954543502850822 2.647204472425847 -1.4638357305012533 -0.3729392848754674
P 9.263596459951739 1.3231186970593978 2.2937842992018975 -4.013157791356314 3.0685861690734186 -1.0955912799982939
Ni 2.4296687107735595 6.673416247849527 1.6559407433921411 1.29962554223751 0.9742406101022383 2.0918608448761136
P 1.0466490157390924 7.589550239907292 6.365702228055182 0.7697103820632099 0.3824567374475994 -1.0952611503523846
Ni 5.814084292096951 0.7175392863978342 6.927395007946709 -0.24879099762961668 -0.9708547243491409 -0.4658247574522945
P 7.655934228912823 7.6505271385214595 10.584806123056635 0.8515437105909336 -0.7261268410453043 1.0390239251262106
P 2.7976267293450108 0.00858697450247467 3.0271181748109663 1.335329937617655 -0.9573469196706933 -0.1342663495164591
P 1.9219079792430993 3.7270209668863585 12.76207682005661 0.7631152453441954 1.241234761003443 -1.2313609535331569
Ni 0.8144291966011691 8.707567331373207 2.0674994054697327 1.7007477173050967 -2.247680237973 0.8100234798599598
