# total energy = -381177.04322448146 ev
CRYSTAL
PRIMVEC
9.13454291875075 0.00000000000000 0.00000000000000

0.00000000000000 9.13454291875075 0.00000000000000

0.00000000000000 0.00000000000000 13.36932689534835

PRIMCOORD
 96 1
Ni 5.161034876687168 1.941199931530408 8.476781606407041 -2.447493263042017 0.46649144450201596 -0.14630631140012867
Ni 6.05816571577106 7.258618178699246 0.7647484794632374 0.2772471960877806 -1.7313158198999408 -2.462968732969797
Ni 7.7652290496270435 6.076407397479699 8.124125231065408 -0.23990217978041914 1.6547848774217373 -0.70747914403713
Ni 8.037210057576326 8.73919052709419 8.864465299064621 0.3347710013358622 0.0577901715355908 0.057163336584869294
Ni 2.497438772775197 0.8864954910551645 6.80550832417981 -0.6536718684086872 -0.36570085814549924 0.01508543357821273
Ni 7.596285682976431 0.16409749176506747 4.690734726320218 0.5693443127042002 1.2391344268309885 -0.4484235312567115
Ni 2.338031868670313 4.2535454662174 10.126021458264013 0.4833406548488708 0.5650217740694463 0.5038092071158679
Ni 7.301979852745769 4.451518409467939 0.006129278130443946 -0.6510079484232789 -0.3233699585877722 -0.1427461048526961
Ni 7.778565481922792 6.69572025584925 4.173649275314657 0.6283997241054596 -1.1384906504649812 0.9011413190134029
Ni 1.1643984230163198 3.0953493976728708 2.762624594433515 1.912220180989913 -0.4788620502522269 0.3025360525615564
Ni 4.942317387036871 6.193329543634217 2.3576135877883946 -0.07679242366970646 -0.639241294805654 1.1177660163231202
Ni 5.02472923099047 0.7105039112816751 4.62216354141766 0.4377814781618331 1.7583926215120749 -0.7787642647353621
Ni 6.146259245264355 4.39376069617614 8.535672916443978 -0.1903760480258334 -1.49963628513963 0.19027268967874972
Ni 1.9783227129344678 0.4745541068875882 2.886879037987896 -0.2831548198214672 -0.6482951774778061 -0.1149985024257826
Ni 2.9198839675570767 4.903102795361765 7.505593376093997 0.5851892501562568 0.9428340707664988 -0.09446387280754052
Ni 8.557687164274634 2.2515094805159688 6.0030150009568 0.7972111585866399 -1.7312692829327219 0.3419245816615079
Ni 0.2505559381207335 3.083355743149364 10.03716884827498 -0.18190837687445446 -2.014412532789963 -0.8446477548020486
Ni 3.5134008774312875 9.023612782157725 8.829103657487014 -0.2564359157693842 -1.5420196352018474 -0.9938367870666109
Ni 0.49041349986832855 5.595428053279213 2.9268801137867446 0.02801036916999692 -0.4922194453957394 -0.9376288724164755
Ni 2.271651147099618 8.741026570170522 11.604121085958642 -0.3897954372008577 -1.2455390448057517 1.005868007199532
Ni 7.963932756291047 1.1795252256750608 11.097236178750796 0.30848172862203 0.35616566496155433 0.4306685212661357
Ni 5.784659239196167 3.060839095471951 1.9173487271691527 0.14289342906383778 1.5276996190347498 0.3989259387472162
Ni 4.631797743569938 3.162232519090323 4.271873926081388 -1.189566386094874 -0.21578497501724125 0.12133755726993296
Ni 6.809746751977912 0.5711966548641663 7.14613267991873 -0.4513587026256356 1.1206379385542764 -2.8851490142592633
P 4.009059431699766 3.919276011812831 9.043760842921243 3.066336196696977 -0.6513547902397363 -0.4314174836170183
Ni 3.5955478196475057 2.2399086113271998 2.2670500779575846 0.3158559095989141 -1.5686860887494403 1.2483235495294243
P 6.984225651485527 7.215795442670154 10.089483287590726 -0.35782351227995146 -0.6603585364002433 -0.736593544904583
Ni 7.940018523585381 7.845357257913562 6.429456558156071 0.39438897010881113 -1.9927281058379938 0.9858131454311859
P 0.3914379896942611 1.6752385871995497 8.064618252852625 -0.054171600946397024 0.03059947005341182 0.22642651389148744
P 7.629398400149097 5.321117736949509 6.012707664182156 0.4874346224125863 -0.1395653931318693 0.7508672812147777
P 2.5452032963878524 4.079422813873849 5.047776595596913 0.9071607857346053 0.7596288294574917 -1.009356737079081
Ni 3.0114029505509934 5.834762205731914 12.049706817682182 0.30944075010118965 -0.20572039169238765 -0.7929364424706861
Ni 0.9905954796661605 2.0450779507545636 0.5857004817129277 -0.6517255433155936 0.6822512227082767 0.5228862783519769
Ni 4.037212092203534 3.1206612154067908 6.580181992908981 0.23607252162168377 -0.991729253805305 -0.18747867187338035
Ni 8.242234867766808 1.125256907682561 2.5831673691716643 -0.37498973964659293 0.2483233139645788 -1.5717467299526349
Ni 0.8982068882102198 5.248214951913632 8.59480537840736 -0.026509873365070474 1.2580358917211818 1.2291616318889929
Ni 0.1960537758359245 7.285300177833414 10.255302640648772 0.7570466705526123 -0.5677751684448673 0.6292412461701485
Ni 4.596620619754232 7.461669927673372 10.735983285304004 -1.0404233765768984 -0.33518006384882276 0.24233547181226006
Ni 1.9593319987270266 2.365398958504605 11.660031794722906 -0.6432344751254471 0.5717650063305507 0.7052330283154307
Ni 6.085277038410639 5.652719904894927 11.357710403300793 0.08784739593228741 -0.02685671518152794 0.04356477196482819
Ni 2.452131441140321 6.915689177845108 2.7742693094270914 0.5168269595317744 1.4215117729220617 -0.4999476672779325
Ni 4.650751919606706 6.111621059466079 8.814824540387894 -1.5096360766648194 0.0691845294154615 0.7436126565348935
Ni 0.8575051929887114 4.587413000744562 0.6671175739699469 -0.23730999357321064 -0.3075553601530187 -0.044977336041638664
Ni 3.2023422959469245 8.470150841884106 4.7737056042851185 -1.0602447821782 -0.6664777619241038 0.5603976450338736
Ni 3.486426572931733 7.800597998838785 13.730431611208324 0.8620667216094444 -0.5143324752446949 -0.14461889639537676
Ni 3.89097719862637 6.159376448536065 4.658969354191129 -0.6504078529454347 -0.15964108083582182 0.35887535058323355
Ni 7.322742668230865 2.0236117754840075 13.561176756652722 0.7534576676497733 0.24176160158666105 -0.42365917982783813
Ni 2.5990605599602774 2.3313727870651064 8.693297671274273 -1.0803384676042813 -0.35806571019774464 0.05602279522252287
Ni 4.395487124740453 3.937672980746831 11.347162746881681 -0.926038853586031 0.18711768898953582 -0.8083476348194336
Ni 8.354242629965771 6.243213281145923 12.207986519221794 -0.9652198946608667 1.4841235342160117 -0.20771633907649387
Ni 8.430077603198178 3.806820657023121 7.8517121592479135 -0.0734553888766735 -0.2034105126122884 -1.0546138091446675
Ni 0.7274969010075543 4.7700947195683305 11.506752341839933 0.609187412843067 1.0768191415971131 1.3648981381930751
Ni 9.214926643803057 4.137609850671059 4.599824103868011 -0.7102770184972413 -0.3910282811666943 1.2262177187693204
Ni 8.194835725860885 3.472121879113141 2.1340255599873474 -0.5892559640264626 0.6980889610714817 -0.18881256019345546
Ni 1.236296408358681 8.929298629107302 0.9849886973763445 -0.41922582664683283 -1.0188021987626972 -2.4780338548330354
Ni 5.065514964004526 2.7224499623239686 -0.2687638220214994 1.1674078477199636 -1.5981889833045637 -0.5624110759194766
P 2.3039965626881456 7.048103508365101 9.443757899095722 0.7549118835977967 0.15080625615301124 -0.4409210522320794
Ni 0.9544135561569376 5.752651801686368 6.291524963864411 -0.43489207242918004 0.9334382313738956 -1.1448721285112928
P 0.36485464362091086 1.5610294002175218 4.178115153225199 0.4193610666731165 0.22703920777482192 0.6752549938961016
Ni 3.5755431712038805 1.245184318374958 10.570551236855094 1.590377714790261 1.2773106807903936 0.6869437430879395
P 2.8413908424081873 5.597967456141006 1.0747136561902024 -0.03035907190783159 1.2596032362083018 -1.2132603872777041
P 0.03166215179693711 8.89209363681923 12.312414437914583 1.5378809304431256 -0.8953766486154837 -1.6702351505385362
P 1.015733741089382 7.1438791882424555 4.3841228402067935 0.4113927037556592 -0.4008177564532903 0.7810818571249452
Ni 4.881079412988441 5.208406614965085 0.11018907475369935 0.1431456542839599 -0.04543139285992175 0.11335505328508864
Ni 0.6717953732703945 -0.31360803234309176 5.634328416686528 0.9648033759487383 1.217641032843903 -0.9538265652222605
Ni 1.4878160407309224 3.2895041020880513 6.647002085982023 -0.7438849363596737 -0.7496169537474445 0.6385779501900422
Ni 5.933762379171185 7.887266539675822 5.294654053385114 -1.900988316829836 -1.4031283853188674 0.2644258759533962
Ni 6.777940274406815 8.380961167270613 11.912658533666548 -0.3871351167598752 -0.6443302792927871 0.38860167400307266
Ni 8.042435015982605 4.922632447586637 10.069776425238087 -1.0106906253991563 0.5603626780308801 0.6161044516778744
Ni 1.3617502173654128 6.857392526535878 13.273294336826424 -1.3221244946709747 -0.006996228812175047 0.05485937104204101
Ni 5.578812320165535 0.24849335838622646 0.5889121869151096 -0.9157382429909713 1.6177635630023814 -0.6413231170353472
Ni 6.039302885160976 4.940527016673879 4.628728537233382 0.7326854680994285 0.21160873215236456 -1.265580279727343
Ni 5.181678943117576 5.897644397460641 6.543937954509614 0.7980400822458386 -0.38870297546762733 1.0339423968382453
Ni 7.314357158061346 1.9274524448145836 8.789195754023384 2.2060581915568394 1.229465536282657 1.8168119419912323
Ni 4.239569615934868 8.512114930902378 2.5105587164097076 0.5252735476372308 1.1553113215667459 0.6201259141324418
Ni 5.8882084148842635 7.991034944387958 8.0700058061184 -1.3668763449653685 -2.3056259612498486 -0.23972374522102588
Ni 7.91966676252036 8.903301720673259 0.5494062033288846 0.011441923288354488 -0.5668313164743592 1.5594416873330368
Ni 6.72511521415591 8.049824861001278 2.7150829536619674 -0.5927848031153274 1.5121652708445763 0.17700965402125646
Ni 3.307243383949932 4.601626349136471 2.9286978877777403 -1.137936320623408 -0.975079818174082 0.3032865575743357
Ni 3.1998028930851308 3.5666278575595984 0.5591518469017172 -1.867003732354275 0.37186970596037244 -1.0006885198811215
Ni 3.102108959247429 7.174306349870635 7.015367134350369 0.5235231406050274 0.928068225311234 -0.09063627153133423
Ni -0.002040656832103096 8.071656417978566 2.6714317146128574 0.12720635734588415 -0.5729821665671035 0.5501487136123558
Ni 6.503913128899828 3.092526823988359 10.92942458193679 0.5642936376541702 0.11853299794160231 0.014932710050432346
Ni 3.0633876328764127 1.082461575281473 0.290886770909908 1.211008872239366 -0.29968547048663874 -0.8615782120088001
Ni 8.229583526171183 6.3666300871376205 1.1089672777421424 0.08536653849196266 0.5696613297239866 1.0737351033551508
Ni 5.793574552840449 0.2201077670444164 9.952113467673168 0.586889263566499 1.033708426450568 0.6302447477339984
Ni 0.9333767043917924 7.837492416676137 7.785694079021151 -0.12898067563748755 -0.03181637317964843 0.9645964021442548
Ni 0.8687132768427424 0.49166675912242225 10.035832464682604 0.2474974756291738 1.137123080693493 -1.085048214375125
P 6.903549370638908 5.165236766314597 2.409112312443859 -0.23587300401636796 0.5906515588224086 0.14632919421826412
Ni 2.571565586528629 1.7463692709577716 4.541693701235345 0.5523251524383842 1.6956988420272794 1.7307149530911483
P 4.566979028795527 9.57857278742895 6.751323130525591 0.4522979266104533 -0.7013324077094438 0.6372301779128962
Ni 6.456376968853882 2.808406008832877 6.535675760666116 -1.434757325078058 1.631097046886494 0.45905170039451904
P 4.512208310956269 0.004245735432235985 12.032219649197947 0.09225786629515723 0.4345786549538193 0.9337380220025017
P 5.948030534819104 1.052883926121447 2.563006520048411 -0.05932332035066557 -0.2747228870040301 1.22577677457716
P 8.973107895744574 3.17220743968413 12.539532966456937 -0.7026009900092223 -0.8965999794996236 -0.5240116502056716
Ni 6.846951744265986 2.6252584283330247 4.303906940310658 1.140241571717817 -0.6989785627652865 -1.5449110978170297
