# total energy = -340873.95552385633 ev
CRYSTAL
PRIMVEC
9.17866686538337 0.00000000000000 0.00000000000000
0.00000000000000 9.17866686538337 0.00000000000000
0.00000000000000 0.00000000000000 13.43390675135185
PRIMCOORD
 96 1
Ni 4.779543043050929 5.368804289089277 11.724777891032689 -0.8185821680632483 -0.10654702922431973 -0.5501937079176782
Ni 5.98675804833057 8.5451003795901 8.473759189932425 0.24298338980890413 0.3441624698530911 -0.6526706808376824
Ni 4.810557759017899 8.60489939543053 0.38481836973366473 -1.9623361238096977 -2.7699016290474683 -1.035699488738668
Ni 9.35884428570664 1.3137885084144445 5.959227554376342 -1.1131485721557668 -0.9147784501808633 -1.2359506297863683
Ni 0.4554114980266434 7.957215933609474 0.7067977490994463 -0.0724724561381139 -0.08002121501964929 -0.0845530414517318
Ni 7.074072125916649 6.348333279489757 4.331158732518904 -0.792338660985687 -0.6318786837929956 0.4757332748152581
Ni 0.1281259312383978 5.831445823152375 6.043833753656825 -0.3045551398741142 0.4714752708698526 0.0470550445062738
Ni 3.187668458977614 2.514413230751118 3.1243641101902204 -0.5134878678562125 1.2264709724307072 -0.458851668568571
Ni 4.474609366266462 1.4175441607644417 4.816042012581162 -0.9019476169647822 -1.398299082251024 0.6540241095417832
Ni 6.002068064972448 1.6912336549056504 2.5469075478467884 -0.8933750448044228 -0.563483483048049 1.1749856600672217
Ni 7.9879277535637465 0.3364752482401933 2.087078357368265 1.2397743744078327 -0.7775869565978092 -0.6503980827534218
Ni 1.4381227322938732 4.2487774421317015 4.4542804544808305 -0.23704285595475302 -0.8098293615712827 -1.1738446044842428
Ni 1.4902392038122105 1.685542881333729 1.6061042716032334 -0.4832907754475419 1.4278238311830185 -0.9827982698642622
Ni 7.664398097332969 -0.026890740860738446 11.958084921614182 -0.43586472075509447 1.2889233253286576 -0.4418003695132391
Ni 1.832750343505461 6.169936706677075 2.245799539489381 -1.0346769610114244 1.0026011635228023 0.5502952664925491
Ni 7.227089684331972 1.2863534725975527 9.556572049196456 0.034414472924127824 -0.2804533617299041 -0.5388839393318139
Ni 2.9782204555297556 4.5325542913624925 1.1533628478218674 1.0322632093636095 -1.3157075354010372 0.30042029177013424
Ni 7.970313891491945 6.976154105811397 11.41937151289507 0.5913593835227106 -0.3664935292501237 -0.4092676869928565
Ni 6.533687281927464 7.548636748479628 6.293328281450316 -0.9182406976978509 -0.12644402525856288 0.20100370294300868
Ni 6.377337867372452 0.8171455201258209 0.4710904970839917 1.394773842706585 2.0791415975372325 -1.3486410529042645
Ni 4.097145862441153 -0.5407639229384114 6.673172731508781 0.6579802659760539 3.204023141859211 1.3526607155866188
Ni 0.9876612894080964 3.7031882939243235 13.414266681331853 -0.4435844579968554 -0.08454789924540923 0.11235463704503232
Ni 7.425358071311121 8.751794782922513 4.218717307538085 -0.008088690545405423 -0.054484247090809394 1.7688608680332503
Ni 8.244801929666632 2.59052273794204 1.9659713528241387 0.6823365833332313 1.3032212300085686 -0.027253179288998227
P 4.845308192474826 8.441840375260883 4.338776108304931 0.5750717021062806 -0.29699429680772077 0.673168286570402
P 2.3788443184006702 2.0431253923255195 5.059625478793498 -0.9573934566379125 -0.1657255964670049 0.9743920480784379
P 7.737267535054716 1.6931978896546684 4.227072648155052 0.3221617972122839 1.579492178226009 -0.31198588512054654
P 8.058089484505306 8.326657282431784 9.690307063870016 -0.7662535338628609 2.4989474650572507 1.3894475453976651
P -0.18277846846306073 4.5085061836876 7.802319502048713 1.1232157265837817 -0.32203324205421957 -0.1749561139263374
P 5.86328661915398 7.238186692797218 12.117048420545457 -0.11718059767876594 -0.5214636869728374 0.18727889715774843
P 5.854190560105958 4.923739902429774 5.525097713775275 -0.6273913374456033 1.051425641224673 -0.4773944645677649
P 2.9764581514558706 7.117992047758009 7.788159572388385 -1.3109414814709617 0.7879040222531011 0.09137932034494585
Ni 2.7413465949320575 0.03076322048976038 10.9680197393053 1.183635879543052 1.9431760059414793 0.9726994908673635
Ni 7.25437786147604 2.9458748328403193 7.6059290703482985 0.8488191125709187 0.24689866570291025 0.8828278654161956
Ni 2.4036267194396825 2.1018596827879783 12.271417078750757 -0.6134546727598532 0.11549626799780754 0.08125945830212457
Ni 2.4343936113962634 9.292666096265426 13.589471831610732 0.9997058442528782 -1.2426838347451439 -1.5836403960664274
Ni 4.091702912879621 1.912907642866088 0.7989708414971735 -1.7795988232760451 -1.1590260514141717 1.4519459210422028
Ni 6.281595191358402 5.843433162321616 1.864814181116417 0.8807416723111282 -1.0815396870012342 -1.0537717728593465
Ni 8.678695878524477 7.005415696371534 8.31319676720078 -0.47213784415451593 0.5780912056588947 -2.602059757568409
Ni 6.606712756989086 3.7086679581540607 3.547236315652641 -0.7651960391326241 1.6981699292755916 -1.6207257309544991
Ni 4.078127664310474 6.791277394060366 5.646673748205732 -0.22601153784125594 -3.009466737203443 -2.3449090751201878
Ni 3.6482080782859225 3.3239808433592324 10.641562088285099 0.42424487712797904 -0.08850071324557016 -0.028543615965647615
Ni 2.260448692103553 5.279238856000877 6.897357084907799 0.7475613567699965 1.3646711097839337 -0.6939625976079339
Ni 3.905155683725221 0.190544538655323 2.58311188216467 -0.20965777907358085 0.4379915372901102 -0.10918986616380551
Ni 1.2225984512579313 5.885811068098326 9.230880816875054 1.5126090432502144 -0.4707216805332797 -0.11588501879579396
Ni 2.318668977211128 3.746860391755294 8.589156145703821 0.5510506566013349 -0.21716077231884534 0.7841316996948625
Ni 5.400498226418057 8.77667814929909 10.665152180474124 0.09405198208110253 -0.3344668398318821 1.904279843096914
Ni 1.6431833328911212 8.48141878758689 8.947398602856614 -1.1447068065780222 0.80709267936641 0.7705753011666665
Ni 6.045198621447381 2.826249265158302 5.559904137101214 0.5938911488056288 -0.8163951877142585 1.3819196124517363
Ni 1.2455267615525434 3.219197180299468 6.587638568989393 -0.9100275657594391 0.23325510677754666 0.32948404190531
Ni 3.7820422225636396 4.1827185753621565 5.277188341781574 -0.21536922763606134 -0.30060309720490164 -1.2916147561178917
Ni 7.285879046796739 7.754807967790106 0.2543509605304329 -0.5208677052600513 -1.2488938202105972 1.618388083960258
Ni 0.1443859399201052 1.1627810780833971 10.948499468086906 0.9926363390006067 0.5596168010037911 -0.634766803974068
Ni 0.3912773977377954 7.324493699082341 4.168152030751449 0.8614172609509035 0.5714667583638415 0.452357319093479
Ni 8.094482899364447 2.434430326064469 12.63538243481015 -0.1604754038116591 0.625323142062665 1.166159062914527
Ni 8.106828206548697 5.1965574232010905 9.743088988749586 0.17306686732342452 -1.0353390200754558 -0.0010256130510369432
P 4.386402375901682 1.0114432157384965 12.250084020789695 -1.4386366055278061 -0.8498002455372655 0.20549284906261384
P 7.187336877331986 4.085562384622177 0.7917582449281158 -0.1612451920981481 -0.1669278443052222 -0.43077290805448387
P 0.4437325620703326 0.9261550414960888 13.240968858066271 -0.8591500621832816 -0.038022244880044194 -0.8903871658206924
P 4.013675064274939 5.216264021360631 9.461514101744447 0.25216119965343026 -1.0061042915800544 0.34473094076205146
P 1.0482863852831612 3.7983343565800274 2.2567083852800724 0.09119342958638489 0.24201228414488643 0.0057266180711320735
P 2.316135665104918 6.1131574722965825 4.4211656594924795 1.0703839274947307 1.454245772819973 0.6805316689140086
P 2.899008558875432 4.344979051498326 12.483538827910715 0.127373993272 0.08489422684123443 -1.2299363052714882
P 7.659515046461578 3.3285793555520264 10.678384146895544 1.2607198663112482 -1.2035711850143982 0.1193611502698525
Ni 4.518538466774873 3.842740747775116 7.426465018557529 0.6997141553797305 -0.5191525223411575 1.2963008487396512
Ni 6.019388209698602 1.9029396104481744 11.425994839039424 0.5125270466048398 -0.3046402433887528 -1.1643821735197626
Ni 2.6908455688147814 1.5709564018629782 7.5994535207434755 -0.45139649784210645 -0.6752642498674822 -0.7039526189411102
Ni 4.939444601754865 6.329250830689717 7.814557418828459 -0.13519657464021234 -0.3005856137034049 -0.8072014370301325
Ni 1.5409146246034646 8.478499971464517 6.699261256869219 -0.9712211065496241 -0.3143459007122909 -0.6241939135542282
Ni 5.914512759968323 8.084129362930371 2.445709990004041 0.20543371368990426 -0.005569780778293633 0.22088038726227768
Ni 8.522566751978701 5.251868070853345 2.9664350470356475 1.777354250216242 -1.3733056455304802 -1.2603244306450423
Ni 4.523127800300617 5.826617844283294 3.3311255177921084 -1.247782846534606 -0.2695356863761358 0.0037160153990065036
Ni 1.186177500397635 3.8023454340815266 10.643429029163372 -1.0114763545252452 -0.28662503775825476 1.247312848876723
Ni 4.242343196528609 1.1115457586020026 9.472905745422047 0.17357080354303656 1.443032934823289 -1.1408277832385902
Ni 6.072082937241183 6.573513518263861 9.692738492771955 0.7171958571042616 -0.6281847798811762 1.9080519085448369
Ni 7.101865129748548 5.360727062083969 7.240661261434299 -0.7104747363303441 0.19707788552604125 0.18081565803090793
Ni 5.344095317386676 3.2053373930517246 13.072668819010225 1.1078904090806212 2.9604196019678044 0.3051508644765841
Ni 8.398608853448383 3.8940586752599744 5.013776201137914 -0.829196710354301 -1.2075715644230427 1.158636529285237
Ni 8.731005102050895 5.570321924204651 0.4208005803089 0.23579329981836808 0.7985123938965666 -0.03267203631172438
Ni 5.821395182730998 3.7951677164472644 9.800962320242617 -0.29501171916005325 0.6178368609879489 -0.9172677922616203
Ni 2.981533954335342 6.932702295989662 12.467015391484628 -0.2651288155576918 -0.12480880364798505 0.6017037028715122
Ni 3.2434563973165456 7.227365044343516 10.018135089881005 1.447863780553029 -1.6740802353162394 -0.2954647475370718
Ni 6.9533818328566595 0.7531803073107203 6.798201780484007 0.2798710068638729 0.1772261409074367 -0.6108863978120448
Ni 0.8191051655413132 0.9362699325868263 3.731791774056869 -0.4073879534716403 -0.3897265316361353 -0.1814851732941068
Ni 0.9873216787271913 7.958574376333094 11.368202279816447 -1.0893625254797625 -0.4147765326262276 0.26583484048578093
Ni 0.07519622981929881 1.158210101891757 8.183774808174713 0.445145117615756 -0.17502527660137598 1.3852314504337886
Ni 2.521820415061667 8.600603779250434 4.64087724843731 0.9860694844163662 0.1598215722777441 -1.3271450878140176
Ni 7.1331001337247555 5.028183954808632 12.12365797868923 -0.8693745681247673 -1.9313152499481512 0.4348936150910768
P 0.7949487495952123 5.8483345705271095 11.392718499510966 -0.20828069622039613 0.01542996140182504 0.8327643731009013
P 4.872458689613121 1.5044477804079108 7.306809161274242 1.0041201712704901 0.4477123641222999 -0.21283566258093023
P 4.777973490985125 3.614577442209278 2.0526739596591805 1.3664518558334402 0.4135349469096426 0.7301318484396393
P 1.7944569445666616 1.7716571356107704 9.713198659496422 1.082812640176387 -0.11197282822558136 -0.7016777068640044
P 8.164222411621637 7.355554308384569 2.5417225188294044 -0.971530924480559 -0.18878659205152648 -1.619366131602811
P 3.6819213223660308 6.646181025310476 1.1221452833130585 0.8099915981807599 0.7298960782797494 0.6458030071835716
P 1.8971019782034293 8.761257988652595 2.103265854580266 -0.36935156752420906 -0.9378291613527397 2.8079518989519703
P 8.55114912117703 8.173639724016462 6.283764110382668 0.6074981980661022 0.5004829709561123 -0.3440925358471042
