# total energy = -340888.2681186975 ev
CRYSTAL
PRIMVEC
9.11802006952638 0.00000000000000 0.00000000000000
0.00000000000000 9.11802006952638 0.00000000000000
0.00000000000000 0.00000000000000 13.34514403535040
PRIMCOORD
 96 1
Ni 6.848690836766927 2.1962575179493578 11.46439950575245 -0.9801358925407507 0.8896556869713064 0.8823627528543191
Ni 5.065406688282269 0.5634371146787023 5.977810494447921 -0.3248776534815502 -0.06134215055290725 -0.5365367792558761
Ni 2.8450046529271336 1.6387088206953728 4.237977359273496 -0.3350664210890939 1.3475300792282727 0.9394705536109045
Ni 3.7082532123652343 4.4656597936891815 4.5502002530860475 0.27704562159993573 -1.0864034428514386 0.30948625862714446
Ni 4.020071266082311 2.6990525040924287 2.126615903507569 -0.34275941885797745 1.12306043195284 0.5558200529655202
Ni 5.49330625676255 4.799488748092644 2.8351225426686804 0.5620896880243158 -1.2710775553964884 -1.4673203466157438
Ni 5.872324119120333 3.200115066403513 0.4078207762675681 -0.10798144767800112 0.3228012305684957 0.20959684392865838
Ni 5.734094933368216 8.085130843675238 12.154156760041394 -0.2279144112909236 -0.06385848921685776 1.9139117097597234
Ni 2.2406987482498733 6.606297388611632 0.11212794121821078 -0.6017553820450541 -0.23653737707324426 0.6141866658298712
Ni 0.5160379986355755 0.2406655833333928 0.2720005714439286 0.13894421460810266 -0.41391906972193876 -0.4872155644232447
Ni 8.013162310486488 -0.012529071513323421 7.052068276621871 0.36516786846016464 -0.6549155110078012 -0.5740931402430951
Ni -0.5787699773937919 2.906715413426495 1.1611707504186188 0.23044797634605474 -0.7045725119132962 0.3688586870481906
Ni 7.390510949230516 0.4435935047940376 4.625066493084298 -1.0776879173553116 1.328207210529945 0.32507408576307234
Ni 1.2050648995090338 7.600106878840272 2.5031089860807363 -0.8525502974785769 -0.22185329269850823 -0.06270740633155009
Ni 8.029921231555907 4.154853840210793 3.7094959985141798 -0.4646536199623288 0.48786373953020495 -1.0662225970281896
Ni 7.7626264703208605 4.455402020999793 12.674083594278768 1.0289040630833892 -1.4326117394899651 0.2611618604901438
Ni 8.345705624046213 7.522448701066474 9.141676871672177 0.2789276691139971 0.07766042809695659 0.4820396766492601
Ni 6.993922662008332 0.919050842868375 0.31917811959696457 0.3441958941941879 -0.7155421235509225 -0.30266769304341423
Ni 2.096533731368164 6.870400842787757 9.186103513140424 -0.4867393961177746 -0.01601694425354661 -0.6914087208378286
Ni 0.445013180534249 5.221306597120639 1.3122317259536478 0.2278326502103947 -0.13698272000635764 0.6042182417632498
Ni 6.796617823585506 2.0705473738883797 6.817847309943465 -0.24659270442671724 0.5107288170538365 1.1070573716563643
Ni 3.5931017356592005 4.2386666815982235 0.11505847290031698 0.8465637408778387 0.5383499212052147 -0.46013876281111077
Ni 6.530873125779079 5.954404536675778 4.6851068322888185 -0.33078759120808193 0.23192996020821993 0.9965529004461934
Ni 5.767703955708738 3.0594422512462804 9.579825094821679 -2.9983138059104166 -1.0575363821081012 -1.9057613127384472
P 0.3490487536684641 5.909078858418933 12.111024877437053 1.4315437032367668 -1.123408045100246 0.8957456019191284
P 4.173810204140782 6.195940890935248 12.335130312540697 0.5043841057827314 1.9482215387851864 1.3931748736505813
P 2.4707463970972277 8.777553295259388 1.3964357304063006 1.4664284309290938 0.7927482377192798 -1.7255010129903765
P 6.499470664319298 7.892211772953385 5.720862862499914 0.6402185711172587 0.2886464390636577 0.41975290279489647
P 4.941802806880179 1.4788334550636044 12.679341956509855 0.381684120947633 -1.3045108953542697 0.38287968391763094
P 4.166114595118699 6.359281104230988 8.223251524987349 0.13259127580688132 0.6826006356278954 -1.133525850260538
P 4.872669977963784 1.4144693506952541 3.7420053876223984 0.29521200809631737 -0.8695154645780057 0.691633435254125
P 0.3778607855984188 5.931582132194409 3.541414414730901 0.9251883326602776 -1.4017723855116053 0.9759393379608998
Ni 0.754737736820673 0.38065910598808395 4.564599430535898 0.3586393233130275 -0.26842188448666676 -0.7604680375293354
Ni 2.2274867370259406 6.752431897849704 4.634141658557851 -0.6986450906852678 -0.6530992837346687 0.40736558487413715
Ni 6.2246626544655355 5.755057261735242 8.988795027509529 -0.5660964951908637 1.1185841413490414 1.6818231124864518
Ni 8.812712381028527 2.4848155022169847 10.026299893988913 0.31351363461898263 1.0561333311129875 0.564039355551519
Ni 2.8291210617938756 5.035846066896494 6.891245548694612 0.7137454366618159 0.8362294488313663 0.1045197143816458
Ni 0.8468926548601232 0.41223754523711464 9.2076156581236 -0.5809723838614317 -1.5630363466628308 0.25042030570292356
Ni 1.727545691195562 1.6853748479169646 11.302282930763303 -0.8055998968709674 -1.868857240623246 0.6179103945383616
Ni 4.272695132866488 7.2551904119121025 1.5650115108827043 -0.321856093046407 -0.5688930840993945 -0.38331265768999145
Ni 5.830818891314025 8.095233610021763 8.100181959567125 -0.3306047857733145 -0.20447854886548655 -0.3677554266816828
Ni 5.912452525881221 3.406966471942597 4.982743629238067 -0.6276139949793706 -0.6829346219285465 -1.4873003892820966
Ni 1.0975725597444097 7.999859119060871 7.0922769219602415 0.4769342371018948 -0.5813634486522633 -0.8131419708842834
Ni 5.429170102898409 4.905613384832016 6.941850560628929 0.19261933553405536 0.004516399813114803 -0.383345824920772
Ni 0.94800967492304 7.785603881145091 11.399702593647957 -0.5662402198575797 0.5273047191346466 0.062102425757699496
Ni 4.617347177209776 0.5521435348981897 10.460084232685844 0.16744309337874388 0.5621405958669093 0.38303446432794036
Ni 8.615699319251089 7.558656359154974 4.677993864755493 -0.14758517811255228 -1.0949222789557271 0.7114697532537618
Ni 7.68305350831171 6.523688125886423 7.03172962083436 0.05829385064488671 -0.820091405618923 -0.781445411111951
Ni 3.0000474678696785 5.23282265659326 2.30725573646871 -0.8556451343538167 0.1440951626814228 -0.04663029826402937
Ni 2.581092677174544 5.39698349170415 11.262808286048486 -0.9341270299108041 1.0116432191204126 0.13583446533452734
Ni 1.2106542458722296 3.47440334910768 3.5194618693735924 0.514374898446856 1.0852029947854342 0.44027416267669983
Ni 1.3112624804097526 1.4278910763830586 2.3062409008239735 -0.027162933568037086 -0.20706430731479178 -0.47442895418153774
Ni 1.1017394949613435 3.7869143723575505 7.941882187820447 -0.7083805728054767 -0.6862832266858052 0.02957102878889746
Ni 4.343414497292175 2.760945624995157 6.638141162247562 -1.1496764918784714 0.1499963586572062 0.6789319285270565
Ni 4.353435201457187 7.350984331800739 5.713216490786738 0.017047185290273867 -0.6234148692963586 0.813175138115064
Ni 8.300361709749032 7.071343771257753 0.217045352087294 0.8627922869215593 0.8418149133389438 -0.43314295094855726
P 0.5783131645833578 6.094457326461564 7.872166717415295 -0.22859061142234177 -1.389155725188859 0.06798922355577969
P 8.96347884451212 1.735833971528588 8.045106382344269 -2.171148524163848 2.0231149456599673 -1.6355149734485315
P 2.0781518027087795 3.5424876057047148 10.458389192736549 -0.7825540707950974 -0.2776122927366832 -2.4460585874780194
P 4.339083437712212 6.283300642168165 3.779464949880012 -0.18805691297435354 2.3127180922099395 -0.6572235903156874
P 7.24737626862783 4.167062869216206 10.304759670920099 1.8865896249060026 1.7989517738813599 1.515233882467571
P 6.509728437008687 7.968684608105298 10.243772881222101 0.2888798952307025 0.0826455400163738 -1.255121032067232
P 2.689469464895497 8.959102194831312 5.550965880901117 -0.14820070020936413 -1.4213585351736489 1.7944574855554318
P 7.293805227325045 4.717554218859892 1.4956835563347066 0.16856358013643227 -1.5256288525486499 0.27609508476120836
Ni 2.819264481991894 1.6423742648030477 0.24158012075627783 -0.011797506855560328 -0.11966248356035519 -0.24675956902188473
Ni 1.420478125986194 1.191898478385943 6.750894599649322 1.7172056057508036 1.0912815968793463 0.03645849993735011
Ni 7.036357927871812 0.9073606292105394 9.133950261381521 -0.0844792507910029 -0.16712633346927347 0.5117256337494671
Ni 2.777111874753633 2.1843220295489933 8.589255237158852 0.6858399685007995 -0.23011270449382304 1.2714663061944746
Ni 6.397057061788442 1.9192794192955294 2.479807885540529 1.5465550611783558 0.6929927774954968 0.25480917879923853
Ni 4.060500567508754 7.359546152738815 10.25132624912956 1.7163028914308767 -0.961803155669834 0.7232281793412706
Ni 7.4908729972234935 6.222866404492372 11.318763752217588 -0.8656030168974769 1.2365607525665412 -1.5157290769364347
Ni 7.62193541912329 4.09915185500237 8.165733230161393 1.1586558125589466 -0.5865272522413898 -1.1738181221216817
Ni 3.225973771600941 8.503730031583807 12.441037028598045 0.2060816316865483 0.8387599285627038 -0.016730939601435704
Ni 0.4311437600561788 5.058823477720724 9.975481520382658 -0.7037345893930331 0.034561282914637254 0.2632179716882241
Ni 8.841890045567233 2.2927808794514624 5.634586332062995 0.22386620936347895 1.1141194207094685 -0.8054448593503418
Ni 3.883383025738645 2.778552521940232 11.38829230320929 0.5364557895062955 0.6941412892776432 -0.6037544147529538
Ni 1.2403060474596888 3.786075514502062 12.645498601051006 -0.9939470873922301 -0.006568397246137074 -0.8643948555219888
Ni 3.4511979877792407 8.782340255847767 7.983518715117179 -0.6797875916591324 -0.17093285169955721 -0.0860548228082389
Ni 5.742766170548313 8.179967371446198 3.2967578739698227 0.7151209768531039 0.011911149615289164 0.7291471159288668
Ni 3.382174575104866 8.567647352963908 3.584772424235417 0.35760445429060994 -0.22764830211373052 -1.4700667990126295
Ni 3.731449455673505 4.5288112013751425 9.296480794486312 0.3300615116753348 -0.42618657423538214 -0.23966332429673562
Ni 5.421538320017504 4.620894087055262 11.63452352605344 0.5420983325040534 -0.37624135266550685 -0.7941826561729612
Ni 8.259987116443597 -0.1752811725082047 2.4281625075050037 -0.05960717013967153 1.0700296294791056 -0.40524391054544406
Ni 4.790106305339417 0.48337998579861274 1.4271698409877425 -0.5279976314366132 -0.2010145015762861 -0.6528064350845983
Ni 6.0184677463785725 5.91537941035526 0.3457033520686982 -1.0339107722693612 0.9013876306962542 -0.6296796192591478
Ni 7.9918079072522215 9.3291023352426 11.420574653615317 0.8056793439586512 -1.9186955043016118 -0.698499566246339
Ni 0.5934089587740704 5.092423382041077 5.842877472986662 -0.5203593981650652 -0.06187771134140311 -0.9113087464647079
Ni 7.625254378464569 6.57903450830828 2.5085396788930026 0.08536036784437558 -0.8957142344605605 0.8254048474120367
P 8.411218598955774 2.0249846271071577 3.359266461233915 1.3122907964100046 -1.2517564864703732 -0.15402887685536698
P 1.9655533716498823 3.4719323656420578 1.2834479598862152 -0.21771844459452827 -0.7210224299392034 1.7920010535951396
P 4.8955653266065 1.2974851519353827 8.432369670340284 0.5158010893704215 0.5437991172452441 -2.1494466137103823
P 8.81385213354957 1.9239569636418905 12.422474563139328 0.45356882290307693 0.5870340166744793 0.8349814353568782
P 6.628545357822395 7.969067564952368 1.2187948142785283 -1.7082345126004455 1.5110908068334747 -0.32007483277626814
P 2.3367662087435606 3.251294513608436 5.613687829837148 -1.6615533064938222 0.07889224362152865 1.6251752820854206
P 7.674309326970266 4.131958491568077 5.847828557938072 -0.9969915306455088 1.201723333172382 1.7170623953047204
P 2.4322774700069787 8.879957779770074 10.284715527184025 2.2769399061690656 -0.20150018296345296 0.6278281678727058
