# total energy = -340867.9932663816 ev
CRYSTAL
PRIMVEC
9.30840318187822 0.00000000000000 0.00000000000000
0.00000000000000 9.30840318187822 0.00000000000000
0.00000000000000 0.00000000000000 13.62378896449012
PRIMCOORD
 96 1
Ni 5.883143602602651 9.155419702533724 3.5383428459695883 -0.1487840835166599 0.4588778938208162 -0.17029881765998411
Ni 2.2205382266335474 0.8416835133423152 8.283154360953617 -0.9943355810799005 0.12469824621204977 -0.5510164609292897
Ni 1.8436409765732151 7.687112164264602 10.461080578910302 1.0420166892059475 -3.1702817837427077 -0.3232105501917724
Ni 5.229945017063415 7.754477079025941 5.547075801985136 -1.0055291358028746 -1.3331157035751557 -0.7096175305363713
Ni 5.97981137098686 2.034174683945034 8.188973797934096 -1.4661265834179589 -1.4879382799764116 0.8131748810047479
Ni 4.149388327115191 4.442882283509419 5.692196602123827 1.3294467393640008 1.3381900327742695 -1.1507537841030502
Ni 6.866604337614365 7.194939647601475 12.076685222012214 0.33096139778178485 0.014179119713859451 -0.7049424936582053
Ni 2.6660477174988855 3.4585279417798547 3.736447077754202 0.5309168619659372 1.4251007758249006 0.47429474259651866
Ni 8.490995182601484 3.895780878908381 0.3016769737448829 -1.053764573770495 -1.0101236971520926 0.769888559512287
Ni 8.605255833243385 4.977100857928103 5.344530530980869 -0.7032586781978792 -2.0007417201710895 0.13478314125187754
Ni 1.1078023864393722 3.540553591755939 12.558313179404697 -0.690951578695752 -2.372990920958068 -0.45086993591467517
Ni 8.235293343649708 0.11209086183011886 4.90223430093847 -0.8981580680153628 1.09441602874327 -0.6834519278845972
Ni 1.1637551987414876 3.1600539896142696 8.032259381471617 -1.3524334300671612 -0.5322155261727027 -0.320740491384725
Ni 5.367755928082017 2.2360832601628324 2.7619642977358994 -1.7246638618010621 -2.235281864308647 -0.08912883374787231
Ni 2.0912165794345303 5.339877260165725 8.3089851801415 1.2450204532981204 0.9599874426173338 1.4986790634326836
Ni 8.344992876669245 3.4422568527923154 9.705696203504127 -0.6499432546041903 1.3484767594122582 0.9583766464867882
Ni 3.616007508994493 2.67961936952625 7.368058263218839 0.24336134197361314 0.3422133165465203 -0.0540139923226102
Ni 5.4359399823347205 7.765228284850087 8.01422155753566 1.2446872383284178 0.6476287475384008 -0.7874705342601083
Ni 6.934955943126665 3.244192647141939 3.9558033251380436 2.217112135378156 1.8581167142772903 1.4988824376927412
Ni 8.407871141034708 0.03369641998563601 0.9374567441683401 1.1546690599970566 -0.17879168562234368 0.27434544905995334
Ni 2.5155401443641483 5.191473386179262 12.147324833058345 0.786204265953175 1.320921218391493 0.733768416750962
Ni 7.9829518382931886 3.027874662598791 7.430032681622808 2.225934618765792 -0.0717574323489603 -0.2817006038734439
Ni 6.136192546610805 3.427503033544461 6.4943920069404335 -1.4446563293593249 2.7136070682207976 -1.4886535608758815
Ni 8.979909758105778 7.14065303949202 4.791609512629825 0.09681026155253004 0.17003579380658457 -2.0964651764173445
P 4.030063905072134 1.5591482461806758 9.268086754528792 1.2390963745042014 -0.9220307608679024 0.24812893856558554
P 7.524941161781245 8.173662405327915 9.708598563656482 -1.118537861492138 -0.23643479005710893 0.1036177713926667
P 5.514521523085753 8.373625525253725 13.079886287925458 -1.0854896727879175 0.2540990401060914 -0.004469862845895528
P 6.432972369373797 5.241682913638522 5.15165855269734 -0.6495413911800814 0.1508011139466887 -0.2984287152614022
P 3.5604084160181935 5.486810406429059 1.483590074825039 -0.31321384399037666 0.21109862528516546 -0.5222329610386942
P 0.5853570805283766 5.430057071442201 -0.21708592781630115 0.3473223556383115 1.6084602833235846 -0.06981573524155718
P 2.976399192289242 8.206400059772523 4.41202306485296 0.35914763040801373 -1.6878325519053252 0.6393387396154667
P 6.502655076559563 4.726397631554309 10.69738556704272 0.9277280683629957 2.588434967696123 0.6107059063701225
Ni 1.7850166525208573 9.290810428691481 1.0547798594995434 0.6053456704994736 -0.3385533511964298 -0.6340978029315015
Ni 4.076745547676544 3.700602278284399 0.39615819819134807 -0.26964058738511626 0.07926453935928285 -0.010434565069762675
Ni 1.249578677268439 8.763750016418916 5.668341026118526 0.1998323083427268 0.09382469656164487 0.12392382993987046
Ni 9.227718071049866 8.708830436884316 11.042081326689154 -2.4623375271437014 1.1978916181311177 -1.547031229483826
Ni 0.29191525119269046 1.2028225674375412 12.681513620586434 0.12144271538922956 0.20957241844862615 0.2718051991366029
Ni 0.8992392326945761 4.914036425496422 10.585139254877308 -0.28724287384791175 -0.30088386167011405 -1.0326653298980344
Ni 8.725017750242056 5.667104870158832 2.6619250256724665 -0.3013230060900617 -0.06083538611981782 -0.40236016123974583
Ni 2.114980933087384 7.095302498561075 0.5107371962264836 -0.4821461203201374 -1.917580673970878 -0.9148170167282826
Ni 2.2457639996062198 0.5107139252182064 10.750219133395337 -0.6411781068170506 3.979017140918863 -0.009372956574467729
Ni 1.467730417263844 4.276187397016941 1.4516417729811992 0.5963586365095148 0.3325601097274724 -0.007889687160721897
Ni 3.670964322142337 5.884828423601934 3.6007538284888407 -2.813331418096329 3.3319681771433323 1.393970115858367
Ni 0.1020815357498552 1.050341612800883 7.088103379440387 -0.8005427940630342 -0.13652146409922294 0.42911094697102875
Ni 3.6856902161802583 0.35622421714704505 6.057463933087459 0.5687133639884205 -0.09511693301050715 1.1573540630283874
Ni 3.590697960392022 8.416081152754964 9.108279155646084 0.01763056859756964 0.21068262079366942 0.25067870157063277
Ni 9.301282382416298 6.63481578676842 9.37112333245835 -0.9547953568934332 2.2874194655441507 -0.44729841651333285
Ni 7.80064675944825 1.062032967359435 9.193659554175435 1.2947278478255768 -0.9380747017046425 0.21662546864066562
Ni 4.4528143498422015 4.205033962108045 11.341028145742936 0.33813400427082413 0.7639009744702845 1.101078014144478
Ni 2.6362329016939157 2.084002566868545 1.9665668198572792 -0.2882720864433745 0.1269217362259298 -1.6580092978963057
Ni 3.2853916401962002 0.8704297244471884 3.8136798308654782 0.021947707915684782 -0.3099827386475887 -0.9879021667497307
Ni 4.35689125372287 6.4679905826295885 12.877941408934745 0.33499854396563594 -0.9630488551514768 -1.6922718186236017
Ni 1.82613186994532 2.0787340105945478 5.715888350230855 -0.5007321108524408 -0.18742622136889014 -0.27635399484954987
Ni 5.873732806855282 0.2952290427713884 10.591733327782784 -0.7199477088177859 -0.6948087476583131 -0.8823552966551513
Ni 0.41018223861962416 6.3887574536467895 6.822916277514756 1.3907518660313856 -0.8959140091761926 0.9342722972394168
Ni 4.394217950999777 7.54186383900055 1.1648545211725108 0.5590691560304372 0.9154155695442299 2.3941521284167155
P 3.2776191234315575 5.960449892100084 10.204136068116515 -0.07245934351199133 -0.1608142752083166 -0.054090868307132646
P 0.5402951001000716 1.598308698909839 1.4999114291904574 -0.026558981435451032 2.165552003912677 -0.3350502231391778
P 1.4064718150744875 5.350339905487232 4.270158344192439 -0.579577303286118 0.6711707965243989 -0.9082923282358875
P 3.9673718087728913 0.29520018672112447 1.8163096427716063 -0.5578378547264973 0.7244728503816491 0.6525624373945923
P 4.022663724439929 2.4092754121663527 5.011251527995313 1.4056863758540306 -0.13993486065614608 1.66066087658654
P 0.4299086069161876 1.9509110163285937 9.995773975883237 1.7092472701356758 -1.6245942127709698 -0.2460185770908021
P 3.1145079722137954 2.784329598371117 12.20033432823354 -1.4494930886263357 0.08345466618123046 -0.15396819882076063
P 4.486287368148375 5.811934317273891 7.368126214563009 -0.17796276196314512 0.321536247813143 0.5878760529598005
Ni 2.865480258435972 7.063802861756823 6.364707332012289 0.5081536001274926 -0.40444789700670997 0.8003957269622086
Ni 7.27178051693336 7.372972169326689 1.2565972133648948 -1.4834573613869226 -1.2138445419159483 -0.6221126055451672
Ni 1.4274529561373668 7.508539755147353 2.888107125204227 0.1545001600648307 -1.1591016418471134 0.6095748780894727
Ni 6.660702456376169 5.718692041308112 7.971143197852919 1.327119891003037 -0.42988459191225964 -0.39709634173764513
Ni 4.741951973486905 1.6298734945372675 12.659879029611126 1.024884400401035 -1.032806226351273 -0.08298158319955387
Ni 9.03905535274355 7.498198119068888 13.047421369697862 -0.17803655262387402 -1.073677767754654 1.0905645162076638
Ni 5.111058089975972 4.495223435326886 3.030325565190564 1.5629381305220695 -0.4638583777545431 -0.6312950433753838
Ni 6.272327945033436 2.6273340681286483 0.6043611167280104 0.9671960445506311 0.031054298202643296 -1.2169787166695556
Ni 6.313089443132083 2.713474032368172 10.667099746030216 -1.9693992013040664 -2.3455719055151665 -0.95000256349048
Ni 5.134552499932808 4.326825111028505 9.164532629375143 -1.3083711496406243 0.26542989173787834 -2.341031594442652
Ni 5.956261110610158 0.2747496246469691 1.141800398692283 0.41405148153474497 0.42019410409737307 0.25775180636733025
Ni 7.211620306334695 0.26039792842214765 12.562346510559333 0.600557762192527 0.8778090720453656 -0.1961342906658493
Ni 8.133468719831237 5.351689623967319 11.937518076631207 1.2688944317022406 -0.5785627459786745 -0.26296446091652126
Ni 6.459724720489466 6.838846678941114 3.630454150933086 0.47734947026244245 -0.7509724393340744 -0.12199395990700927
Ni 8.246658904092378 8.08172330582567 6.802848290816681 -0.38957252255677427 0.3650696523194035 2.138783477569581
Ni 5.366071107082736 6.944664607779984 10.279053821324359 -0.5810631438030252 -0.7990240434256626 -0.3840431080981128
Ni 2.02540616802612 4.5153668200917805 6.180240841918548 -1.5290592183864375 -0.08103988609215075 -0.6826890815766437
Ni 6.209905792430211 5.21164469615409 -0.03247981167289495 0.4928691631645963 -0.5051487518628978 0.41443123347166694
Ni 2.7208649045970654 3.250177950470879 9.7177803726824 0.5491328707533317 -0.07473656958194225 1.5510110400671804
Ni 0.8388342110888336 0.45510086963694046 3.509242915538899 -0.2470477896862648 0.9768394811776662 -0.8873067271231557
Ni 7.913781093289526 1.7665022383353794 2.3946398096405472 -0.3749272618397737 0.3507892311409894 0.5306988324178603
Ni 6.178005894283589 1.4954508423238504 5.351274469179652 -1.00550753853632 -0.5200835187958591 -0.5832496099313826
Ni 0.299119024515034 3.584126227654492 3.5418716616647696 -0.3644405033758369 -1.4664214889505582 0.03740363745943881
Ni 3.94215534420353 8.594942122374853 11.640451555046237 -0.11369906688806872 -0.6967149635420905 0.06534407262344875
P 8.531728755490198 8.075216731911317 2.8113919193170394 -0.001531863263494136 0.14064062847391906 0.7786197687376978
P 6.474795025449892 9.112089085121255 6.503710649495025 -0.44947228423620017 0.447974359534435 0.5045807951745698
P 6.952195106058543 4.228649381307924 1.8952737588987194 0.7505060412206171 0.35795643831338997 0.13937384594635352
P 8.879462777977325 4.9378473211658305 8.223074202623426 0.39927380900493814 -0.7006294681051483 -1.0968205244197047
P 1.4991183532283645 8.556405332667524 12.455658246010888 1.7909502437331222 0.46390748582492364 1.508669598986492
P 7.686218557546751 2.4250717725850337 12.108728469569826 1.5188033449863843 -0.43793008792455546 2.8888760854018636
P 8.8541066873583 2.4424784867765084 5.376737606436753 -0.3076255512693218 -0.26448372577452517 -0.3375097404232639
P 1.137877837537049 8.197091656461573 7.8036114859027865 0.6964761080584069 0.18093315744537872 0.503635657652481
