# total energy = -381166.4638834767 ev
CRYSTAL
PRIMVEC
9.25957396948311 0.00000000000000 0.00000000000000

0.00000000000000 9.25957396948311 0.00000000000000

0.00000000000000 0.00000000000000 13.55232247642259

PRIMCOORD
 96 1
Ni 4.269135858371658 9.194608841948769 10.231095926352396 -1.6149523188058317 0.9918464961094595 0.39321526151568414
Ni 2.956869029217331 1.0546191822363251 5.429928094115831 0.8263479280515962 2.713473370856411 -1.3163793646570814
Ni 2.5018535622074274 4.819089737739163 0.5833309398555785 -0.26127910279429845 0.06247446438513757 0.461364921908728
Ni 5.672674308574348 0.20097997991446212 4.614254071205594 0.19309396117762873 2.0441560826009826 1.2694780721198526
Ni 5.3949426456216605 4.271422973152924 8.246588653624901 0.31734534966024697 1.3220604742022586 0.24701128002137457
Ni 1.5374781883039983 5.983990446473005 10.573847392068553 0.49636509213299684 1.2467886009421365 -2.5165952600460013
Ni 5.108886625631084 4.622046002737723 11.900633233275617 -0.6401668919437168 -0.06347256663234875 -0.2898355742757524
Ni 8.78987286183068 5.0029756180678095 5.592284538906327 -0.5354476599567553 0.06830804034777913 -0.2580973626322071
Ni 2.299078150891801 7.269404510988977 8.009897274613632 0.12492141796644936 1.2779603985592505 1.467916585438846
Ni 3.02432502590368 7.620157174609962 2.7798657902527157 0.24643946667830463 -0.046868125306448315 0.9010693281248868
Ni 0.016525561741403655 7.708984268118834 9.242182681313919 1.6132247945917635 1.7520134574586086 -1.0392890058621391
Ni 5.905478518414865 1.0789811214651217 8.244406172029983 -0.3695749963889248 -1.8785351300326423 1.340260285039737
Ni 3.9969599398269056 0.07430067379692454 7.0641206810731685 1.382544647630245 -2.5999190570763226 0.9528647155296236
Ni 4.045406031064102 0.6472951511815394 3.1148114350757226 -0.7087886068771728 0.7507960616572101 0.472991707514379
Ni 6.774146935317595 3.961745779854609 4.346216256287352 -1.2324598430242903 0.870863751075784 0.9932315493824443
Ni 6.903577260874462 3.91754057351547 9.992479481903779 -1.866748164700043 0.9149288597157985 2.0231136601083866
Ni 1.6877240362425965 8.694749257992815 11.090204759043871 1.252121840229592 -1.2298460595505272 -2.66392435628369
Ni 6.551731967519918 1.6600656886650915 10.625969534188998 -1.3089175090623975 -0.7193416998026708 -0.5189584040524804
Ni 8.180250287521948 2.048643712130102 12.162897703796611 2.487840556510812 0.6733850305668984 0.6100875560598331
Ni 0.2516965186997011 2.6519049590917474 5.496225718093124 -1.7890316865541707 0.09434611628275365 0.6358533521700275
Ni 3.9132256120253066 5.498492461811563 9.559374944881368 -2.771404953065872 0.6535042324825713 0.13440313220463948
Ni 0.3158709223557622 0.8933609229237981 1.2455571541334443 -2.814052869643386 -1.20373907805083 0.6361446581582012
Ni 7.540524838096221 2.4137857537676393 1.0114649375476874 0.3945429791881721 0.6078594380602628 -0.4126510016427925
Ni 0.8997287319726933 2.8876537134684703 1.7568828685899769 1.0894039202406591 1.845773876441221 -0.4974886642144787
P 8.884135325285317 7.826414185754561 11.4773938464069 -0.3299550680044575 -0.9844193504074529 1.0871194950818568
Ni 6.5374074065214565 5.585254670315486 0.5029374663579516 -0.3276063652666229 -0.1411111403524344 0.8163018566695038
P 0.7341212507461542 5.612024098787721 8.55258609221036 0.9860905674622888 0.5895470129043202 0.06251483070476975
Ni 6.750368349251631 6.0703637528683725 6.2286746897724905 0.7284614027157519 -0.30990920509717595 1.09970247395319
P 5.774798150366213 5.777511205552088 10.125496040475966 2.26673468350129 1.584139190079717 0.49082359348947724
P 6.492905893813895 7.751504231987567 0.7392871670881327 0.4217208251545447 0.16173652991226983 0.17236264216754832
P 0.36865697593295715 3.705764856258988 13.045316588108982 0.7074560041086784 -0.2712452128680748 0.06455654372514688
Ni 4.801357653503836 5.500946248925067 2.6955842216269352 0.15272841287638858 -0.5808985932007028 -1.4529075136245235
Ni 3.3666514771726286 3.3349281766033174 2.6014902824193396 -0.6932416602815094 -0.25855913275997405 0.3237733646737778
Ni 0.5466130250635339 0.8245085824762554 6.782924085524731 -0.13459339383857466 -1.212670833322821 -0.6208777046968017
Ni 0.7054962036416685 0.3978329676912296 12.71659152510806 -1.3251337138109438 0.30178760443130603 0.6152505883180114
Ni 4.712382406810752 3.7332935698003076 0.6145245927913329 0.3511440433772469 0.9822043450340051 0.04713911957964785
Ni 3.071196989558627 0.14612996728971916 12.84177448406506 0.44225442633152223 0.419104213467304 -0.47332672225629446
Ni 4.548950925477321 2.505205528000215 9.249473669891934 -1.5876518312186656 -0.1946494785902067 1.0728920386285652
Ni 7.234412580792998 0.22509005873009882 12.940272276673344 0.20438238960725447 -1.3275893744402878 0.7509058477621972
Ni 2.2546136764802918 4.301998086544596 11.815551637455094 0.41573761098791623 -0.3536606391515135 0.4313935723576184
Ni 3.8112314042696274 5.719740723283574 6.968373907904211 1.0308028227679988 0.35641197664440555 0.15119937782637186
Ni 5.7209444679052925 7.765402852581418 3.093277369750565 1.0872969011999853 0.032763053363633894 -1.6093534845618154
Ni 0.663591075487415 1.956464652828442 8.792922965510636 -1.2135650630023163 -1.5937204060102486 2.0640366235749936
Ni 7.488161947051431 4.200985393634317 12.25546010946242 0.45250438619430455 2.0182807574961177 0.9941473763284944
Ni 8.764529407756482 5.139183951802358 0.9238980720620146 0.2907233761973445 -0.9942574195437972 0.583804196883272
Ni 7.862230218037717 0.2446638722366563 3.0257861866829665 -1.0058839480391322 0.6088896790969901 -0.7036170899785624
Ni 8.680656186344684 0.41684935484219093 10.464777943809366 0.1138607892769136 0.7412058468656139 0.9540847039796536
Ni 4.41526119587437 6.309992268756637 13.484859306942784 -0.057485495810978414 -0.46591680294546856 2.0383615874063925
Ni 1.5788592245691033 5.773927750408969 6.411116076555074 -0.28938254589873386 0.04771633223935653 -0.6389386759635706
Ni 8.013911299948365 4.902342567692075 8.120701041085495 0.6129221972951509 -0.3853042341987235 -1.3777377131599047
Ni 0.9075993698839351 3.673745249321254 7.548210284527198 -0.0769222643793514 1.7141912444045124 -0.8626061390526822
Ni 6.683254956803773 6.766776314403067 11.997600418299516 0.9410376409877084 -0.1969506159195576 -0.5913809807892654
Ni 3.23021165408775 5.593782737981666 4.504399411070088 -2.742912244942818 -0.9124536587024286 -0.7115386588184842
Ni 7.919065483330896 0.42413756554800075 8.278721227365596 3.288654601957362 -0.7913860672644307 0.007944194547741156
Ni 5.170685022595351 8.478269677137614 12.576880294524308 0.12925501234479675 0.6622076737938402 -1.0133697148932161
Ni 4.840108970749186 1.437539605979255 0.5024865251035076 0.17068422602386088 0.21764722503696063 -0.36732656667438024
P 1.6416206172307464 3.2712963839844313 4.174427083449584 1.8728815312912908 2.2449767229989077 -2.16909755517209
Ni 3.4842943650106593 7.1174826801539846 11.736216533267179 -0.9673888772877276 -0.22629255941678444 -2.017230976075364
P 3.8180094124473083 8.377747741650037 4.923599771754236 -0.12604036206224098 -0.905916114694227 -0.5874158254939302
Ni 8.001049751643995 5.939720423115774 3.24847801574364 -0.3304456344876309 1.742677010549031 0.1724235773124708
P 0.3385735459213886 6.903392069394197 4.7439223678146005 -0.3478954545329621 -0.41823312371626037 -0.8131671676952642
P 6.693977543511088 8.430925475207992 7.105929509657684 -1.6083651525066172 0.19647316206250678 -0.749692029959754
P 6.5851127318375955 4.196050040685268 2.2132159729819625 0.28133293612138 -0.0875010683364622 -0.3532094105467078
Ni 4.75839323008247 7.540932259352804 8.510438363216961 -0.6434057105959887 0.1217543330923774 -0.028511991396763803
Ni 2.408887439114643 2.401220511831692 13.174700615795782 -0.8207701768535026 0.061708275643074365 2.316179825506295
Ni 9.014510127391532 7.808543207909035 0.5184185481506633 -1.1502331357128899 -0.20026425367382283 0.06993940530361503
Ni 1.4025476757832755 1.28560851557025 3.750659900862112 -1.0915767595222619 -0.014532132177904005 -3.011869690217981
Ni 0.16818997641882774 7.7422816962703935 6.817766936579098 -0.9821372392414957 -0.3945164968256109 -0.29596148466783223
Ni 0.49836694062502346 8.281494469782558 2.8159827586913018 0.5884982599248316 -0.47309146631703686 0.24234189957016328
Ni 1.5522564684291065 8.73816740054083 4.9242636832109845 -0.47695686280971406 -3.1568765660803955 1.0185394320196135
Ni 0.5792632089915685 6.034742171639494 12.569305037024087 -0.6175141875412076 0.032968227395904506 0.4836000791578446
Ni 8.296680171164247 5.9783606254729635 10.082413094507231 -0.6558547349926189 -1.501931251821394 3.5152801192335335
Ni 4.881101104905735 2.2531877020822546 6.872666950903512 -1.4606146524607941 1.1938531863956858 -1.7718168653377808
Ni 2.761992034534986 3.7137466090583886 5.986128482112659 0.6081769693006817 -0.5562044328881325 -0.28804043004854263
Ni 2.182916794895886 7.40031636838796 0.334383588680404 0.26777293804875824 0.22164194801865053 0.48029004094800504
Ni 6.021417644634462 2.112053274972671 2.7535473030349245 -0.0480289783837689 -0.37572044716503034 -0.5297228416578361
Ni 2.4368606122085974 3.728163765796981 9.522594064986034 -0.6559622071047606 -0.5699593205803797 -0.46829584470060637
Ni 4.564525528967566 8.62233938920939 1.2599196793853584 -0.8246337735739669 -1.2905505765194354 -0.3291163741532461
Ni 1.2218285697671523 6.164755850359194 2.206399074593426 -0.07809160209710422 -0.7162242372196116 0.3745125428998582
Ni 3.909253254773633 2.33547753633779 11.482693100614668 1.2124355773835636 -0.24136899413393273 -0.09262784804006628
Ni 9.085373647314748 3.5966592956611514 10.545265864961928 0.9708241282215215 1.3400340279615437 -0.8682715648685755
Ni 7.440271430255028 8.226362966107812 5.136940357018953 1.6402375757351817 -1.7934861227810985 -0.4073712413010919
Ni 4.762661893702567 2.6347840067412935 4.502176187349512 -1.0814059896368473 0.5828091799598544 1.2224343404674882
Ni 2.4296474040522944 0.6011380266404126 1.4953360150550061 0.9780684684887608 -0.12228166635075716 0.018393929126155416
Ni 2.5740689799365737 1.7673378536083098 7.5210102858633485 -0.022826253865896172 1.546695443410962 1.583995722523317
Ni 1.3451753551973298 2.1159885939282916 11.058424049115677 1.3908899342711465 -1.883641340910956 0.6629602356891485
Ni 5.126563152422331 6.454524959529075 4.785704343634478 0.6420391692657652 1.0137314691080088 0.7997015291086614
Ni 6.3957822219891725 8.550633248050971 10.12144405088778 1.121836072627436 -0.2708703460271593 0.849145385562086
P 2.3412277318000037 0.26830171277761855 9.097823144575528 -0.0037774647645612363 -0.7288984902531704 -0.2766620130082719
Ni 8.798336112478768 3.843491760131705 3.384272446519797 1.2979898064063 -0.964902106310132 -0.460683065350355
P 7.68422416720747 2.6271911560504484 8.674150409642992 1.2350188620007183 -1.7469463273483463 -1.136500873728462
Ni 7.110936161326635 3.389791152631679 6.696121134895149 1.3459347097166947 -1.4790080673663173 -0.8392841764972899
P 5.27164215806155 4.286988317069156 6.181973102279385 -1.1411597126567121 0.5916108374118844 -2.819539089568938
P 6.05803925985677 2.5823470391043974 12.611587955798083 -0.7301573023609361 -0.2802330181889819 0.1840411069467411
P 8.1408693192437 1.0191920520617241 4.9562879199357255 0.36643387965678187 0.5251187672269215 0.14969373981512282
Ni 6.967468321565718 6.963894125996614 8.538627284385424 0.5233837868136857 -0.6285485909784982 -0.2605049436324352
