# total energy = -381167.5082821042 ev
CRYSTAL
PRIMVEC
9.21055233249976 0.00000000000000 0.00000000000000

0.00000000000000 9.21055233249976 0.00000000000000

0.00000000000000 0.00000000000000 13.48057435551014

PRIMCOORD
 96 1
Ni 1.9505554593661283 6.302025533335413 7.693377059137083 0.3358755472539506 -0.48965142755824703 2.124406125801986
Ni 4.934286178884479 3.295738171736411 0.8229351980317955 0.9172274259419881 -1.9573564112069195 -0.7851331443761833
Ni 1.6383085327935978 0.28919659889958843 2.0887478198338516 2.4365367640305133 2.00007091935631 -0.18323480899536185
Ni 4.0533245026541955 2.2861603460515743 7.594685993439178 -0.23114140286865353 -0.9904889536403005 -1.2757556775984482
Ni 5.628586806357531 0.9629263793236718 1.8501410993712495 1.4641607179408396 0.846232325680349 0.2916212054212655
Ni 3.5548125810645184 8.30430745326705 1.3983800981053636 -2.04784947229217 2.0385235669055537 -1.4784941038443764
Ni 1.0202712766671298 0.6310554504575381 4.792653677209274 1.1732915601942502 -0.18703438524711014 -1.9233222044403457
Ni 6.3092650272820805 1.6918034193613467 6.628330525570539 -1.251611990472709 -0.11019285350702314 -0.9295396676504377
Ni 8.857180053321406 3.2086892438865844 10.257113050509986 0.1344517260543878 0.8339969599564218 0.06950900263441577
Ni 3.107557381883505 9.151199297297936 7.494201633248378 -1.3724810927466558 1.6077987384801862 -0.35223239134541917
Ni 4.10439701402096 7.057207910156402 6.951729588619693 0.4430311565965467 0.528181208202329 -2.1450168600738024
Ni 4.744226436404194 6.009222082235422 11.304769140665964 1.773120928861185 -0.4671645593096406 -2.2622661062069747
Ni 5.422067807283484 8.88545644825305 10.572813934118141 0.07264729115308133 -0.5499378831531303 -0.9754760251712361
Ni 7.006632768602767 8.780870629214347 13.416622551485327 0.8960729033515599 2.3675787488035613 -0.10580937972734682
Ni 2.5968414787679555 5.881978305043024 5.353432615181976 0.24112011134792025 -0.4591596867272931 -1.9833456361818294
Ni 6.840603356538332 6.2270332181779375 2.1285152995592154 0.07525156154514782 -3.6629398593377624 0.07925116962284416
Ni 1.980987123488002 6.624800120952526 0.8554558153688149 -3.3793412671106573 1.042489772187624 1.1619154571468246
Ni 7.8375995680614015 8.011936898115525 2.825946593689357 0.8187258927299643 1.5100595373554833 0.12644942457520159
Ni 1.53023191451089 1.870405235035455 6.680042249252695 1.1130804379219927 -0.6387885235389514 1.0263874673091227
Ni 6.518814297995383 7.110269900775687 9.138710709712328 0.778316378564666 1.2137401551276001 1.0784232528594395
Ni 1.9359014709829865 8.197704523319542 9.249251150680447 -1.6147072926745611 0.5294636744591785 1.0426592078859527
Ni 8.564505549950747 5.237994923664946 11.598806805746683 0.5601801297064288 -1.800867502846834 -1.5804974795620716
Ni 7.1224830928536536 2.131773071835216 0.0829972059832374 -1.5109059445161785 -1.751336228885926 -0.703792439214162
Ni 0.04053840293571516 6.45917597318027 9.499167508060498 0.6368977342741418 0.7016679366719916 -0.2238160728518339
P 0.3358950190764383 0.41298641905636296 8.345122172765615 -0.07744496965204083 -0.15357970513309036 -0.4534762631892707
Ni 8.64360577134259 8.221145378401312 5.126203689722327 1.165029320185458 -0.22025792318693035 -1.2723535938954345
P 3.259798597461729 8.348665472156561 11.1833363007903 -0.7404268026077442 -0.16661725504333885 -0.09344443040409067
Ni 3.244407764910987 6.6561528402839 2.852597326176234 -0.49968901429990714 -3.098759607333005 0.2507740894979165
P 3.632687799027727 3.9024372382339365 4.404831407531655 -1.0712005098587551 -1.3773281364263117 -0.334694639571972
P 0.4592878644379184 2.0735992248032082 2.504515825622904 -1.2043219471374937 -0.8036911098840287 -0.13995234415764285
P 3.967951895285658 5.501554871863317 8.37190830036829 0.09756590877163197 -2.4793692858150074 -0.7773699554909966
Ni 0.20285227828502872 6.14630272906528 6.2127384413265005 -0.552496387908926 -0.9373565925916955 -0.4694749526103721
Ni 1.326208975054587 8.546019971896085 12.747675810764179 0.21254101415864685 1.0244833083078744 0.8688464635354393
Ni 4.453992729338708 4.652360389808682 6.136627044089484 1.1318312361669345 0.17718423192590776 0.5167948207422584
Ni 0.8451832866172634 3.9412505047622584 1.643780521793236 -1.348324035884478 1.6278736548531898 0.5568708628275377
Ni 8.830229977891442 8.331828582926905 11.002021977524214 -0.7699944889625319 0.8727059464908453 -0.3835155177294169
Ni 3.1283732296182007 4.690234180023315 1.1739944700774387 -1.4980362876423619 -0.5931175038643979 0.28900407951339263
Ni 8.423252523021855 6.959695795126657 12.886511988823342 2.539196542385285 1.388447386267925 1.9796072521853196
Ni 3.517915109371956 1.67502179344426 3.0948164251704946 1.132560143913159 0.2256194446091598 -2.6130016012918933
Ni 5.190440843198472 8.957832966615547 7.861398713619667 2.0096721898915 0.8649597268865232 1.5878953146880397
Ni 7.103536987194242 1.1624177271492357 11.041358403411532 1.5728631029452655 1.0376730675252712 2.1057126631575414
Ni 5.891621753086487 2.535075516418898 4.152097542265746 -0.8610570493980073 0.8942767306830857 -0.11570144203007815
Ni 5.162514449246437 6.958756318812966 4.024531395750022 0.11907601492926591 0.7925260944061447 0.4572362444523351
Ni 7.820495572820989 7.7836165222326175 7.067622281410216 -0.43163294206193403 -0.3690301796290483 2.06095464221556
Ni 6.231113492756021 6.761199186927353 13.019619203479415 -1.633328507320174 -1.4194289222511038 0.4960848418884166
Ni 7.76950595642308 4.90434267402364 8.87772603187972 -2.441588467521808 -0.3919605631729766 0.2857459775874111
Ni 5.638377623234514 1.724307457704595 9.345798920905846 -0.9563025375665787 -0.9752713653595978 -1.7132173105270172
Ni 2.354732906398835 2.843776380434855 8.88739158524821 -1.534716416672215 0.916461237199925 0.9120664505663388
Ni 3.476375519423514 1.0842477715189869 9.738555283340755 -0.3296048837538904 -1.5060535015198837 0.6272998061730616
Ni 0.7908861609620401 1.3020220652531218 10.307409112335142 0.6178926539265487 -1.3992958989466546 -0.029207217691575502
Ni 4.73364351204704 8.990346215510888 12.696246851031336 -0.9508826521025882 0.2439557810245024 1.9074916651659923
Ni 6.110510523624117 5.915292871970632 7.432001853895645 0.11364173128757202 0.39063490238301757 -2.000242669047484
Ni 8.010647420822226 4.863079400638048 0.5204772462258288 1.0172651932928802 1.1823876089582475 -0.9174210300100328
Ni 4.817312167278002 4.740044845753064 2.9205665953612727 1.6542945680488796 0.2628593027972247 -0.18200505035331882
Ni 2.54757423561181 1.3948460092665127 12.027651032345004 -0.17765628646631984 -1.052047591079388 -0.7736074031247709
Ni 7.928489296134843 2.3423907665915378 8.056665181199255 0.2890290192140571 1.7776697245741322 2.2016960579334017
P 0.005383567699526391 6.304438697984302 1.850033335911738 -0.40958470401264296 -0.06814786062083102 0.11445394277622224
Ni 5.797609647852841 3.682636623038902 7.779881643358095 0.6756468300178816 -0.08513899586218886 1.4504204855366116
P 3.845018656473718 1.291770720771389 0.8064952835974335 -1.4562070103114015 0.07357623072525392 -1.2796879227733189
Ni 6.973253727810494 4.327706849564189 5.915262477148719 1.0992695001808293 -1.056737797466206 -0.5702639963049921
P 8.938896071508228 0.9908896154840859 12.484817706635447 -0.22716313494719587 -1.7690449590195985 -0.17179442836890413
P 1.8587078338748073 3.307592152282674 11.047694342197683 -0.8231736440886727 -0.14960092299100042 -0.06542223415955184
P 6.695749003740296 3.2461577698090367 10.076162544051654 1.3930074948347815 1.498662608372451 0.18879250558879743
Ni 3.1962918407667167 8.601034599559508 3.8122115909665446 0.9225645218841853 1.5369337360385078 1.9381898655807976
Ni 8.923072343009023 3.072907284902122 12.744170274636822 1.5253203201692958 0.8014637632154068 -0.8286202690255406
Ni 3.632614114610967 6.715588532952922 12.969862880007026 -0.08326389032666305 0.7752583084646325 0.2195920074681573
Ni 3.534162523267532 4.0096204329634295 12.172122226175889 0.20842210689426688 0.9757151377652357 0.7630196003065957
Ni 5.971375923677075 8.725183631247988 5.836266334995549 0.4143728694299057 -0.9455049327304426 -1.4970111888119573
Ni 0.5968787758538381 4.359280622145842 8.28880056775991 -0.06775088229272848 -0.18369246535807074 -0.48735928908996073
Ni 7.635796371659993 0.9261118025999643 4.130825772202347 -0.14218200481910998 -0.5348971867699239 -0.16361497788190532
Ni 8.908630197324065 0.47661936031507635 1.2003348069587145 -2.100677414726479 0.22012653981538863 -1.0103029030424344
Ni 2.239720742388594 4.109923345277958 6.793157960586577 0.41861544675634355 -0.6176021192693235 -0.7144090383877438
Ni 1.141924248737865 7.760838826901687 3.1847454926604275 -1.7074071316031434 -2.1876400940609675 1.141497555612105
Ni 1.7641338849633668 2.864361964367175 3.945911965177537 0.024180196790629323 0.8075963584757059 1.5678414813609578
Ni 4.676252561943107 4.070456129550892 9.87604395762842 0.10013624060196948 -0.9757264506191453 0.4194477128496518
Ni 1.889535551736766 2.4759621930732 0.35794968606791133 0.7341283711935421 -0.483085087194639 0.883838051848265
Ni 6.493080015441958 4.007980954690519 12.078014331200455 -0.763604526275788 0.22227623916853978 0.34497082468699947
Ni 7.409336527300275 0.11223610360880888 9.00754415838267 0.9925638338914584 -0.40833257677309676 -0.8151420320334477
Ni 4.170151145427151 7.3195889076866125 9.288021127613924 -0.7655104850492493 0.9631519563882444 1.2651676176699567
Ni 1.3786078059230311 4.8857649904480285 12.87277537142886 -0.3422565110796299 -1.5412431620471392 0.40858531621385114
Ni 4.658209090389005 2.0756071251599177 11.818850579517028 2.489411757652674 -0.522462560550997 -0.2780974599032178
Ni 5.58612616119959 7.852345661965494 1.5648516166703594 0.8147193426737324 0.4710947476019822 0.4223492027671629
Ni 7.236703149383724 6.43930881231136 4.902831222424851 0.03216758587148009 0.13598204665598518 0.11658281619376697
Ni 7.144791050027739 3.378817351633294 1.8799068405766548 -0.14642381081459943 -0.7959968265635646 2.601045457371282
Ni 1.9714173598612992 7.850521972650683 6.088380330105465 -1.5856139748530305 2.1631917312106164 -1.632988350371936
Ni 3.6604852452504315 1.4743514949505363 5.246666658462387 0.15663237591648507 0.026431197608335125 2.261067457913183
Ni 2.6542140077676986 5.203105352329094 10.154309473301664 -0.9492962814520749 0.17157331349703353 -0.7798371860845666
Ni 1.417900021160293 6.611951400780004 11.51511972941153 0.4405161034841768 1.5740095578448827 -0.8693992507151156
P 4.999460045508686 5.39224403959988 0.6602823743653861 1.195051063358529 0.9886894385377165 0.023891461905616918
Ni 8.580393752314619 1.1132518000661358 6.363113599050277 -0.22992989905905561 -1.72483998236761 -0.5607434584090666
P 7.1032146178709175 4.6380103496446745 3.6736452820837644 -1.10962384683196 0.07875160427860631 0.45345235192987066
Ni 8.563427915355632 3.161853586483519 4.243401745183461 0.059066981365485376 -0.1978705566306657 -1.07539346489418
P 9.052047703995282 3.310806634963828 6.281206001379879 0.7357689921207586 0.7494570311308125 1.679505777207185
P 5.63523682497012 0.0054277783495823816 3.7900906079999874 -0.49654892600902867 -0.07578892210585657 -0.38817024289260893
P 7.0876948375908455 6.625435649047081 11.059746349613988 0.07069325275050406 0.3604696916535469 -0.09394142464516725
Ni 0.9558803069709981 5.214636963552031 3.6646539411286274 -0.15174213770371933 0.8375036875580995 0.0902007266558124
