# total energy = -340871.15793331806 ev
CRYSTAL
PRIMVEC
9.23198580013853 0.00000000000000 0.00000000000000

0.00000000000000 9.23198580013853 0.00000000000000

0.00000000000000 0.00000000000000 13.51194440192797

PRIMCOORD
 96 1
Ni 4.901427484027762 5.676461931365419 11.264840562168684 1.5110072459807333 1.689595557343019 -1.4876999387133605
Ni 7.064343297949015 6.957030693979402 7.406477925386442 0.2339739872214422 1.4353419939369345 -0.15379207825421257
Ni 5.796366964087144 1.4911595927198702 3.4305884154473882 -0.3245310687754088 -0.2823019849028686 0.8463552244114585
Ni 0.9357633216589718 8.470522460563906 9.920159350352417 -0.6532082985087073 -0.5595751491325782 0.503581407375778
Ni 6.998565398492418 5.168351892026162 5.937648660134027 0.26414434015723537 -1.0583102841596483 -1.668070795897366
Ni 7.51394101072604 3.219341191144819 4.160057473233048 0.25548486471002446 -0.8723963856702266 0.5827037647302417
Ni 0.397650251380206 8.630143496578583 5.11204139409837 1.2029150394876378 -0.8384768501046462 -0.6521505466681543
Ni 1.1109402538960154 3.4974363020684796 9.10818588107711 2.5118891128195835 -1.669978811553356 0.25890186081137345
Ni 3.836480983828977 1.1307613275989368 5.347797694538115 0.00827920928965671 0.5181371937027657 -1.2464605281787566
Ni 9.595818452516765 2.4547019599177755 0.16770640925595195 -0.7658570697553907 0.13817416921129752 0.45551823331996394
Ni 7.9246443669542 1.9472196956189458 8.895791120928584 0.7931575573425566 -0.6457531277822428 -1.4605197787541426
Ni 2.990378709120528 5.37504682408704 4.887959863013406 1.3974117945500641 1.779693696982696 -1.5904306795153835
Ni 4.178313725327845 4.4095380438948535 8.634659784075307 -0.8490111739770668 0.5309353739086985 0.17753338773521038
Ni 7.361733259379945 4.78211329840291 0.4418271502545512 0.6957430865471244 1.7862710930898977 1.104043524530705
Ni 8.277093892225011 0.6259267968529705 12.742682092045596 -0.3186499274042835 -0.6182793478420061 -0.9709503693867406
Ni 2.52083990682403 8.762576334151198 3.6318752501746987 -0.5807718378148514 0.17806380631738364 0.9127403367049121
Ni 2.813235363889203 2.509484564180996 7.372036155631673 -0.1803394897254378 -0.6548602322898336 0.3387590394493327
Ni 8.504708504309558 3.8643431172409084 10.334664438369522 0.11618275254187088 1.3196462083338112 0.9750582209075273
Ni 2.0226265563574004 0.21656854096878472 6.68411565033786 0.9474150052689618 -0.09704397482989094 0.31452099283757445
Ni 4.319784677085445 3.601139199555632 3.6998679030459822 -0.08356085274179158 -0.17797124660357738 -1.9097079560910206
Ni 3.4263130827823565 2.125517039086352 9.71308867646587 -0.22242176360746857 1.1323665398451142 0.46832001307032245
Ni 8.906115250747854 1.5064569933373553 6.447522008778015 0.15013005602159304 0.30300527888849105 1.393092084128788
Ni 7.627439045241044 0.5319959564289494 4.819575773940444 -0.3907901970139593 0.2510702805820966 -1.4522253999558343
Ni 0.9663673548798307 4.340722821080892 4.423662059105892 0.029418819481749337 -1.6986656379650875 -0.07397757992873066
P 3.2304472701688587 3.6016561907653957 0.4945990279912252 -0.5414599275891061 -2.377861361676492 0.9647681518354289
P 8.586439275381736 3.693385202554975 6.029880815154537 0.8775064532032822 -0.205145235915208 0.24515031555323585
P 4.711414750467665 8.688471183423044 3.68803157393815 -0.540733848056359 0.10550984620905701 -1.835274262461478
P 2.1025940181248455 7.232439297009468 5.870291167891882 -0.8262741373908672 0.11578551710345221 -0.8591572612721332
P 1.1131836264669563 1.1264592221748282 8.627863196064087 -0.05606907507942602 0.32125419779634995 -0.0445027103980653
P 9.140063005152014 4.365002943968029 12.531963860534445 0.7390178380753595 -1.39648362630884 0.12109355957992694
P 6.820628102474669 5.264281457395074 9.843411082064343 0.44654868283150195 0.6871409467004101 1.584581419823458
P 3.240814790321808 7.029963382499701 0.6564403566121209 -0.6186254183275153 -0.02213411289487801 0.4982206572844968
Ni 7.682849424544693 5.874441868747417 11.963084274083181 -0.23388451283142944 0.717552469112732 -2.4312526328134387
Ni 3.6220588795793023 1.2607753848687278 13.237084478737392 -1.271732672481984 0.639903353869685 0.26910554081725263
Ni 1.2961892827375712 6.680144973207154 3.220125909945354 0.6797937623067196 -0.40390719401189146 1.614455067454439
Ni 0.9387175571433382 5.588545729747851 10.724078835138467 0.9377931659084818 0.05620225822318063 -0.2919469641918004
Ni 6.381730261342584 3.168436020954829 10.26128122893786 -3.4059668401179857 -0.6025495958115752 -0.30662590636021386
Ni 5.829408241582605 6.810352902180607 2.3487676914413376 3.174068247368334 -0.2776405748714574 -1.5117060718199709
Ni 4.774099934651566 3.830683296690908 5.863156689197137 0.40750031067978854 0.7368624822952535 2.2778619037627026
Ni 8.274056568867646 7.763777012844557 3.3812286796951576 -0.6950116076977385 1.3381175276651212 -1.092004333977984
Ni 8.337064872557649 5.481445461453677 3.658143019623661 -0.9621875355924462 0.05096543530427352 -0.6121035580485974
Ni 3.708931866791454 -0.21583552128922628 1.65655061991495 0.890160394521867 -0.10354680894541522 0.20461713132587986
Ni 2.293862301765798 5.1306761576146 1.6351887277672137 -0.0328548417464918 0.1332019128076867 0.22392714450840143
Ni -0.287560666055289 4.779149830932655 7.931160302594406 0.03031639159535424 0.39723569552898685 -0.5279575222272972
Ni 9.377666625968077 8.303146556402767 7.41926053304786 -0.7659624849850034 -0.5955973328634581 1.480219056955283
Ni 6.377289676130147 -0.5028856585248732 9.225442257047384 0.6319478464680343 0.7832279569336704 -0.4795050831528646
Ni 1.0645587567914616 6.103829022122586 13.075454562593348 -2.219961431901493 1.3863375390137738 1.3890559663862012
Ni 1.4592907774322668 1.6054885059648532 4.759784817332633 0.1963806023487005 0.4137766306068035 -0.09514495803496517
Ni 5.54786959992248 8.644046867326882 5.534911584529177 1.5642177685654415 0.31663623940836433 1.618018359325665
Ni 8.41311797230831 0.18653689087302172 1.592936697950651 1.3920541297825768 0.8089554436067617 -0.08591495479626494
Ni 6.762051152011215 4.153756642864049 8.104464064894644 -1.594826494590234 -1.1655556250025734 -1.306705331902427
Ni 3.0266696456487927 5.172377037873611 12.648747558827221 -0.8487530352196737 2.216364201468538 0.36673187051317485
Ni 4.6874208191430755 2.360775735486699 1.5199855454585762 0.30845576048010104 -1.3318900586981706 0.10211419026394672
Ni 2.510038483334315 8.028218016638911 12.33816231996565 -0.24044776787124394 -3.6121034934121856 1.724965709312197
Ni 2.068075622887201 2.6686993928165728 2.469226643316381 0.23235187823698691 -0.301539492976242 -0.20223474713663234
Ni -0.01949795419681878 3.7551656521217893 2.1229025406826874 0.8488401956168414 0.9115519728237657 0.38738785620062965
P 3.059646299243033 4.279274723006069 10.719647481911917 -0.13680531388822892 0.06941387181744821 -1.713055331027856
P 2.7653490530847993 3.236346509151703 5.3620121832108625 -0.5395372566450966 -0.09098799844379814 -1.002334540124977
P 4.567340378689467 8.182890708217274 10.505888234249047 -0.951034090078788 0.3245207843627637 0.07904471003899291
P 1.2176620107687546 6.336355050699893 8.543534544162846 0.08199479380625233 0.2764900062067819 0.2716301070113193
P 1.312696073506469 0.6349639878393654 12.920837262930316 -0.3159312429215398 -0.1300296857272922 0.9395186332400206
P 5.166680902580317 5.719889192985607 6.919845178018528 -1.075259253309161 0.5266645144474865 0.3732020516185508
P 8.513469658917883 7.858774147638717 11.416741811583277 2.463264152723029 -0.26180103673603944 -0.1526690203933629
P 9.132898984102425 6.705976069723583 1.652740579338706 -0.8897500464573257 -0.5202706951060007 -1.1102995327427458
Ni 4.84930369170047 8.428129181363246 13.11011236081791 -0.34301575784315763 -0.618966860827334 0.697347969140399
Ni 5.357792242461162 6.541637488919809 9.016115285809652 -0.021055535118718577 0.5828176646002866 -0.750567747696488
Ni 3.8239254830204192 7.5600178522962675 7.155858127665978 0.12253877666688573 -1.1842308328145734 -0.5185208022944295
Ni 3.191045154396121 6.553934494123485 9.782715390839442 -2.112933863496329 -0.01614601363224316 0.22883203800918658
Ni 7.1206584118697505 3.0213243258192666 1.783090680894844 -1.1028006532625394 -2.0800499682841145 0.3138314229697176
Ni 7.257947274019795 3.095392548603867 12.406667348053752 0.024954098842176378 -1.5951882488050269 0.4287013702374359
Ni 3.847688614697792 6.565982235708167 2.969776609411427 -3.762854470847229 0.5402126854455663 -1.1570977240432072
Ni 6.524198267576158 8.341320818052315 11.619272194809787 -0.6171097530139371 0.34478776214191587 -1.1254682700633842
Ni 5.12065945292542 1.215464798127257 11.4179170433869 0.02110052942404108 -0.05523089544884682 0.0891745993841432
Ni 0.20700881958109255 1.740561691501622 10.893315907654756 0.33051454005235337 -0.8479670489832686 -0.711711951171555
Ni 4.75621757798526 0.4457479746614588 7.471496955602992 -0.14298855988080536 0.7587939922610222 1.2628011743203091
Ni 2.07203614483343 4.866853696874785 6.819397478755713 -1.044287230407679 0.31423122951129756 2.3109077784740784
Ni 2.022580396427957 2.780018678661857 12.027981442086 0.9843599579244274 1.3169015557091384 -0.021723250609704526
Ni 2.5263698663713288 0.5089649212325461 11.241357159663739 0.9111102573006565 2.578116102268618 -3.2323423005188783
Ni 8.399057657799903 6.81046368601127 9.364993878938733 -0.4233336781676193 -0.04585973864659199 0.9723091974074802
Ni 5.310829130245624 6.539671075925527 4.643933549614613 0.9964783384545162 -1.3824106931555415 1.3722784898175464
Ni 1.4261202521343643 8.327020471910803 1.3286027851926048 -0.12062613302520515 0.46986781717341664 -0.5789818357939641
Ni 6.286843910379089 8.986239656275407 1.757187574888483 -2.0685913328252115 1.1596292322158093 0.13786666527320773
Ni 5.149463248897994 4.597750540206665 1.3827446896351536 -0.3625057482469693 1.359155322172027 -0.2452032802783583
Ni 2.9943115351090905 8.942027675854685 8.94370512769065 0.6722354903434874 0.741656047029155 0.31369592583311784
Ni 6.095326363119144 1.95720870435046 6.124315722008078 1.0339912477983095 0.11437063903379657 0.05022675736603608
Ni 4.74763183110882 3.829501602497161 12.40889687264586 1.79577723280812 -3.6124647334063464 0.6032592202840901
Ni 7.50173632538125 7.654396444035888 0.14649222888243404 0.8565766450291507 -1.0368842530753883 0.934924329001119
Ni 0.1112177340005094 6.142169459518128 5.867129212725021 0.29014564931700354 0.5224651316541582 0.1885631631868107
P 7.148169729817915 1.1244189532934374 10.697339311210595 0.894631285809027 0.15059851101757935 0.2876563072362465
P 6.255178198781036 4.749930595595092 3.27474141526399 -0.6416239361052175 0.17214152729567772 -0.00446394930862457
P 0.15857043602054863 1.1681231744902842 3.176766041822153 -0.21579783053304769 0.11964474294854234 0.026669538871386327
P 4.931099086673868 2.5083859578602477 8.156241657751112 1.2905446629821646 -0.46819197213289043 -0.41917903256929745
P 5.787504257634045 6.314438316200249 -0.34668968927488414 0.09044600989739907 -0.723908750348063 1.2134390789474134
P 7.529266107301191 7.254826862789432 5.309032585791694 0.05397593999582317 0.8141968945113591 -0.6596167731382123
P 7.043349762038235 0.26764542609630343 7.2001642743427645 0.7634245490544981 -0.1747537681075442 0.4566335778713297
P 6.483106698385798 1.4683011956595846 0.2262759741306952 -1.0404364892030211 -0.04064734120771709 0.7953417094780689
