# total energy = -381162.90174026426 ev
CRYSTAL
PRIMVEC
9.38879389809330 0.00000000000000 0.00000000000000
0.00000000000000 9.38879389809330 0.00000000000000
0.00000000000000 0.00000000000000 13.74144890369493
PRIMCOORD
 96 1
Ni 5.657809195628298 1.6729516112865537 10.427107073759226 0.4076905723137237 1.1973874248011895 0.5248135772816769
Ni 2.876228812941543 3.07448258273225 5.893199400398649 0.3335867512197739 0.7070078608276662 0.7497912745417796
Ni 6.427051848900327 6.58799455214679 9.681675340432555 0.2669470997133532 1.8311376145852853 -0.6315210433432608
Ni 9.180766291601346 5.830131116955189 8.477360677063137 0.1328131620097003 -0.4170452740557462 -0.9386223466779964
Ni 3.5699949528896724 8.767753252527033 4.676489651460104 -0.5655761039110195 -2.862562130097683 -1.3510082675848605
Ni 5.699457884906171 7.51283768499551 7.483647925084575 -1.3035786133479872 -0.6447727661468444 0.06661856846049817
Ni 8.373480245869004 3.527351051469451 11.915595175582247 -2.339242363752713 0.3773299577439953 -1.747625612803558
Ni 5.750476590392187 3.0535080173925815 12.285665749593633 -0.042305959857062626 0.6632296873004514 0.994512730087713
Ni 9.478456776482664 3.289795790849804 2.960512953725222 -1.1027446032136234 0.41746204987819074 -1.6755514205451274
Ni 1.2047230758995329 8.506763562593237 13.053537638971486 -0.3617531863516608 0.17154991645826587 1.2755209358798227
Ni 3.5963586858680916 9.056026777231232 6.995042890522674 0.5189087817614676 -0.5034158283321911 0.858498801752528
Ni 8.299149165388183 3.7402701171690937 9.281853556641249 0.476080887962664 1.0688124692425527 -1.3287641114746795
Ni 5.533492176978992 3.6404015175638773 6.053808801465362 0.234825279478144 -0.5447961910511908 0.2491591796023128
Ni 0.4191936820300441 2.6369554030572773 5.133846902511045 0.9443065415469672 -0.011638098459560603 0.7004137525499163
Ni 4.869976730640716 0.6756654843893346 2.784264638832955 0.8854035965631719 -2.159484200452042 -0.8613537547028199
Ni 4.643462691524852 5.747068458244335 5.575221609883509 -0.5359078874226254 0.8460412927154655 0.4377120583764785
Ni 6.740130566812854 5.951847439723077 12.618332308002199 -0.10998048038590091 -0.1759884118455937 -0.1328563565428099
Ni 8.603937578379076 6.029530319588976 3.3645934943822735 0.42395717068423117 0.04836219335347155 -1.9533187508024359
Ni 1.8841713053091682 5.1047622970906215 9.700995600305415 -0.04786417067113047 1.563986883501558 1.3127204277482554
Ni 7.798041074128504 2.582143624877786 0.3316553853167644 0.10521674044867041 -1.0452151415385869 -1.0232640911887927
Ni 8.449510698026854 7.911467091974759 4.964112532754258 0.4927236387256676 -0.06995560325353113 -0.20457470812371867
Ni 3.480698135098452 2.474397827277949 1.4258676638436172 0.0006867416543794624 -0.045868737507656486 1.0429831668842748
Ni 8.73941787285151 0.6800209458311752 6.505256745701269 -0.324279357775919 0.6454044861935724 -1.8081190422029247
Ni 2.8935886926698546 1.045038471021699 13.437982456284141 0.08512716878764695 0.4651344162534892 -2.162722247773366
P 5.276858887366416 7.367123605285728 11.39370874477323 0.17772184959693263 0.41749495999865516 0.1520480989799123
Ni 8.325700674242517 5.779553684777573 10.799995224788713 0.18614529777393746 -0.1097573086315013 -1.578501017957333
P 8.437192600566851 2.049348354557506 10.371977015470058 0.8157513834826726 -2.3247326001723123 0.2555074904178438
Ni 0.3369074765660977 9.348497092762123 8.564866112998132 -2.018945644773626 -1.1903202335417629 -0.09166882656090665
P 5.572934499714869 1.23298334522469 0.7271630183589323 -0.2294917830803725 1.0325498873660928 -0.37829000766441945
P 2.821144759741976 3.2210134875022614 3.827020694082911 -0.45641400566135587 2.5542413525335497 -1.3020315805758416
P 9.261181310461803 6.032515956016018 6.17799062148401 -1.6566679533770632 -0.7089256466756694 -0.7288601808160673
Ni 4.597682932976856 1.183964452817166 5.214755771925157 -0.45170631577304143 1.571790952927009 2.6873134246315913
Ni 4.06243718747589 2.0215481361283394 7.7401873267591945 -0.26910734058946556 0.48663423799847805 -0.41987940107043165
Ni 5.962100002548018 8.511317127584167 0.7628113295219525 1.119619524592091 0.7253843064523249 -0.4243754891685723
Ni 0.9196342300508468 5.342505333586184 1.305282690728115 0.4499664502637993 1.669526811617602 -0.23523794153553038
Ni 7.791102755513457 1.119162998039014 12.184116555898981 0.8529297923051826 0.6125612144113063 -0.46471018423187704
Ni 2.041048660842078 6.959180514861111 5.044733166198841 -0.1872644989800452 0.6396426440091306 -1.9326805057267942
Ni 7.88446492101823 8.172851111247978 12.528958502101853 0.17997567862811584 -0.01842143992998118 0.813315006127038
Ni 3.4500437233553822 5.1636112566022785 1.8953721363074783 -1.4577399020161603 -1.166267049247301 1.6208841109092345
Ni 6.959096015716949 2.2155018383606 2.276587208554401 -0.9244511973839368 0.07337131380329943 1.2661708621234904
Ni 7.385619529063321 1.1775800730360675 8.690394286047088 2.625928079545574 -0.21700856301169721 -0.850432994025258
Ni 4.475234284292901 5.469272827416176 12.240237131933599 -0.49700503970984083 0.10866716089111608 -0.6464920628307963
Ni 7.2428535306054 5.530243654325669 5.012880744367436 -0.4397576280515975 0.15496013042038473 2.3686483277186565
Ni 7.210311971309388 3.2722856904207616 4.440741733646135 0.3254049867399299 -0.2462324928738211 -1.1653764191122316
Ni 3.1016255855957153 9.074250425988751 1.5600532436516186 2.4126581576407027 -1.6788056658163668 0.4115590541301944
Ni 6.367911836781003 4.506865130590727 10.163244412923934 -1.529139951025702 -1.242329022508886 1.619451749338082
Ni 1.0883114216262342 4.360071339594435 11.950745880674091 1.5680245439060414 0.9177239059624324 0.07739483314039573
Ni 2.051920884057537 3.440758206291402 8.390748115418118 1.6034108938251355 -0.5286126393127929 -2.0676127709620262
Ni 7.84144546784618 8.11879982536594 7.290292289017103 1.1428975212834251 -0.7187917408364718 0.9705402784325156
Ni 1.8618823088380971 5.239097158719975 6.58082057480747 0.6021837278317241 -1.4513124012232619 0.6276489619823642
Ni 6.8976557491176695 5.386341611818462 7.6135324984547506 -0.23379529555173284 -0.5630744205350883 -0.26088006758366683
Ni 2.2193887989920342 7.901881133509315 9.132277866043282 -0.2703029035594635 -0.21539442444704193 0.8397523743829602
Ni 6.107767138288821 2.9932601276053603 8.463289691801473 -0.8035970075083256 1.2764529607757888 -1.07601310075605
Ni 5.674596358935069 0.37391340731198097 12.300864328990167 -1.4210381757197528 -1.0736145186168864 1.1070478585746677
Ni 2.6223088847359333 1.2097648581678415 3.7624633479434477 -1.7791000292627555 -1.0098041090291447 -0.506194933739225
Ni 2.1734024869805317 6.822526621164211 11.635310575518838 0.3858706482251548 -0.5833167157238922 -1.1065866026675328
P 1.024326791908311 3.280050222889833 1.0233653794236277 0.4536467273288639 -1.9162673544760935 -1.616592682622732
Ni 2.2050990548349274 0.9635437408747327 8.945889653851623 2.5598422436600945 1.079731944368534 0.19964358937068843
P 6.055199281826511 0.1765665950019421 6.845976072548435 0.7286532070115838 0.36155006920191923 -1.9584753553027106
Ni 4.1866790957748306 4.585796720031458 7.850585458606326 -0.2113904454939714 0.38348697848432667 -0.2846350039114195
P 9.14612164249509 8.800398088554799 0.9669321565556129 -1.413299155204282 -0.8848585226929793 -0.4764369857505021
P 2.3439029823110507 6.552007305527744 13.82156162680883 0.3072049187921354 -0.29293992423268905 -0.41016423066519686
P 0.8806388138996476 -0.24586622088763 4.804711469449055 0.286591613417158 0.5975297739994806 -0.04194831940732776
Ni 0.26500339928147343 2.2666895421349387 7.9613966973804695 -0.5558300802678493 -0.10290120494161632 -0.16722609227193136
Ni 1.2651211863874858 0.774671253844723 1.6367578112040015 -1.9942255163191267 2.423475559971181 -0.2159317850077507
Ni 7.280051931624096 8.741051522971967 10.25968140839681 0.27149281010250664 0.14022642375463593 0.21192677761341566
Ni 5.346702124412876 9.746694615226769 8.784962911554613 -1.9666905441236517 -2.3278947999503776 -0.544918575561668
Ni 1.228974330273912 7.76303965085801 2.258586074209841 -0.38354971340146204 -1.1163827628223484 0.6900686618701664
Ni 5.293204777364787 4.474736678221727 0.6607419966510162 1.0666388586300017 -0.30708587671576787 -0.20154569148940774
Ni 1.8149946726222044 0.9892127031122679 6.38992480271448 -0.34722645349039555 -0.18113113238879772 0.028221456739538492
Ni 2.947865309602989 4.122619355706541 13.509135430065108 -0.925737006074896 -0.03871592851295913 -0.08789444712013894
Ni 1.1298098902033757 0.15429168172156457 10.919395332127193 -0.3162500597135392 -0.38185329953564556 0.29573059960394876
Ni 6.716048310726799 0.9789695290811228 4.704715182248217 0.705277765510437 -0.8135147808426698 0.3264051458696701
Ni 0.5968146385752471 2.108723086521724 12.675469690404894 1.4249801910866362 -0.900977539742029 1.760746466456232
Ni 6.959002127778991 8.625616303253425 3.0060514202726676 0.7605528839336579 -0.11631670701657387 -0.7119978578430899
Ni 4.908160955007964 2.6720694918533203 3.5245991960079217 0.20127366877494368 2.9742233406201164 0.7379708848680838
Ni 3.844391840363777 8.925372322769805 10.595687560758517 -0.12916450951351946 -0.374835987677548 -0.02212665669571028
Ni 8.712134038081109 1.304244290134307 3.5791940930507318 0.775827036483909 -2.385635606305272 0.3351870058273582
Ni 8.480587605490731 4.660493963470312 0.06282135816663183 -0.8071381878923647 0.011196125826135557 1.8824120964895452
Ni 1.4189002399678035 4.950579525377088 3.546338009162563 1.6410078782423025 0.8988149848730714 1.5252007638722958
Ni 7.8742405245746765 6.798078202120121 0.8555960842082879 0.22127505159753502 0.7933516756312337 1.270288740946606
Ni 4.498556048081502 6.944487052570788 1.0898737169138442 -0.035539330557190406 -0.6273661406346228 0.1429844461157473
Ni 5.920704810702629 6.256241523374551 3.184058256242875 -0.7576591073256307 0.2704522846531342 -0.5483934214841458
Ni 5.864212438433701 7.901815411952745 4.934059942693494 0.19325311246331234 0.3610078235452041 0.8940563871421635
Ni 3.7552452432732886 8.139117175139907 13.017603908477076 0.23343508399883667 0.1697753410563463 -0.8502121362637034
Ni 8.23536170033997 3.611465255085427 6.477568253918271 -0.19068612306708452 0.8871609455739108 1.2949067966056023
Ni 1.2161774043303275 2.684922750559679 10.411071013956114 0.0263131839732321 -0.8158220888196078 -0.2912381110502339
Ni 3.9869418965643972 3.516337996347056 10.147743514367178 -0.3256207022951618 0.006541657773259701 0.12917633658806138
P 3.534242426115519 1.5863587661085043 11.16124408814963 -0.5414190470488417 0.4998178265682876 0.5297758063829586
Ni 1.1613844037384273 7.394538883169268 7.180346697030925 -0.06626838420993103 1.6877644176715514 -0.16483290944940646
P -0.09867246727563986 7.513307124685297 9.7564833716382 0.12351888119196794 1.0425311669485207 0.5392765467845422
Ni 0.029950252208389583 6.242317942175478 12.55475139641749 0.8653515630083031 2.226887726707681 1.9355033198875702
P 3.663967389991168 6.929136374714763 7.433010404626666 -1.5550191327853091 -1.3789448460941285 -0.29704700442252713
P 6.984849477098646 4.742082581555235 2.0561467801449966 1.0532475249247601 -0.42255926189543996 -0.07656590948119717
P 3.438824114769481 7.152270448064164 2.9987413054233096 -0.005286959430552185 0.17888013157109195 1.1682871650011235
Ni 4.024562793303901 6.410443072675676 9.523057302529917 0.23061047006584798 -0.3247866364296406 1.0955126042415584
