# total energy = -340861.174423659 ev
CRYSTAL
PRIMVEC
9.35100478430672 0.00000000000000 0.00000000000000
0.00000000000000 9.35100478430672 0.00000000000000
0.00000000000000 0.00000000000000 13.68614071588325
PRIMCOORD
 96 1
Ni 4.712457531715606 2.318665779889097 0.6663909356167536 -1.1586532414557853 -0.059982294090903145 0.3073429870318965
Ni 1.6087655544008486 9.015284950574564 7.858568471751263 -0.21403893886041203 1.2607502053285513 1.582031913928727
Ni 2.04294205465303 6.680385826487889 7.890511503881982 -1.007443322106452 -1.5344323097728927 0.7015532654709983
Ni 4.55394865067116 0.04610980428471294 11.02636252153654 1.5705557949683273 0.09799348322735381 -0.40343951034685355
Ni 0.9241018204566245 4.500713380788201 7.099206106785425 0.1535262261873356 -0.0947279251022046 0.10956421878408872
Ni 2.639807335060441 6.036662661417997 5.812490090114437 0.057005213740450214 -0.7971275977338981 -1.5249539379688124
Ni 3.5061498695495503 8.205964842880867 8.987360045172935 0.673526184130453 -1.3168390779023191 2.7477523466439386
Ni 7.765064970233491 7.7832620254227125 13.52240002919552 -2.1658417672389536 0.5001433282285065 2.2169550409750016
Ni 1.9158899534937532 2.40851958426383 5.836331411753923 -0.07266657442679099 0.46059050563654863 0.41864887109744037
Ni 1.7951217275077325 5.816998209490965 13.760456037209995 -0.4548975690168295 -0.7826255474629812 -0.821332991335508
Ni 7.136340816737859 3.3942557470448103 2.4335054688813016 1.2203841428066788 -1.2942231402750164 -0.14610010892659353
Ni 5.657993725196247 1.684359076574367 3.398488011782036 -0.6449216330198828 0.09858098029970763 -0.09537147222347446
Ni 2.3875920356957527 0.03423776868952504 10.732302411140893 0.032961285417369035 -2.262629145973348 -2.473064940863534
Ni 5.575835797707808 7.916728915821355 7.941629706295856 -0.2820582443231787 3.7141729464811255 -2.281551693909464
Ni 3.915761280396755 4.818825210429582 0.5128483731802178 -0.039412954579983735 -0.06860783097638508 -0.7166669811839851
Ni 3.8199882900329283 4.088221860486587 7.650894813179389 0.4931491562988604 1.164855513611755 -0.7974536136147492
Ni 7.522677576831738 6.643505463863896 10.88239819323686 -0.6189918005279985 -0.5337098513300421 -0.04059874735796879
Ni 2.415046585559861 5.751896514615652 2.4228715063113206 0.4358698629614171 0.7714191372242005 0.467241178183847
Ni 9.536061105558185 2.4466997365441956 3.4449381926386335 -0.213637075436303 0.20555661242101372 -0.41881624991323996
Ni 5.23878818350416 6.0861762314215575 8.689509037462944 -0.4929972041020284 -3.5245173215610848 1.6172611694446664
Ni 8.19820350896152 5.388666087190101 13.014315057820745 -0.09794926025297969 -0.3361030898837244 -1.202295146515452
Ni 6.782470745039138 3.0773782500267473 13.5747899682516 1.4729986279474439 0.5589454859683792 -0.32227466864106435
Ni 9.400752067229288 9.242224484175397 1.3890608931535122 -0.08813690214824821 -1.265856416206865 -0.5403821211438952
Ni 4.269977339270194 0.4643690242989227 2.0240436741096506 -0.7553898516754798 -2.0260069224957817 -0.4231380172170454
P 2.930240190724383 2.3698718817473585 8.323910935641756 -0.08144020685436297 -1.3767300978309966 0.4305782755451746
P 2.5341690347147905 1.6628985207371298 3.730349558766804 -1.3587570582923438 -3.5449221104696815 0.5034903903238683
P 5.773787216670105 0.6126525816797451 8.599056768785998 0.1557761985637769 0.6564748850751211 0.6011002649595584
P 7.078542256550512 5.564016127739065 5.2397934165117865 1.1806006922611538 -0.3897208752091804 1.1674297020968347
P 3.687503255130107 4.047442128893476 5.277950191280346 -1.604763808308604 1.170869581016319 0.7835133493845732
P 3.1438171385773224 3.5054204911812263 12.400806859208926 -2.7860234743099954 1.1955578277916183 2.2176397257468516
P 5.262305960380259 4.040372769323562 1.939408665470326 -0.1759220773840325 -0.4579304423058823 0.42204247016002155
P 5.759994484704997 5.188189896952834 12.735871125311016 0.5735354679674123 0.21865869702061053 -0.7479735046067505
Ni 5.58658010213351 5.831342650734679 3.28615158675394 -0.3711053169905222 -1.8464459628075813 0.5144682294916108
Ni 9.106401140586781 7.977416936467834 11.829574552945758 0.17845949909390557 -0.5634785979520425 -2.2857042826252574
Ni 1.332377907829512 9.023887874918904 12.889867211476574 0.9715216685091784 -1.3579019093809002 2.4436852021498363
Ni 1.8275416608792798 3.4881304834500493 1.7245496948699859 -1.2671016014678758 1.9754916873550492 -0.1054964764726183
Ni 6.009722416813604 0.8282362551460487 12.656190278973463 0.15161486809723568 0.4027807937169322 0.17910536020802056
Ni 4.927988839555467 2.5347300949981166 9.640599727748516 -0.04776004099309839 -0.6557156383115933 -1.5966370654364115
Ni 2.4686278426175376 3.1705984161014387 10.401905231495608 -0.022869705509321905 0.8363382064950887 -1.01266214730323
Ni 0.9641727458918002 9.422446398184578 3.527588918075927 1.2338605800265587 -0.6109568460386638 0.43815403100990347
Ni 7.783084356332992 0.6940811307998588 7.671547442208636 -0.033057701785917264 -0.6668477436690129 -2.228120056452885
Ni 5.755664969518661 3.9216150093527946 4.931841453500975 1.3548070725056602 -3.1163968607987944 -2.1943802409982784
Ni 5.752766158054809 2.352450959950072 7.019320473444459 1.4194759734389553 0.4699930298973712 1.9111328614630054
Ni 2.182748926253262 1.5035012942440826 12.24793289361002 1.1192446577511757 3.8599979473694623 1.4224594815473115
Ni 8.233671869872472 4.602405557141122 10.153816530514785 -0.8721968680649107 0.07294631045073889 -1.9353652516478086
Ni 0.9112843982840314 5.525368425222593 11.356225758812196 -0.621526394024394 -0.19426844110170413 0.23204077475447135
Ni 5.120339006689222 7.793183441432869 4.9307473859484885 -2.225091811149523 -0.9661184952157361 -0.4253054571820095
Ni 7.223875571941509 7.224427281220113 3.995888169659551 0.6807890363404534 2.0386955737070434 -1.0601365387351096
Ni 4.967796066657479 2.892985787911506 11.892667652006763 2.0346162614313474 -1.955670024643432 0.7515581366342153
Ni 0.6759953525668303 0.3228920632553224 5.94543706465053 -1.8491569339808411 0.39691250786161325 -0.6930161745342645
Ni 0.8324376615676917 2.1471122472573096 8.35982346927701 -0.03066066230865042 -0.2395746212376713 -0.308533664905888
Ni 2.8320733431516967 8.623655521807972 5.142717831190169 -0.5240543305181491 0.8112321554560803 -0.6393870763548989
Ni 6.443973725103563 5.85007271319306 1.0431728390855826 0.3180297773217813 -0.1274737520746579 0.46006188682658833
Ni 8.951445641336736 4.781477297569484 1.3874048302172268 1.298191380894145 -0.09844059806710143 -0.4276886127022054
Ni 4.1845091561101295 1.9296826854588618 5.53155504994674 -0.1841066700773539 -0.7385807505379409 -1.9179568263633742
Ni 3.4494827809335784 3.3319593535861287 3.195275717563081 3.054514521471701 2.039385657795533 0.09630375422975673
P 2.2621576583534 7.249506675884806 11.752931848042419 0.30638885064874327 -0.4414373297468655 -0.5034114574568169
P 3.6463868873669996 7.721966189469297 6.889425666849662 1.0302765179508835 -1.2200136468411373 -1.1465148063210384
P 1.4551285468166195 7.087883910267897 4.2445379309237 2.984717555283221 0.3349712902721263 -0.7027814814511445
P 8.70061429067092 1.7872294795222734 1.2436256518110436 -0.44906604993671695 3.1698269555934764 0.21646297492087238
P 4.242130047207757 7.152162716727665 2.496050599065591 -1.6137053337726082 1.5098677330596515 -0.4387821515122056
P 6.326553158808057 4.285565464141947 8.264895809740063 -0.6234310672462747 -0.911926582554365 0.6572827256883971
P 7.241259089719907 7.999588168663951 2.0048825303335795 -0.24545859082227403 -0.391577468801945 -1.0564909715627224
P 6.846282001262802 8.519709753317025 11.656745543269874 -0.9897536181361729 -0.45327828824585165 -0.7392775194946494
Ni 7.321331743155316 1.8390901517110825 4.932471711219245 0.4481407099089702 1.1193865826456786 1.317238627333583
Ni 7.76324152431268 5.674638513601598 7.430958247014945 0.12350062635952279 0.6281603544011439 -0.11776038144163589
Ni 1.3916352247535084 4.525409384259287 4.139250293255128 0.0932917068763103 -0.010031416094073046 0.755268495606267
Ni 6.714255165591363 0.6107290800084075 1.2019650555731096 -0.23505153655633715 0.47340154135828794 -0.07471702919791648
Ni -0.018784298285769895 7.044439142328985 2.8235190440319125 -0.2547587851772774 0.48965245599951157 -2.0126533840070113
Ni 8.551260043249416 1.1648640092376752 12.803343299883384 0.31921685565134705 -0.12121620120072026 -0.2726948008304078
Ni 0.6439055096619735 7.52805440454695 9.558468918173771 0.15640277640418226 -0.01088039435792965 1.5791095980756094
Ni 3.6204846042867613 0.481247587822327 7.475205331159014 2.0846447867436484 2.5286881866547937 -1.0193809540843026
Ni 2.1548361771577706 7.954002020643677 1.4694673774574993 1.150391001446993 0.4142260594393963 0.35264993849881204
Ni 5.090219420479313 5.652588844466868 6.069735294919147 -0.7971111426736659 2.1528474118618153 2.2019662808756526
Ni 4.997345241579339 6.995065837396257 11.092028081996597 -0.2787222379714103 0.7376950054988779 -1.685440140413749
Ni 3.037571022924735 5.895406384085839 10.132972205888736 -1.1394990371248375 0.7407690164385113 -0.872385072816317
Ni 7.941808310486048 0.3333259143242501 3.2362798732695226 -0.37555486812144356 -0.07025539388213707 0.6740391192111295
Ni 7.263290056845193 7.778446257990827 6.265022612636116 0.15070444046782433 0.15038202413139906 1.8324265086000378
Ni 5.380708382171588 7.504433766618906 13.173800183758178 -0.5655910163093549 0.9436064301561491 1.8582866641962512
Ni 0.7753974678633071 3.302008085461218 13.43913307254704 -0.48439994935132064 -0.14140424611282099 -0.543529151413309
Ni 2.061372884960304 1.3351925602508663 1.4829066414441123 0.05634958243432231 -1.4999923829274682 -0.4703038762695707
Ni 7.62854965229544 7.850364835308556 8.873847263750799 0.7067972874787569 0.2300635964234425 0.027301773138746526
Ni 0.03338682725981324 3.0590783337855827 11.183588444733115 0.7741244519705055 -1.3744461868928264 0.6008310704585716
Ni 8.189394862513293 3.2860833244194683 7.634649312675672 -0.45928952743693807 -0.6510945945998141 -0.2141744359970118
Ni 8.15637646483953 1.5730727693765636 9.629527203057068 0.4226366521005947 0.09826884837592753 1.178537381974222
Ni -0.19872007155045462 6.808111199987158 5.377708579856735 0.3528648827230955 -1.106784577610952 1.6681641269421206
Ni 8.346501092849424 5.020283256162669 3.4960975394732845 -0.38841449769293107 -0.3367751762500845 2.0957051583228683
Ni 4.846139495222858 4.748084859706838 10.676777080201491 1.3866838666095989 -0.2433618561942454 -0.332039461337312
P 0.3348978182180365 7.283114186856061 0.42456553759879917 0.31244302726262324 -1.1194362049366915 0.13141910987565109
P 9.141963011544957 2.566177523878565 5.678954937381323 0.4646927007303803 0.477982475860751 1.065869841674461
P 6.480349133472562 9.264844564598175 5.021021050435244 0.786815931395245 2.034388718801574 -0.9637224841797338
P 3.5232435061815632 8.970830274125666 13.611715215698261 0.4175952330219453 0.9767939726517113 0.24128723305340377
P 9.337670189373949 7.822349225161122 7.476314360319055 -1.8337493411765193 -0.5022955986848188 -1.0410448122109812
P 7.2023308570617735 2.403844081902776 11.347631250372105 -0.5236573521900466 0.6007662786589072 1.007325308471349
P 0.4055455939940321 0.3901688018289983 10.649623632689433 -1.906115353643756 0.9017180174524793 -0.2475877213501349
P 1.2359316451256936 4.937106069159522 9.249832461617302 -0.8377330299600863 -0.28103623081656764 0.036207817379124735
