# total energy = -340874.5532036713 ev
CRYSTAL
PRIMVEC
9.19067899125700 0.00000000000000 0.00000000000000

0.00000000000000 9.19067899125700 0.00000000000000

0.00000000000000 0.00000000000000 13.45148771177351

PRIMCOORD
 96 1
Ni 5.039690363264274 0.6521503513433691 2.238838337812377 -0.05617089076461294 1.4013700078668638 1.5794279006469767
Ni 4.721362010790988 8.595913254167042 12.205287678965862 0.3043178270523275 -2.0674111964741813 0.833419747296713
Ni 8.408827795599478 8.424635763212772 0.39231515531080896 -1.4579432762762181 -2.2350064991600735 -1.2532932348298738
Ni 3.788241578343239 4.0476025353474 4.9311135215259405 -0.12229272209435069 0.3730976648302026 -0.6235161707609133
Ni 0.7407420619333837 3.0367289598714717 2.2721306528602816 0.20597853044978076 -0.8916362077364451 2.484135339745083
Ni 1.1583472082218096 0.7805478110786962 5.852271366389119 -1.0780311596273435 0.3963836319413367 0.7329788309701313
Ni 5.042272944019702 7.625736004616503 1.3108931766222125 0.7624009928859902 -0.01537699667670255 -0.018436609438632765
Ni 6.875436555752267 8.688619631675937 9.186181845779558 1.2483088942414051 2.226405130644307 0.6747106913568574
Ni 1.8103431561605836 7.7508303343749585 6.637568920294879 -1.3025134053082665 1.680192004640932 0.13131523730793515
Ni 3.872336289774425 8.364933113436052 4.5895134511493865 -0.12463191175048859 -0.30761989484236696 1.771953133805329
Ni 2.1962413795018567 2.1282211653704675 4.084530682946363 1.7595390764116923 -0.188635668295959 -0.23565754557145221
Ni 4.944281926174969 4.798765908023059 8.892172948597862 -0.5576457933203492 1.2286576956693809 0.5385898051301627
Ni 3.5401024402087473 6.7449564881906765 8.388952952597299 -0.9468563045520145 -0.11693891398160505 -0.20955184962333587
Ni 8.123558314931435 1.3639610753407712 9.813425457453144 -0.15387538199663822 0.9864916595554494 1.4720108101128777
Ni 3.685535742251052 4.1545085116717235 12.742983749449559 0.021219571500408617 -2.0444137071377435 0.3644536160019594
Ni 8.425793788747233 4.618077161931571 -0.06608557623452946 1.3050783378219653 -0.5746870650733522 1.3272132220477917
Ni 1.832648933717249 5.031639328596108 1.1209622838842537 1.4050088901710318 -1.3127731353630616 -0.3754887907701985
Ni 6.239349672894082 6.857422825216188 10.71565693737094 -0.5500888069086978 1.6900241602400055 0.3542576493055641
Ni 5.277407271588605 5.807130428174319 3.859204647840777 0.015673187760882685 0.33920486873749967 -0.16982187802356558
Ni 7.516164731427146 6.861503486623341 2.8908186615971143 -1.7062269952521132 0.03193310126317082 0.6189293227211793
Ni 2.7730116210948097 -0.1772256983027159 2.7457980210349473 -0.7079285728697228 1.380401376034997 -0.8240889568140903
Ni 0.1795481828468318 5.244725217616004 2.7044620238619523 -0.701222878714773 1.3589190377915048 0.7017759230047657
Ni 6.306267005564077 3.089492647120263 5.344437649608395 -0.242071419517596 -0.23867319246932445 -0.634108601564779
Ni 5.808352788460696 0.40789335595297954 5.064215689761992 0.38291053715556633 2.7814993611873966 -0.0863633551875932
P 4.461311752873456 2.0952633910325185 4.309466114201038 0.519983245772569 -0.6480959169828064 -0.39349294065710294
P 8.015494313072649 3.210837179909985 8.694019155497339 1.2146138159818047 -0.7601489636270199 1.1650969401985998
P 5.271295470156721 5.4168666323817005 6.327754812703544 -0.9779244867117287 0.2157926883267251 -0.1815327387025906
P 7.7739081289545995 8.449910130036352 6.80331821792392 -0.40436870702934224 -0.08584476367996183 0.8287441961979147
P 2.0373896863459415 2.3400387407097627 7.257494913472125 0.14258361113290285 0.15622896983047935 0.11017871243963605
P 0.611588209329118 2.6493510372361637 0.3293424620010601 -1.4746934991513636 0.20580240988323265 -3.199181497496194
P 4.252867156670254 6.215922632518334 10.391085356758287 -0.5150886366844291 -0.558880951279031 -0.011356305553083668
P 4.6233250395520304 1.0897387906443443 8.369864831704247 -0.04758700575034385 0.2057702710937166 -0.5503819126690843
Ni 8.848666113081693 3.3172468595766813 11.378962934696295 0.6423685275807259 -0.0223966225276453 0.03509890058566213
Ni 7.735766811748105 3.48226549823755 1.7333859259203765 -0.4200403521283282 -0.39502197570711967 -0.2890287621037409
Ni 1.1613985135983291 8.155431589165682 12.408419143728805 -0.1612454492084642 0.0653381590861778 0.3827709262539085
Ni 5.853313589370134 2.6780443365900615 9.181299757177127 0.7647476387412958 -1.157661824076793 -1.6908877937918814
Ni 6.6845093934275175 2.935603920540615 12.890937135631146 0.03263064155082768 -1.4809633913204754 0.6413984503579727
Ni 2.929133682633778 6.014591621741113 6.116458348854757 2.379834683352779 -1.8154145474230734 -0.7485250062348463
Ni 6.099302108654911 4.9807321584739945 12.153472469773865 -0.6957749682263243 0.2828030929090033 0.34548093155419857
Ni 0.31737711721283485 3.8546534236767633 7.181789453690599 0.19096534487040015 -0.006565311922343531 -0.29389303217457774
Ni 6.119999517413712 7.044048749841506 8.165536740555691 -1.4821358143620218 -2.8304793906305252 -1.7188403131407495
Ni 6.062006333902151 1.0117007365719726 11.18281362865185 2.2919055263399626 -0.23176900915032345 -1.0699789787468283
Ni 4.514727978320239 8.577568659192545 9.712148771921346 1.1406712030560677 0.6172365083997886 -0.0708194939157232
Ni 8.410279922856978 5.9088988150243225 11.683074226064345 -0.4971202251314664 1.5655909947638844 -0.7513380502036092
Ni 2.8045448402117934 6.545224655532476 3.591788979896912 -1.1238808709716064 -1.3862575777054575 -0.1791632100291495
Ni 2.731534087467603 7.256022566721167 1.2850030343160208 -1.1492121506475435 -0.5194003766859056 -1.1967636751742616
Ni 3.5957060472206246 1.175873832779107 6.213107527588129 -0.455808253756557 1.6280855137536798 -0.688304370880892
Ni 0.31445723854379787 5.023055234554936 9.661356485284793 0.5636745160129325 -0.6081306894437785 -0.4297622074017824
Ni 8.295874352595185 8.35093570955521 11.221029390356987 -0.418622388734879 -0.5768542479280001 -1.183645906845381
Ni 7.034490443842771 4.729045418305357 9.949998026021044 0.7890188525838346 -0.8008024754823241 -0.32434414957558333
Ni 7.199297696890206 1.9592964882005 3.4421013126172846 -0.795100025780908 -1.578050817793792 -0.7295896027829241
Ni 6.786305352314055 1.1917093724289358 7.31810652138661 0.14418180885795812 0.2729395698513622 -0.12960699636757678
Ni 8.76048154956451 3.417379305592285 4.498635099662752 1.2155705234681196 0.7976698433906133 0.6975971090367277
Ni 8.727891402380358 7.895087229525112 4.870016645768445 -0.9310108528793257 0.16767243578073057 0.8073158511208096
Ni 1.1661960479553868 2.3350665834546507 9.243794535186938 -3.0004110547590774 0.8839036149788778 -0.5978709593889833
Ni 1.0554667492315692 7.473308595973199 9.089278085242182 -0.4792587714700132 -1.167520462038428 0.6172287950903047
P 1.3724348812358043 5.754651651969722 7.680557484858675 -0.21861935914224287 0.754950707255532 -0.9504800173475308
P 7.302058677055462 4.719137866510513 3.472300045165983 -0.33748814315670905 -0.381858184631652 -1.2218141903849862
P 2.2354304340966737 3.6204473546711986 11.010176836296413 -0.9968454919859476 0.523956114377388 0.05232606309722601
P 1.1034972368752172 0.2645481761442445 10.241263505567524 -0.3616027768167256 -0.11944085446785238 0.7981385554969158
P 4.959428164911427 2.4488471875549878 0.8451417401366922 0.2078106985625131 -0.4309587988130449 -0.6635266497155798
P 2.7743994136003955 9.111409239900793 0.09282401819810872 2.2548322756367494 0.15346889058683894 -0.9350402857536929
P 1.8189456315594459 4.190453256634277 3.8346563446459467 -0.4213539287334292 2.0469192471684163 0.640655144434045
P 5.744643002707583 8.06758708076576 3.4972389522117235 -0.256281649579707 -0.40691152805585407 -1.1919533982698118
Ni 3.0703668444439463 1.8138264234428152 10.017350077800407 3.5379364231804686 -0.20295799845590204 0.7396235899801585
Ni 4.113692706921352 1.49090273154706 12.15471045421428 -1.1565318242374083 2.1541563604812257 1.9627865810835552
Ni 2.886047780208707 7.71182509335704 10.993658429208406 -1.8264360953445578 0.14406199545064222 -0.7357335108971329
Ni 0.2220642631835168 7.924800694230797 2.4993132050925446 1.9147041237540317 -0.16073842766505864 -0.029896787559432387
Ni 1.0573048850005569 0.5552980586075238 1.077134693676396 -0.8004587189896601 1.2004447235702744 0.4782154178071635
Ni 8.47562564944449 1.0251466997221175 12.387905548546902 -0.0028392692210080137 2.5112705053989783 0.5394868630231353
Ni 6.96976049273787 4.315740590648478 7.240976506384117 -0.31751118581414994 0.31553169349027593 0.7639287423844263
Ni 6.246049677772041 7.44705082651321 5.51786759754815 -0.6250189805586849 -0.23162502737329138 1.4681811519541423
Ni 2.514634066727057 4.326879693408543 8.734709967015418 0.9463163728881444 -0.9301934991843528 0.030138985477225516
Ni 4.492716302486611 8.550915690542226 7.085920563591162 0.8762435273304586 -1.5920777282005032 0.3174160549971824
Ni 6.284374808555435 0.525724292220281 0.18473448291903052 0.622827886444637 0.2989359939151239 0.24127694864075866
Ni 0.1903646927794398 1.068931093739404 3.660876231842198 -0.3460460600290492 -1.4180968337032416 -0.7834668124173539
Ni 1.7219012536357414 1.5514417330986694 12.08337700035929 -0.7783171498956144 0.21683835598242013 0.11937889088166537
Ni 5.571711189561222 3.5792639227670295 2.7199446414441355 -1.6158318931973077 -0.29459185801381527 0.05925544322720762
Ni 8.274175159842287 6.3920711832604225 7.514431369396991 1.8104798291256174 -0.052773692157605884 -0.29209094596883245
Ni 3.9408803725999753 6.378055398021892 12.62233770825205 0.35416688936397067 0.1508615348709789 0.43710836335420855
Ni 1.4874929896955877 5.562217218314402 12.089201133543328 0.8603651655373054 -0.24741057234232225 -0.5332601653871332
Ni 2.6525034400799776 2.4278372957154586 1.0985361084347194 1.880668374325561 -0.518859416580771 -0.7266896555273097
Ni 7.458934374259715 5.63477762779519 5.311978929131726 -0.38111847825215006 -0.9809316489691686 0.07391638767349207
Ni 6.309842179634759 5.585074436601763 1.2027152103457495 0.1196210887994585 -0.6801151502018803 -0.5407842416783203
Ni 9.278725548272895 0.24635982271011142 8.194713469616833 -0.49976486184316504 -0.2566341478231193 -1.7930834880260411
Ni 2.4895159414438406 0.11218877852439389 8.434324576851106 0.24043722634828268 0.38752798132291966 -0.668069531891256
Ni 0.48379641532967216 5.698652845767511 5.388114512683195 2.2816661080001417 -0.49690502379686685 0.24299881642787183
Ni 4.6996260553227085 3.398115642733294 7.124876174943317 -1.1650198071037614 -1.0915111963916493 -0.5121380386965373
P 6.535409010526082 7.084956461380328 12.894811006764286 -0.03743937579338068 0.6204257047610476 0.8905540304158598
P 8.100480520351795 1.5630771325163613 5.46277039694063 -0.29640834239726377 0.08374880038288157 0.016334475493965415
P 7.876917257448668 0.376795775013246 2.0283497346340598 -0.277861946853644 0.6258473899972511 0.7935571067738204
P 0.47635288453315655 6.5523106689219235 0.3834121447137171 -0.16562609477466314 -0.14353209108910117 0.378429104345445
P 4.129031949913554 5.354149439943842 1.444649721192023 -0.6824047175670054 0.5293932262325592 -0.03464510087769518
P 8.121867230023966 6.709765378893408 9.65280088234804 0.06218727216202194 0.7265009365552714 -0.21437703892612112
P 5.3085544821941015 3.0662494203214137 11.062664803179855 -0.5944606481558536 1.1373799338993058 2.498233726819678
P 1.4944503335812063 8.338234191391505 4.3669850586842 1.4846207855674045 -0.26007659784576503 -0.07233721611183026
