# total energy = -340871.2615466486 ev
CRYSTAL
PRIMVEC
9.25160810526789 0.00000000000000 0.00000000000000
0.00000000000000 9.25160810526789 0.00000000000000
0.00000000000000 0.00000000000000 13.54066362893819
PRIMCOORD
 96 1
Ni 2.744942933585418 6.983234222320971 8.379721013961426 0.49577708084001065 0.8572183923782075 -0.6898642591688442
Ni 7.742097393842762 4.609428807647692 0.7118613006702299 -0.8490068031016926 2.068698033606405 -0.8899451931872674
Ni 8.245125840803846 -0.1707347306938866 11.403933921114339 -0.5815033166642372 1.2925614363018771 -0.25835678694118086
Ni 4.392034515609667 1.7385529817641385 8.75143953387535 0.9396101645125623 0.706525521874609 -0.7616186061940109
Ni 2.5246898945800016 6.888886320788766 11.269921599280208 2.1201350092304585 0.33806047072041134 -0.13109232266385168
Ni 9.29638609292236 1.932290911356797 3.488143132240566 -0.14447131507391894 1.9346162892969263 -0.027046976815463097
Ni 0.4584653000596972 8.532952626896066 5.274006988573777 -0.8573009247896848 1.2627656930966833 0.7347968580154766
Ni 7.329346140758055 7.751968859908154 7.062499226827491 -2.1047994073146525 0.19583732825072078 -0.48088525132984283
Ni 3.09593044960119 0.5080640973635128 6.73588414774018 -0.7047470898179475 -0.1757223026684006 0.13552516162422465
Ni 2.3032156432778357 3.57656075284689 1.0162715946558105 -0.5459480452674468 -0.8697502062966311 -1.806183772853425
Ni 3.855672523912308 7.048772615579861 0.6864415816812232 -1.093871983314342 -0.3075885273837993 -0.2504287903433558
Ni 0.12249777013311282 4.14077008555346 8.062233571631486 0.2582886527074068 0.14820789929821573 -0.15052060659179237
Ni 7.784765811362525 6.013360368494164 8.905559301207628 0.6204568151092992 -1.0703749286336663 -0.45695779397996783
Ni 7.016364231674456 1.151362654018737 2.728619395885533 -0.5528722831911059 -0.022596140132961084 0.17231713364159354
Ni 4.646250208716352 2.1063506700768335 0.2834063676423204 0.8795504802165046 0.7327255773087445 0.16482339636770968
Ni 4.113903415024971 0.9710673112986313 4.592858252005965 0.5351620103955363 0.6431033488642215 -1.161128442469155
Ni 3.715233109786118 3.71134743429646 10.324634819694623 0.044117559144504666 0.11802494795693222 -0.6906024228864494
Ni 6.02119648073164 8.176932235960358 3.0343545201809206 -0.12135066989605553 -0.3609438030764881 1.1181861345796742
Ni 5.511830682079092 4.136597610206233 4.586574559642691 -0.0876728180276361 -1.1854140544893972 0.49886163330260536
Ni 2.2653580620786014 4.420418449900784 12.05647205898747 -0.057784257998319835 0.9354838010490146 1.5764320512434462
Ni 1.3405580439318199 3.064354710443569 10.480244095964604 -0.7010107627039669 -0.36942510107462184 -0.3909547476162816
Ni 5.8133776032931275 4.089719710906008 9.422081218886962 0.1751080661231694 0.21980823724402146 -0.13396733021880153
Ni 3.416702212880721 3.210872431228581 3.2843690579546205 0.474613302278202 -0.3412923473941477 0.3381319473882951
Ni 8.288451122513527 6.676552658495603 4.056742353089618 -1.2037573328832754 1.056991565348225 1.1993509762854635
P 4.072567229101663 6.815336034734535 2.8559557571641 1.1529615903876465 -2.7731473896782757 0.678189136823761
P 8.454924562420421 1.9972094468590027 11.640542878448722 0.1972707182631377 -0.05298555105809585 -0.6850128446138138
P 1.1428789291996515 0.14451012178202227 3.401563806205182 2.256252295912727 -1.0276344523423464 -0.4686750824168961
P 1.5053106846932958 4.233184400949147 3.7803912619435187 -0.24028141749670873 0.3070249415708454 0.8666288870588301
P 5.0706954947032665 7.546805194054241 6.88656509226411 -0.8755801827148469 1.642921550325248 -1.1639003487873374
P 7.683553216465257 2.730158863508102 8.272763170304449 -0.8497053718306141 -0.7909916600394893 -1.2517608573457475
P 1.7106316278884572 6.472212385781165 13.148160914254209 0.2668077459220115 -0.7657925350660424 0.7250091825010934
P 7.4616996492224335 3.290260482125606 3.9801973214258592 -0.12318412356036851 -0.5195610706334859 -0.5908436202285566
Ni 5.107368870038986 7.732864288750672 11.741462197362605 -0.28161447191754085 0.15861032557846233 0.7015591790082693
Ni 6.243383105873575 3.946208762821327 7.106357401175753 0.7945390110711155 -0.5831974165372086 -1.3365599533700143
Ni 2.0570488493997274 2.132051637958425 8.291828884707035 -0.7873453215361537 -0.3192685348248888 1.2108692613377081
Ni 4.3776482646896255 0.6739565362686214 10.899394686516445 0.2940511550189968 0.03979913427480888 0.6376880913859211
Ni 6.725160608549555 0.9285006614702649 9.304589494009692 -0.2249411875952126 0.07872563613667732 0.08814153013393852
Ni 1.258977361865631 6.634217298874954 4.066085552320582 1.691266260177223 0.08318315768739867 -0.06183760213208704
Ni 8.064127375852278 3.7406657810267565 10.087009110607115 1.1439388180637462 -0.9908532789582547 0.8590024808618238
Ni 5.908456381881721 2.5778126294886037 11.281945914599037 0.21097881187784953 -0.4574097939157219 1.1609487223581814
Ni 5.490811028001706 0.5224929056817741 6.68528340125653 0.5362097349337603 -2.1208623743147865 1.367405477995961
Ni 1.153166717638935 7.767789110116046 1.1930059933378943 0.49445193427068396 -1.5508431470307484 0.5036431138516487
Ni 6.810737985405107 5.094277844282164 11.442862838555723 -1.9679598977543786 -0.9107644439254636 1.9266402130699851
Ni 5.5439245113019995 6.050357550120688 8.09229389734814 0.1179789252103452 -0.6788743358162437 2.0312396316496306
Ni 0.9623152898385934 8.547708942148455 12.353283081908279 -1.6371465955146836 -3.4681854797385756 -0.0817669940661624
Ni 7.2640297860985745 7.176731610097604 10.761117373251999 -0.675987758297068 1.8830389314402665 -0.28382176398150477
Ni 7.621669208488308 1.695347970962471 0.3131687915714347 0.29247506878112856 0.5714770427764867 -0.557699272266104
Ni 6.294933067369698 6.620016080121087 0.25456355357909166 -1.9344746215127393 -1.6361739471887693 0.06711633403252312
Ni 8.52490372766749 8.554314590480873 2.7059659077808305 -0.7033849193630983 0.2878049169989689 1.0310277942946113
Ni 1.2458400780672654 5.101688382537438 6.167244219814569 -0.013913524757298618 0.5688694299503106 -1.026288222727097
Ni 5.17881904100714 8.393086812485016 9.07296252774955 -0.6997861462682464 -0.6488286813837729 -0.42507328656654536
Ni 0.11407140528554138 6.890699636017272 7.343047772663251 1.5681649261386479 -0.9952400951720409 0.44489752038132413
Ni 6.33388233834936 3.2635880953716 1.998330741786018 -1.4690370721965345 -0.03859920042943675 0.4981026436493937
Ni 1.462281454449494 5.4659334532595905 9.689875497508337 -1.4454415442647817 -0.3418911573204112 1.4555912311042738
Ni 1.0729182671692001 1.3588022155165926 12.7966987907322 0.04823235264382661 3.771819907570633 0.5133513422783481
Ni 8.686806873069884 4.8043972011454095 2.964539108400916 0.7634538596305368 -1.0168656438616164 -0.5865519348317382
P 8.27840387589027 8.3937066702417 8.893968886318477 -0.563661660497126 0.7993706281318039 0.4827202476560525
P 4.759082823649357 5.986142136849944 10.511021421325182 0.3938518666584185 -0.47375455382233245 -1.9642667651735075
P 1.978780243108056 7.230723996187225 6.191576874827303 0.7660565873607065 -0.21364324608389013 -0.16163240023423778
P 6.069230831070453 0.32218448386827087 12.443341937828567 0.2811197916693094 0.40766408995116243 0.038247730627288964
P 4.493330374981713 2.429490845083394 6.277627934028259 0.2791410706763837 0.6558655336258963 0.1676097008635952
P 0.12979543876702188 3.59411105380851 1.2597406195510992 2.09369404143011 -2.226769713072578 -0.5697569747615864
P 2.3944087463767723 4.34546191938363 8.287631430017374 0.8549825610691534 -1.1169610039233215 -1.2899803058382622
P 5.884559477620328 4.046681229053898 13.377796934406316 -0.6886306438720592 -0.5546823398166512 -0.024761266105079935
Ni 6.337703252580856 6.292499894384507 5.227278965328153 -1.9954966697220666 0.6723591604055452 0.8229738693730408
Ni 6.034620564387575 5.685326092692297 2.805977643919628 0.798746878504876 0.609067599435751 -0.1943203773855621
Ni 9.077428279080163 1.391534405712802 9.355366946212037 0.22571688941897255 0.05599631285996162 1.2097145789079748
Ni 2.6705970092166385 1.5156539827824316 1.9114276094598293 -0.7485391473022335 -0.8714327362053766 -0.30611219994858896
Ni 6.504361724653926 1.8821842007568337 5.24684519174024 0.8437039028315405 0.21755492243347047 -0.4370147751991377
Ni 3.391510083456109 5.146031341161078 4.465101867710183 -0.14057018024729984 2.047575392695177 -0.10731347507669906
Ni 3.9911715792016484 4.888586836754654 6.827662877645058 -0.8299359025131706 -0.5050127405056657 -0.2202170426466659
Ni 8.793773968335168 2.9917850948700617 5.9377164434796725 -0.9921439727452203 1.1864463524086533 -0.34983458053720395
Ni 2.303012107895044 3.057786068544386 6.191401094269437 1.4711939706385373 0.3105226703114588 -1.4238411923861867
Ni 0.5783827966355113 0.5902572358997382 1.3626101774964567 -1.0918680655104356 2.5464210851581823 -0.9252166147950518
Ni 8.15635665908179 0.7774265235932141 7.048497842813092 -0.53965192784609 0.4627828853021772 -0.4724011251182316
Ni 0.8042404599543431 7.691222799753176 9.897019932701145 -0.7605328293289999 0.6592056537427228 0.5728160733028844
Ni 3.9792370044834153 7.738285731219575 4.988908501771793 -0.44501013469978845 -0.37498922542596064 0.16855432416505164
Ni 7.532548465650522 8.45193629293671 0.3024508033457962 0.9151998539889981 2.8996438654413286 0.4392801741945467
Ni 5.134078263226226 9.037285550628678 0.8788907622364789 0.4167064026590888 0.3613238121237261 -0.0022394308534800142
Ni 3.2581666529026974 8.626282851514315 2.6187778259187326 -0.999263614509137 1.4450463657088919 0.33264701301432387
Ni 1.9397384560453073 0.7187047153361813 10.743595752276136 -0.09544731976673239 -0.11380088257325563 -0.29771831945793886
Ni 3.0082437060512532 8.850819385166663 12.976546355610164 1.7276237157603345 1.1461391681491746 0.4219288274002927
Ni 4.240354397388396 4.7783724269730135 1.5641906954524074 0.9654795760801567 -0.07400020563654996 -0.569702210264251
Ni 4.445212760168122 5.405779496036369 12.517625876421679 -0.3366677041379427 -0.21339821995261962 0.4865452778290975
Ni 8.575787573365385 6.689699193902277 12.928490726572242 1.1811519367789336 -1.1210197473737273 -0.05948889939425238
Ni 9.140524247745553 3.8915225061085525 12.373201794596929 0.22347488746233124 0.38272413217637313 0.758691405244887
Ni 0.9744719031562359 9.06477207891385 7.883185345711394 1.2806130056907492 0.36812232310279824 -0.24464406534077868
Ni 2.044309384758636 5.590413843053259 2.02738911832284 -0.07920977486194745 0.5961601473454635 0.194824056494858
P 7.863358223945001 6.798766404253639 1.778769723082093 -0.3894336829860648 -1.4594900519380476 0.04391007111938889
P 0.9418969903012743 1.4554075094761236 6.246890390583408 0.011521884596670478 -2.0235157806428123 0.36772483055406346
P 8.877602791220374 5.705457592372046 11.020746182380108 0.7606840101948834 -0.2988832863003175 -0.9244301143380144
P 4.734556810022971 1.5698128978216095 2.4659172024772706 1.068850778679656 -0.7759861877695926 0.5372579736926166
P 8.045818443009344 5.472761140191417 6.1890040025566515 1.0501508882773074 -0.6076123550464633 0.6546961959081434
P 7.278582565968173 8.741567142649128 5.0649261917619555 -0.2671730996812302 0.6041555068461143 -0.7895695828809821
P 3.5110686176295447 2.413605833617342 12.079829594484465 -1.645449458953424 -0.07845798429758746 -0.934940269840719
P 3.0523553744671745 9.286209323782781 9.111390933181431 0.16304933518642242 -0.8435624921576699 -1.3368723424041105
