# total energy = -340858.58031535934 ev
CRYSTAL
PRIMVEC
9.34124383394662 0.00000000000000 0.00000000000000
0.00000000000000 9.34124383394662 0.00000000000000
0.00000000000000 0.00000000000000 13.67185457838036
PRIMCOORD
 96 1
Ni 4.726099672653837 3.0459835180906993 13.119525986652777 1.0820397665661043 -0.7482789516623113 0.3481404806642327
Ni 2.4211290211984644 5.97509873189062 11.62929303636111 0.3525766620587153 1.6081255256919853 3.818238089823857
Ni 7.191113858392152 1.0888154062931128 4.381556293044572 -3.1255101359539723 -0.0688222609800363 0.9800088800445833
Ni -0.16589675780373342 2.7651203332844623 4.466540129024607 2.738777139728522 -2.5650271302951437 0.617743015722562
Ni 8.432023400282935 8.835163469684032 2.5930172529349056 -0.6541138410421121 -0.5250645169502184 -0.6121722065030039
Ni 9.488555467144435 6.858453475336985 0.3779224469677675 -0.8709473119285259 3.120923287914238 -0.8889023537450498
Ni 5.730582327677095 9.160845943434971 1.726276846153203 -0.060334535223999314 0.4853749116700802 -1.2944211152184353
Ni 6.6780086640521175 5.651873005324438 9.481417822566975 -1.8418038360498796 -0.3785316913615803 3.36280573134948
Ni 0.870792638449942 1.0969516298593558 8.585418771176563 -1.167074889860577 0.29062284606373817 4.02471849961072
Ni 5.0282608938906534 2.415038530078843 4.423979552890834 0.5441341319871597 0.74627271986556 0.36407257851345687
Ni 6.60894884680156 7.093918214067513 11.749127185637287 0.900010033622437 -0.15402579153157345 0.47539903140429096
Ni 1.4675468049954803 8.7248527187153 12.877642879136523 0.13809009413792347 0.739590679859694 0.7342309582096774
Ni 6.986064210283538 2.1202288679081955 9.365097849301844 2.697443828197374 -0.39751877398704444 1.6729944584512284
Ni 2.956148774076279 4.760849100514255 3.571115564143177 1.6231070867024822 -0.39039064758269537 -0.3799316570329005
Ni 2.9549998010583134 7.5520968934023704 0.7409409390561539 -0.06476043220583685 -0.8933292791681519 0.3986269194495586
Ni 3.079593314177201 9.383373059158329 2.2467644256647663 2.102710643106424 -0.5362123060369217 0.25650610688568726
Ni 3.3131617803658853 0.33954768229212634 9.504290792744131 0.4920376684022365 -0.0931847489848008 0.11985865873156133
Ni 4.014558430991525 7.207517082941318 4.810428687426072 1.886060748985726 -0.9811784748726521 0.2639203970718874
Ni 6.781696472990463 3.557640819603216 7.752857976368319 1.2395517168740653 1.8965968726303595 -3.032345184463513
Ni 3.559555774633159 2.51734383489801 10.205670629130484 0.8423748996074718 1.2797421730500218 0.26749397335575864
Ni 6.417733581128774 8.019981125303618 3.6598190835033244 -0.8486810443311578 0.2789870615970228 0.5320656308583999
Ni -0.16289541609095048 3.293862770161685 10.956651537289966 -0.011664837932437973 0.2546268875851034 0.18745244662113522
Ni 7.733232956746827 6.41669670303939 2.654171575347218 0.07162502053615406 -1.080767327611584 -0.8178447756765915
Ni 5.071650972495934 5.367861821273856 7.281999492362029 -0.010046585602724633 0.17703819326634673 0.2454717034483966
P 4.222447817290884 7.8014800857651645 2.7881698529741348 1.0576921909596753 -1.8232602687197375 -0.46099648282571576
P 6.4370232500889255 3.740290164483529 5.330710759568568 0.5536857802313367 1.6379984019920177 0.4389266475098699
P 4.2713865948609735 6.990015556516052 12.862754804372026 0.34533437867400524 -1.230817422324861 -0.23190502050755546
P 0.7002000372630277 7.123828877510809 8.517702224820178 1.7788971692233297 -0.007844692855399392 -1.8599825638414356
P 9.146301626451457 5.221260337176703 1.5076908012939074 -1.248487071690482 -2.0812038793828997 1.6591063876152266
P 0.9294631240697583 8.537934425304824 1.4567361832581518 1.3917139728343386 0.026618373918476736 -0.3279092412190224
P 5.655572137967644 0.8215287855869647 5.885719840585767 1.2538897307632921 1.422104669311054 0.45329654307829675
P 7.086361147632278 7.779976541965518 0.24753456016559564 -0.6986877709977452 -0.5089005055958461 0.7586983472234224
Ni 3.273853825409798 4.814990951019359 13.560935264671766 0.28181116130937917 0.9049195551089125 -0.07364436495902801
Ni 7.543372171461072 6.073798316507068 7.664222648089726 3.110096629612379 -0.9481184590938898 -2.894734086844537
Ni 0.8543856774031573 5.604484874266398 10.081106073868147 -1.326024343946013 -0.49031400084291044 -0.8126236364869682
Ni 2.3325179801543974 7.724209314995975 10.143682133624642 -1.9322372475417884 0.09312047140576866 -0.3430856918491446
Ni 8.432752017318718 5.735458457070412 12.166488364977821 1.2348825935331702 0.025398899689078835 -2.3949005765469655
Ni 1.67661318804495 3.793301724458764 6.799697050271922 -2.2236921025885183 -0.10342211044209286 -1.1680210558239303
Ni 5.847861646706007 5.012941253651113 3.48321912826882 -1.861067569375498 -0.6113877629284954 -0.748900387296394
Ni 5.646912804734685 -0.09911713822541467 12.552854362441026 -0.3460918256653201 -0.11073381361215767 0.7370172627055629
Ni 7.156971611394886 1.372966709004422 11.534329015239658 0.16912819439065066 2.407117173217816 -0.2697683712122321
Ni 2.021136951041712 7.3250579568035885 3.2037944950460515 0.040095325358989006 0.033780181774238596 -0.10656142740202293
Ni 0.6520524630638462 3.1737437129420285 1.5520561057778512 -1.6089112548180744 0.45777386212336 0.05586878614316185
Ni 6.474537686187699 6.351625596997542 5.24780441626492 0.8700530822490304 -0.5497082836408275 1.7309139564758316
Ni 2.133661576849938 8.592141664518268 7.57659991066599 0.03333898047176194 -2.6069939616452324 2.547857817604709
Ni 0.6687480685517296 5.056368697232588 3.9649059823761306 0.522918674251809 1.221036431678697 0.3908922698094623
Ni 8.251718707658796 1.7678491186666454 0.0945726229958196 -0.24599363739013763 0.42904846916420947 0.5354011229895359
Ni 5.391691334841578 6.513752228703301 1.4265209952588749 -0.18156127794768084 0.4263372408806335 -0.3578391960092353
Ni 0.9223843293298053 4.891140772502728 13.333872974962864 0.43936373504728854 -3.0172942036676615 -1.6899681101910897
Ni 0.888006682982517 1.0049870822018774 11.112360734334406 -0.11356176997925603 -0.06859986055658508 0.4057707295831915
Ni 5.540020949087704 1.3241493676069631 8.048552254350358 -1.351910724794472 -1.0228647988678448 -1.8472095804464832
Ni 1.8990375500837737 5.518620158972591 1.7148609118015314 -0.12031374399110892 -0.2416443592825064 -0.3350553653455004
Ni 8.159315121531039 9.030974627428682 12.501967935486825 1.020539493168778 -1.5449905449047134 0.7535959929998506
Ni 5.432493888845424 3.7061946237065055 9.491945404609634 -1.85645243920099 0.7483774249133885 0.6339867312749339
Ni 4.118601207203714 8.98982644739504 6.447537754389916 0.18160241559826146 -1.2609438093965961 0.8715731184379828
Ni 8.438141915134704 2.014747540112538 6.866770919037769 -0.6181844741353547 -0.9116584164946429 -0.5076715182847515
P 9.153896057862887 3.3586069326618353 8.184847543888802 -0.4903546242728587 1.8365009357797273 0.8927690357893077
P 2.468890802018443 5.945505670744974 5.4433941865256195 -1.4938567023433755 -0.8362438470090694 -1.1120185723163816
P 8.06679009923065 1.5921496593584166 2.6751174468771683 1.3746806715011355 2.3711723796920903 -3.3328765478902147
P 6.855146674943816 3.6049915856850605 12.165106794983048 0.13210893685382408 -0.26087569670829264 0.018640240809006607
P 8.53914878703113 0.6540879201420144 9.810376270605722 -1.380935651271912 -0.9068903056820381 0.19147416618601865
P 5.188948974012943 1.1596220361807397 10.482511474249439 0.22553665508736642 -1.035379643505404 0.21016557194793484
P 0.2765493983046402 7.793119672341756 11.423040236019048 0.41590961778940627 -1.5026442187280185 -0.2222289308703721
P 0.9740862468894408 2.228325744037433 13.173023291318534 -0.9826501743221722 0.4303669308653169 -1.5650783167935238
Ni 4.320175912526286 2.1825816719319304 2.2579748526473704 -0.20587774320585833 0.5206303924382646 -1.0535653132754952
Ni 1.773136262798096 3.2128835255052417 9.079875105898171 -1.0096318451173387 1.0288120175902151 0.34727067646476967
Ni 8.452873056999186 4.5239458102002565 5.97469612427213 -0.21835427840631425 -0.40002200002487237 0.1535262261873356
Ni 8.103342387192429 8.60457486034682 7.81249434662275 0.49012116810581396 2.2573786962076863 -1.5303712523296418
Ni 4.192135480353502 7.596720016222053 8.75820376234166 1.1441941286076618 -0.6614299150875511 -2.2015273935660216
Ni 3.1492603122909113 1.1161011801587801 11.952113352935589 0.236178965292561 -0.6603066001163854 1.1421596146761361
Ni 2.3001505695263464 1.537933078900925 0.9704992091748169 -0.5701338984850309 1.2505750645677625 -1.9489368196846562
Ni 6.813690233856574 5.215907804336913 13.587568085578443 -0.8854874145262298 1.4512000440151136 -0.14028170247260358
Ni 3.413327940297946 5.28690125910551 9.772614291539663 0.6945207841042491 -0.47510258320979465 -3.3872769770179665
Ni 3.302027017460073 1.6779116209676914 7.51060588971215 0.11998849944120625 1.2885217190148648 -0.12091358235863693
Ni 2.1418164829042783 8.470425254566317 5.233517917617144 -1.3419656977666181 0.9016727660368408 0.017368316075118476
Ni 7.968510870596385 4.106700462285925 3.4774910774182803 -2.342469355330443 1.0398752173829124 -1.9897348275376248
Ni 9.022651578981469 9.864820777417997 5.259343655038031 3.3874993774414173 -2.9689487224847384 0.4279140984494501
Ni 3.543152550083993 3.7418688347277254 5.539397888109669 1.1323711678308046 0.8241817736382128 0.8833791099339755
Ni 2.32864136387427 6.072387788655744 7.555518591097336 0.4940546988322652 -0.25659429572411935 0.44085420354988586
Ni 4.742175953661304 5.046784580838827 11.604588248226042 1.796106591123081 0.2538005350290661 0.7392060428267656
Ni 4.664802429207582 7.738370640973501 10.942296847560636 -1.5636881213142166 0.5424346327975497 -0.6600430620423535
Ni 4.63431260863328 0.19333479394739128 4.076618854076542 -0.4888410158418098 0.009580958820215757 0.07898428911470268
Ni 9.425408657376575 7.3876442919285354 6.408846321541032 0.9663771481937614 -0.9583640480812977 -1.632732525607388
Ni 8.419048412299569 7.355043350199272 9.606843640530583 -1.754830615192429 -0.44244468796545733 3.697130389176542
Ni 6.674972759736356 3.476708281167016 1.2379371580345506 -0.4180945412558671 -1.2972483002545854 1.414216781922545
Ni 1.1592764101509454 0.595138131325148 3.05833918159365 -2.0945131948972957 1.68450631574557 1.4729680318198246
Ni 6.4675130706632284 8.84276724233951 9.40536141352409 -0.9669433051098766 0.4214302904973194 2.0372948367047754
Ni 2.284008899810539 1.7475692778373528 4.982010526357722 0.469178761526192 -0.2577942295694915 -0.07737940652142802
P 8.503932296968285 7.500402448837974 4.341743910909868 -0.045524723904676434 0.07422312028063346 1.6133893451940862
P 4.233339707851434 0.9299759583680208 0.13640364796940563 0.686402782982805 0.31129811502490257 1.730783858655871
P 3.5619938393298174 3.8234552602473206 7.789129092884238 1.162614025875746 0.8980284844160341 1.1769980625115601
P 1.490255369277383 0.9627459766145623 6.81857757274275 -1.4713641776678146 0.8168039931169029 -7.145354852412159
P 4.463816222260065 4.432018627518972 1.617940834176324 0.8801369488475939 -0.7225735764764072 0.8162172673754975
P 2.234911321091625 3.9545222554918187 11.072206462667523 -1.1986614064176064 0.05172005408211093 1.5161183419550535
P 6.1965516045484 7.514106053857123 7.706441334691324 -2.561526573341053 0.8085970318260783 -0.5878819664970714
P 2.0330937434237915 2.757712726754002 3.075797966720296 1.0702551152263502 -0.18894728599910685 0.5031147521520045
