# total energy = -340868.39577336214 ev
CRYSTAL
PRIMVEC
9.31504351056941 0.00000000000000 0.00000000000000

0.00000000000000 9.31504351056941 0.00000000000000

0.00000000000000 0.00000000000000 13.63350775674222

PRIMCOORD
 96 1
Ni 4.42821328924818 2.7652731066519074 5.863567399342405 -0.3792744830648758 -0.5219020600618366 0.007519191195180598
Ni 9.143553477076631 5.989926894928028 1.791743014072682 -0.5093597046204518 0.9149116333246179 0.17651163133891537
Ni 1.5082266263245436 5.0362993241339895 3.5759734456218437 -0.5396470427500836 1.0661860873632993 1.0557245257103431
Ni 7.087481201705839 5.8752587103470795 13.332616067408692 0.5715899142052673 -0.8138739639543016 0.6110707459087089
Ni 1.2057764813075802 0.3983950923105273 13.50727499466537 0.973286216608769 0.3246832780825569 -1.0496546653671792
Ni 5.7839526546799425 4.037726668806801 9.867714268100801 0.6965743241991681 -0.7810039526991581 -0.398895599729913
Ni 2.12566496481062 3.0744859731965537 4.4784027432304825 0.4220116169220861 -2.0195418835967285 0.11171828901261405
Ni 3.7773059997304745 7.768103479754268 7.214047491255532 -0.6902213853979468 0.25773766529994324 0.3291204879183041
Ni 6.417282457251729 7.994123693456311 4.7124487983488486 0.03763786495743196 -0.9897531039155406 1.6285506263155565
Ni 6.278078448285223 0.6790322001355161 10.970597711222947 -0.3515939864304719 0.003052156562762485 -0.05582353472752321
Ni 3.4756010581876358 8.512123943363862 0.9935322853290771 -0.6053778092889897 0.4371001358240924 -0.11297530134816673
Ni 4.298417474142498 5.158009681545417 1.3099568584945653 0.9115961957981398 -0.25085687901970993 -0.1205716256381859
Ni 7.526312897531061 3.9853574946626837 11.438348890870266 0.3739456146527947 0.40425866381403924 1.0620008456373582
Ni 6.417720264292777 2.9384863391687834 3.182374669171652 -0.05999540671702571 -0.17557626400883958 0.9585813062984265
Ni 5.861994088507658 3.3608490382158487 7.607783198844094 1.8047503828410079 -0.5661353188485992 -0.12875210456644923
Ni 9.11415520002241 3.3229088663394712 4.722523949319015 -0.5171612029427416 0.32214688481394843 -0.6241131809149638
Ni 5.40609723312498 0.16736897427105216 3.282921247917936 1.2048991597972023 -1.3569991950609726 -0.9600419500043531
Ni 8.549244391418704 1.8576618503850735 10.908087249300332 -1.3942151419896374 0.04700028000893841 0.041380362718999704
Ni 8.307677370237734 5.954008087475215 4.144014108816875 -1.4112204182983823 -1.8603566593514025 -0.2746069302514561
Ni 4.017522339614594 5.075059219831904 11.006931038108242 0.37948428508283677 -0.21915671970295159 -1.1333492154733578
Ni 0.917626790959071 7.30716718587782 4.1483083438365185 -0.0910425058308174 0.5594825894187719 -0.25158013033897964
Ni 6.313298627481045 6.133359933610193 10.93234175937441 -0.37391656118707217 -0.36503314265451325 -0.8703736988132429
Ni 6.862420437476732 1.0731488930002246 8.760728479853599 0.6437052441142785 2.2903363820806297 -0.529204764370837
Ni 4.75847815393685 0.039311346268766804 12.629631164606119 -1.5692694720567362 0.5774183479615862 1.157208795699775
P 2.877593900289363 3.122570227364454 2.105368416688489 0.862875590663985 0.17621929690947716 0.7529681296078645
P 2.376574974548429 5.327701827647053 9.42913873596981 -0.07189832880219876 0.10444463816933626 -0.9935897040528112
P 0.3966215080421103 5.369144455851817 5.72490086838161 1.0212930835053506 -0.17218960692479376 -0.7417236670422968
P 2.261971995271466 8.412602019394502 11.85350360931386 0.28848908755018704 -1.350189628338307 1.2953073744781305
P 5.331856337015299 0.5479509090369695 1.1079191555985435 -0.5172424498026383 -0.17000416923770076 0.6149186588998893
P 6.031360208089366 5.0486790168478874 3.1396875511651 0.310605202722936 0.5485721131538552 -0.41018377104922266
P 4.879173171614783 7.954143527069517 11.042145628278009 -0.06143985247303611 -0.5455119861712928 -1.914329256913116
P 0.14968715883875675 2.157764604458544 2.413280903170787 -0.917805409932645 -0.8739267062718239 0.6265935241346563
Ni 5.991827163787046 5.396512053439049 6.074450667476287 0.06539266647319707 -0.731388860775192 -0.8103554092780818
Ni 8.05444791468671 7.955755029582312 3.150499522070308 -1.5897326250070944 0.27040780456844393 -0.38682864126304994
Ni 0.9418440408594406 0.6162460129274766 4.119200696137205 -1.6787344462587992 0.32831444707724106 0.2282324567519747
Ni 7.979871677013675 6.52103341093675 6.4796653030794 0.15454206904635964 2.5910353814334472 0.49864746040927027
Ni 4.131454635764844 1.8296794599316888 3.4963810570636054 -1.4475195098397327 1.3341791118426636 0.009317677856500083
Ni 8.300597937233547 2.1637634924252485 6.706376693003691 0.053956913832429655 -1.4383311584722454 0.35559385161848434
Ni 2.8536169785093985 8.521438986790422 9.494824696196536 0.5993051207323484 -0.12227729547538295 0.6252213263774781
Ni 1.0971351298236156 0.5525087597855851 10.776224426058297 -0.07751104700328586 -1.388711181452273 -0.07326666990463511
Ni 4.642915725186952 6.788235431627612 3.14126924553893 0.37440867033214226 -0.8920871792309345 0.8529403338281438
Ni 0.22193463565515295 8.898856601304338 1.9276010594403685 1.6539634099617062 0.6879230762820734 -1.31186605016776
Ni 0.34684657349228915 5.097881076226976 13.293188283097091 -0.7164574362763403 -0.8562585995680996 -0.3310459870757912
Ni 4.365169075337224 6.606284688376624 9.14163457813076 -0.3077872736581667 -1.9637029222502376 0.8653592763177871
Ni 0.7209471010420064 6.132372539006977 7.8868618999038205 1.051923149686382 0.1382685286973167 -0.3021727556848667
Ni 1.1774214891171328 2.789324548779285 0.4241605024283911 -1.0485372639332844 -0.016462773541713584 -0.07816822097131053
Ni 1.5076770387623766 8.295754114651738 6.3916204441159 -0.7963781211623833 -0.07150083625346396 -1.653563089199494
Ni 7.903544211176445 0.49675822487762594 13.07505232215129 0.878203993490939 -0.5683685790544921 -0.1761082252529096
Ni 1.652423498567686 5.614428179359985 11.388695983389333 -0.21201522356216387 0.8326921251020692 0.16842576900698739
Ni 0.1762788133085564 7.625043042809167 12.874176205170562 -0.3594790456055035 -0.19593991526685609 -0.0982135696579599
Ni 7.701482289167515 -0.14428350214700952 6.992490114859154 -0.5280521388236324 -0.5954898607513164 0.030087563413999797
Ni 0.6813805225833518 7.366867299198641 10.037833974695717 2.4013920978085803 -0.09250726330180198 2.3239707823056235
Ni 4.232560117116722 2.4004214857204214 11.426365087501997 0.6483409431140771 0.5035659807568102 1.144000524539617
Ni 2.5528155961789363 6.448236346558187 13.361137798876474 -1.3269080321025473 2.0020270146414165 0.5900110970249323
Ni 6.686226391063358 7.9442230058202306 12.243217081150833 1.525335232567631 0.795115709510192 0.9476600314002325
Ni 8.383837165293285 4.37168029069239 7.1827452193249215 -0.23005408334174574 -0.1946258244411229 0.388946201826685
P 6.414245753094671 6.4090386438192235 8.099066972699932 0.27310926266000707 0.554619862009832 0.6034517959108705
P 4.341089688079568 7.701733795340032 5.194216323840112 -0.1647184953587292 1.1385029917601555 -0.48324835224538065
P 2.5497043716744656 6.897659246759408 2.2098003000479913 -0.5357153117958451 -1.4754113511539946 -0.7899994713295492
P 8.291608920326919 2.6019151900803323 12.996154835832673 0.44934064375434224 1.1523884914929958 1.1182146738247645
P 1.119100002223443 8.968738057090388 8.24350044704611 -1.166728819375068 -0.04282480847501012 2.1145148348302034
P 7.847598060356528 7.870242930926494 0.8322944726413865 0.19068252352265871 -0.11540525094589803 0.04444306080472346
P 6.647857727189359 2.9017571229378585 5.56563411888298 -0.5124990215803819 0.06793600172034106 -0.7256753553301825
P 8.545378648396682 8.629651846276767 5.206309113216471 1.3898823189422387 -0.497625189792343 -0.9174755373970521
Ni 2.9907623628786357 8.401479857543189 3.55895858729889 -0.26893996177366586 1.798738372318973 0.6365642621941231
Ni 2.207879538093435 1.0307468153225254 2.1358248826759683 -0.3451389748337475 0.4431424853634304 -0.12753237322673522
Ni 2.5091373575517983 6.222849555809152 5.856886650196876 -1.6752053500596182 0.44397166613294503 -1.3542265174118417
Ni 7.679908648591602 1.2497621163677946 4.4769989661861 -0.43569039996075937 -0.9072163215628891 -0.48822575085531394
Ni 0.2621318425537856 1.7736681038077857 8.619008477657578 0.8342203888211375 -0.993922661912198 0.1474280837093977
Ni 4.671121676682574 6.508439472224042 12.740444784217157 0.996034308938562 0.4234797168271804 0.5381771430727763
Ni 7.89040068490157 3.811818235625878 1.444974686945176 0.7402712508664864 -0.506846708390611 -0.5014561335026589
Ni 5.604852314717481 8.471780490283434 8.826782384295676 0.38098400955681483 0.1244017980175535 -0.07376340703539555
Ni 6.08200609919957 2.1216967563109055 13.459748711598719 -0.12320700637850396 1.1429934234313412 -0.5505958284521033
Ni 8.32417431214617 7.737838903661377 8.857267726917778 -3.0474838398771644 2.2797735189631188 -2.1305744593962275
Ni 2.8653818783571436 0.7014190440025667 5.352733212342904 1.2971678247256369 0.4319682139141657 0.0958908350620542
Ni 5.098523814223408 0.2352821613810702 6.572605217363554 0.6874237680481516 0.6830541782255461 -0.42771560928539887
Ni 2.689383447855727 1.7289372652734465 9.691556550356792 0.6307072891927138 1.3495707638073855 1.3152398517359996
Ni 1.9564758310540178 4.901967082879573 1.3923223354808905 -0.297574594791223 0.07379683137649226 -0.5755363004475249
Ni 4.132591071062884 4.135972431826725 4.052886901983527 0.7833025189253476 2.281699275230922 -0.9579675839738275
Ni 0.6765171384103451 3.7008481232852732 10.513711598228367 0.25175856489837284 -0.034008752845276914 -0.5569330835240409
Ni 3.4369249978805607 1.9676352530790362 0.20286767326532812 0.8368218309997264 -0.9052023764566539 -0.0036933896911871874
Ni 8.121283351272275 5.535240995190802 9.43828610861469 -0.06779613370836711 -1.1328020847206361 -0.1222544126572475
Ni 3.7863788520279438 3.6899308923893455 8.620508199649255 -0.4318193470411273 0.7166425557039529 -0.5449494287996035
Ni 3.0183348914212518 4.191192009259371 12.810343938585717 -0.49740304647920786 -1.3116145962785861 1.1305855366852917
Ni 7.517323880624431 1.0536338770215823 1.7018025437718785 -0.2571720226044603 0.4614240572814376 1.2822322864617273
Ni 2.67895059921798 1.1519355303020655 7.664635703389416 0.007814868058728476 -0.5306638654148668 -2.068487974478128
Ni 1.5179794767921513 3.7266787387071236 8.067396756553972 -0.5566674885674799 0.029232414502556106 -0.49852481878847693
Ni 5.66206531144341 7.503751862351934 1.1383895941511626 1.1764380762430318 0.6631263289533675 -0.21560782600942868
P 1.2307966879513192 2.098707229134156 6.257235107113953 -0.11092947456273154 0.18634352982767263 -0.0981184388409923
P 3.9691120589267634 5.052777635955574 6.505705506978346 0.9911206736870285 -2.8303035271742933 1.2993419495588205
P 8.12094800970892 3.301065089504189 9.160912992006368 -0.9728483577404019 -0.222122744309811 0.5037932662762679
P 1.976205093031471 2.2583950185956674 11.687488110852687 0.7691879339008365 1.4228050378121884 1.8969923082965652
P 8.636675389020391 6.038877448134599 11.568290020653404 -0.5472189415600704 -0.6510701691197819 -0.31707538382831196
P 8.434324700665238 8.975994475919677 11.102746506298176 -1.0074582345047873 -0.775952763428496 -0.9552548130283548
P 4.8531469402809755 1.8391342290096466 9.426848166791219 0.9984951117742288 0.06212582279646721 -0.4108530292021053
P 5.357360925917219 4.355388279739337 12.971696326307555 -0.1922097588004625 -0.3561600085345995 -0.49735522396040793
