# total energy = -340860.9566638793 ev
CRYSTAL
PRIMVEC
9.41303226366418 0.00000000000000 0.00000000000000

0.00000000000000 9.41303226366418 0.00000000000000

0.00000000000000 0.00000000000000 13.77692420175806

PRIMCOORD
 96 1
Ni 7.459413867735425 8.027415058472691 10.600020299125497 -1.4090146688963152 -1.4481728271530157 0.3601123083141282
Ni 1.255632608067617 0.27766844858846407 12.567833512575614 -0.5738044053580829 -0.1809663246761593 1.9260056648097799
Ni 9.244105952210653 3.6780293869327814 2.6353468656692165 -1.3080698163501214 0.7881557332525909 0.02859349536697656
Ni 1.0259452086579184 7.197298572298251 4.095549137947777 -0.4903186288286008 0.952795552854585 -0.4444810016691958
Ni 3.212178421940118 4.846167860435703 9.467102568312274 0.10938604133501162 -0.6130589799833313 1.741491217771046
Ni 5.496457778915257 7.202259240282715 2.056260888179569 -0.40187190874941764 0.641195076097915 0.498674971213096
Ni 6.17676585717177 2.5873036904777424 4.393888605310212 0.8595480689526486 -1.4395776292848368 0.34660321808409983
Ni 8.787809214930002 0.194072250669625 11.281096480811863 0.14640298487899303 2.5273049331540216 0.9334030072605859
Ni 4.128311196619366 0.9666713447145197 4.24228701475274 -0.7151741986885425 1.6623598615555177 -0.7935159691232397
Ni 5.591378795908307 2.9275942185733124 6.655838367232703 1.3006097605276503 -0.20928985421120083 0.3521711990901805
Ni 1.2151659825169308 1.6010155865988516 9.908666968851964 0.03512435450695886 -0.0746632931418456 0.2785566589278235
Ni 1.3414982880567679 6.325209375416552 9.616596580953766 0.7531460499466255 0.11786605378156476 -0.0601329607361545
Ni 2.19946793659559 8.552775213214469 10.334856122549485 0.636338262226246 0.5091033656352716 -0.1450367006590857
Ni 7.307383984211551 8.900181993674849 2.938906800705626 0.09870439325144936 0.1619015947352244 -0.700836956130264
Ni 5.988646408083501 0.8248122425136318 8.338166550131739 -0.5410909742854616 1.863702178784868 -0.29065138530882845
Ni 3.2673105517029395 2.7786894617493294 5.6154469780135745 -0.7769531796685523 0.6710435269179154 -0.6706977135427223
Ni 4.0182540238027515 8.886806074878029 8.54774112357862 -1.2363571211961675 -0.3725993850375454 -0.4152442162912655
Ni 8.790068342664862 9.419621351144844 4.843070972832499 0.11013603212715872 -0.43756267728280773 -0.6667338437989679
Ni 4.633075636845 4.891755175518739 2.3138758129082557 0.3043674493433403 0.17587296931365196 -0.306200388787021
Ni 2.0186435874844753 9.523541226948423 1.2500723299301921 -0.397827820587031 -1.3435885780820216 0.10743046027053756
Ni 1.108798718333922 2.007517383390288 3.9989177729987926 0.9412284168422758 -0.39447201674092064 -1.900096915363818
Ni 2.6919295436984627 5.4755514343355705 1.2165779373512184 0.8481611672719457 3.209839491430672 -0.32671264980775994
Ni 6.880004081937114 6.8678518573300105 4.278768162457843 -1.1071998107714995 0.19850099112581296 0.28136816023468963
Ni 5.203317129252668 7.954944123344816 6.322533250353965 0.31408236263825906 -1.4886350489331202 1.51591599613626
P 1.1820697612012265 8.542703268729882 5.790551027439379 -0.4606013042698261 0.717620603346506 -0.012371377081159339
P 4.4559694354641755 8.308864722107376 3.9444436141887493 0.24324795632420043 -0.5114623527857515 -1.6574490545174618
P 2.3873520598781433 5.151752538704481 6.064394961033369 -0.5684714231809436 -0.5060743490009607 -0.5640797218711512
P 0.05093579999531826 8.373598144743355 9.646009482758425 0.976327574538254 -1.2182714673390502 -0.7834359591794186
P 3.8361495023085497 1.9723126428553805 7.4621059949527995 0.2303032232380743 -1.1667833267620873 0.17520422538140148
P 3.229592531563 3.0056564948449664 3.468932995523112 0.9332669959033539 0.029406221076259034 0.7750089114579878
P 7.96456424228243 1.8014002166809657 12.801228705380153 1.2116909859080554 0.029185363314704574 0.8151536019976735
P 6.8857177924998645 4.887246333081246 5.700050370380873 -0.10612511119555272 0.08737174184744953 -0.1917644437329278
Ni 6.561043484871517 1.4283899885588345 11.154748173117238 0.1643495420550847 -0.918262809185038 -1.3821936920487292
Ni 4.832980202283455 4.569933016655652 4.650001210095217 -0.28798926509563305 0.03992768943287318 1.0059322847785643
Ni 4.21661485195572 7.480301386250654 13.666722190579284 -2.4240795121037673 -1.8437730439611084 0.6164366382063126
Ni 0.0065477052182036114 4.39054886147551 5.050000484223147 0.826153552652603 1.439018414347257 0.4224487044595047
Ni 7.715137714289389 4.625705232610017 7.825224067505911 -2.1836124609588135 0.029530148248633016 -1.2584423831309812
Ni 0.6250865246875188 5.107793678196989 7.372459099917426 -0.503897653064616 1.1244891939795665 0.172419977768045
Ni 0.36121664004293735 1.751200515805923 0.9323118944737394 -0.8205328640317159 0.23424960948033205 -0.031925387953686955
Ni 2.711518063766148 1.8052972120236 13.834649744234014 0.38627071187705087 1.6339232034813793 -1.548016733325547
Ni 1.5836297160726556 3.0646291417570506 11.873532020608089 0.008946667670326529 0.3745068864729034 -0.02664717027388314
Ni 9.092725567910552 3.717357035583809 13.418876110697422 0.3288199259587498 -0.6507233273033245 -0.3863226481609089
Ni 2.113828169379925 6.012762596653135 11.944428155444122 2.6810052230253762 -0.8162936291393877 0.5204272752885231
Ni 0.5832898376829336 7.539415228646167 11.870073672567306 -3.4971183607228418 0.9196427202517001 -1.4014957348114507
Ni 6.7330101706555325 3.4629133614129324 12.018891829494786 0.8025446549844113 2.426482465118305 2.0052897445530884
Ni 9.267516163363142 7.468732769641724 1.8009747476242337 0.1605607644366138 1.1150090224032734 0.8691169435880065
Ni 8.570010475225006 0.6887958094170268 8.758335128415858 0.325533027677362 0.15545429644798386 -0.12862972005597204
Ni 4.369877842701539 4.96159046162261 13.306938214041535 -0.16311721230988038 -1.1443059715951776 0.6350889632001772
Ni 3.4204229339331005 6.557720684494826 7.488323172315854 -0.39398067892679894 2.484313002973528 0.5614284002912331
Ni 4.031291073439342 4.4840390975698154 7.412880542913415 1.6096057097819376 -1.8501671204129102 -1.8099183001951928
Ni 4.358280986995922 9.351753388776748 12.167393708539388 -0.11993116384070956 0.6019358734869763 -0.35376836837397135
Ni 2.7079411115192853 7.521153946122713 2.3056092880051122 0.6083530898672297 0.11343064371803045 0.9345533188149453
Ni 5.261263755651837 5.649494856887589 11.297518456837851 0.7106940514300019 0.3975133746704057 -0.33059347291940483
Ni 0.021947425944168403 5.308150069182418 11.25279902332629 -1.6814086506568526 -1.600094684967709 0.2624911208245285
Ni 1.9929177704037528 3.6270860565116805 1.9675788289476253 -1.3677242947879606 -2.436224889217049 -0.8446564965527968
Ni 3.2011934133293596 9.06479710128834 5.995262828436973 -0.3194945347927659 0.19106304679052902 0.5858587654194555
P 5.541574442386865 5.566839020888386 8.4529283564562 1.2243004471419496 1.0569743389570443 0.8000632833234544
P 2.6560188257464117 1.1966317220588472 11.452798660390256 1.5949326811507951 0.4815141431630932 -0.04012412171439541
P 7.343257050034688 2.486424224083999 8.965167685574551 0.03944303648697078 0.445145117615756 -0.8531771324292984
P 5.275853955606143 9.517328625677555 10.18839404758882 -0.41831976989279573 -2.045261142739703 0.23183302961903945
P 5.802607239117751 8.701472883329423 -0.010135011800517294 0.20842519221806038 0.42717259229773524 0.5438294562625473
P 0.8409169993535177 9.170110105861747 2.987815033558907 -0.7181399661850858 0.14987114593325154 0.1204142741247152
P 1.691427761154409 7.696876431765935 13.541793368144727 1.2704283518482637 0.04810251193418168 2.7323002737549262
P 8.058383934504734 5.835035135145225 2.670436767210935 3.5869745595550415 4.018161158108176 -3.7342684316794204
Ni 7.237012155270651 0.6602103131452604 0.7939092577071879 0.21664500902469142 0.9435604074095622 0.04041825591604652
Ni 2.052775242345324 3.3728494690498327 7.684548183456156 -0.5077851610444803 -1.542926206176517 0.977125387849201
Ni 6.858288216585768 4.338108858930065 10.011800856464456 -0.1964147980207456 0.7627532340190863 -1.53293489929176
Ni 8.8769506301347 2.8906480670761168 10.644892223759161 -1.8610351734756656 -0.33235853523962755 0.6375086283852633
Ni 6.205287344824381 7.879065670550193 8.597062588546736 0.25302868986004806 -1.4436494853613655 -0.5750177089398936
Ni 9.191487102052863 6.0064276259632985 0.08306342029470117 0.7934905152019431 -0.253538282506615 -1.0155826633841347
Ni 7.7702510179877535 8.03925665301625 13.349687499907652 0.639715406228595 0.21424642688552778 0.05763564823559751
Ni 1.146441434216033 7.560528659934882 7.611777913903413 0.0009183980492113215 0.6567283958468237 0.525455838851366
Ni 6.903546075540804 3.2490775082761703 0.589738706062737 -0.444431379378183 -1.1069961794011256 1.7779931693518218
Ni 4.472112785736199 0.26841732051421086 1.845997280773555 1.0775873872217054 -0.9669204222917412 -0.5251794452615278
Ni 5.029496076119621 2.229740248242719 13.114790928462657 -0.6425852715772223 -0.19798034273565257 -0.3666354541446266
Ni 8.965197807277685 2.7998311321347304 7.361478797822782 -0.28120078141888993 1.306441536718079 1.3405798731626848
Ni 8.529336762965292 6.463628014337892 8.850241151186092 -0.36520746344884847 1.014890779523433 0.21866075390313952
Ni 3.5906011435936858 6.717450428381682 4.990456466254788 -0.018668780054096883 0.35774946450890643 0.3270834028836173
Ni 4.240806344783183 2.600030110050789 1.6024491914072654 1.4367028788402032 0.3919646769380346 0.5696129929845545
Ni 6.725912744355179 5.570519516489763 0.738893849544001 0.46283713557888034 0.5853463445594113 -0.24437281395726304
Ni 3.6728333931426027 1.9197596839231914 9.551238132977812 0.7242810460858171 0.4860102312612339 1.1150565878117569
Ni 6.9807611789118855 4.56102828816741 3.4699251291200053 -2.8619334953747484 -3.421240735557921 1.6488559135318122
Ni 7.502506729277886 1.1073114592418059 6.660110001258035 0.4093558758312885 -0.3014533610203389 -1.8153266156949577
Ni 8.735312734191185 6.660642778882172 5.639308073409815 0.3023457909276212 0.3291053184096525 1.8149908296220933
Ni 0.7032532856169103 1.5180208814394192 6.16241851344896 1.3221617756668134 -1.7977078741719297 -0.9107263915986767
Ni 2.2266433606395144 5.328661066408504 3.764393016326825 0.3258873256929872 -1.9514017362853815 -0.21252944419442107
Ni 6.075481630392197 9.367294304986142 4.893274438920432 1.9376625323224177 1.113742496986024 -0.526039479268978
Ni 1.9289938685394332 0.8281472798322195 7.919293205082274 0.7226216561055232 -1.326846325626676 -0.2278755876331882
P 4.8145212460832 3.4827748594152466 11.00841035018199 -0.33858446154468136 -0.13832406452560048 0.3546466572138666
P 7.428510882928981 8.186881237457147 6.558793770168885 -0.9306925503079585 0.8177429599914047 -0.0413263695526127
P 8.574114557276669 2.5793214391479022 4.774930032529773 -1.5898364975748105 -2.1411221530050866 0.09800068231620541
P 0.7944062658088572 4.102030010637157 9.514233620680798 1.176736324209741 0.09691104879645246 -0.8950156657316392
P 1.8709060466568361 4.515384494891003 13.425240261787168 -0.944118079685245 -1.8282826616349932 -0.1926509601029392
P 7.733210736168272 6.330414782238959 12.11147276667581 -0.7599841559143815 -0.6467969956657247 -0.16558290024155353
P 6.389180342442015 1.7748366397318993 2.442620678608279 -0.8956586986322768 -0.2376090128708682 -0.5671311071029652
P 3.596352506285351 6.752561038594303 10.511944439169076 -0.7610267382462829 1.0175919805046798 -0.7857011010645114
