# total energy = -340860.86628548556 ev
CRYSTAL
PRIMVEC
9.28969633631539 0.00000000000000 0.00000000000000
0.00000000000000 9.28969633631539 0.00000000000000
0.00000000000000 0.00000000000000 13.59640960509524
PRIMCOORD
 96 1
Ni 3.03572413774296 7.866431276694998 0.1539451323229449 -0.3322711177321439 1.8231214291490279 0.014154694233827236
Ni 8.526529231477367 7.912833310050445 0.9800332397383025 0.027103026864379133 -0.444713429394976 0.8329451216531397
Ni 2.3482401580693284 8.114716991508013 2.4845395121422897 0.4737872068324807 -0.8317714130600127 0.2274259016902793
Ni 7.021124645434647 4.74899496970389 4.727635170846197 0.7359014039335648 0.5569551950112278 1.1172050016133277
Ni 2.3420903790740724 1.0363306576643634 11.390188684132657 1.8401588442472887 -2.2066186920459994 -1.0031729768658721
Ni 7.900375827221685 7.265917434413497 9.201873435938005 -0.7395258880600296 1.3235720257507784 0.5609229214097243
Ni 8.090480173685318 0.8115079289666344 6.640894586205735 -1.9151784922872883 -0.6786853597338891 0.8094717211215479
Ni 7.148049766903207 3.7699631592339995 7.544144769588462 -0.6247886097154337 0.5854522740096562 -1.2059335145989876
Ni 7.272726781850843 7.337810394601244 6.905874814360706 -0.06153935416537788 -1.2175667279625417 1.8691498321630005
Ni 2.663309500067989 3.1216724085346685 8.527137706589436 -0.5061885059813218 -0.25280526099533235 -1.767794117331633
Ni 4.64935368646655 7.483853711194031 8.023676109167663 -0.40062158128208425 -0.5294060817483657 0.28886781104584447
Ni 5.425935144000457 2.4130822387141766 3.236095456631906 -0.8599206218007189 3.132652146315392 0.21815450369068234
Ni 2.470548300443263 5.0046288343435625 11.798651988561543 -0.4141119024590353 1.3871168403819594 0.957508899169854
Ni 8.742663307162614 1.4906432585148317 4.785432874735602 1.1580423473446637 -0.18899408007664223 -2.8976242639081384
Ni 2.7147929973364344 4.919590953795865 5.371125935432462 0.24372438173998673 0.05390446332793942 1.602710525324001
Ni 6.794697586174258 4.837832336065878 9.71694622484946 -0.27320233659444565 0.6402167713450458 -0.36849744705402987
Ni 0.22018902814964167 7.772363811278132 3.4172129508296614 -0.7808494293991649 0.3961059527999178 -0.2860910196316557
Ni 6.101732685643827 5.247192096194224 11.900121484044 0.4429110860789146 1.095359623603462 -0.8500074764520651
Ni 7.082678173565414 3.8569332966261287 0.09632950648234191 -0.24705755987827774 -0.9317672714293759 -0.3144459166252649
Ni 0.2045934858879554 8.855514538634479 11.978763408642704 -0.27932259055957054 0.8306288148151373 -0.1457707506116328
Ni 6.224115145588701 6.993088341797662 0.3670461221442171 2.5078005445725067 0.9894944509375153 -0.7689745323384498
Ni 2.8167938634511085 8.643440060261808 9.676048336591734 -0.1861524968627891 -0.5296441659011007 -0.08564164653022024
Ni 1.0191354296882011 7.084127366198738 13.081214409172075 0.3895828069694194 -1.5098258240781224 0.2782532687547917
Ni 5.142144209671024 2.684935913211428 9.074760662602822 -0.43086701043018705 0.8621767648247474 0.18130288207997164
P 0.16782115178701493 8.218473610236137 5.942514721662714 0.38666151955756634 -0.0285461870688089 0.05048978121943562
P 1.684286979294466 1.213401560124455 9.127527995909249 -0.19559024523692123 0.304022921519728 0.6380681004331591
P 7.633826569350251 7.3886343234276 11.54925243915407 -0.6932223770077997 0.8428155866893162 0.6211767239944592
P 8.692155228012751 4.660928648140401 6.286952509757452 -0.7541078996392626 1.4275191554584061 -1.703781104814782
P 6.128561328753042 5.751473973805242 7.892158161815033 -0.927446532566835 0.688514430009169 -0.5243919163632259
P 1.878413764285208 1.0066872365558093 13.35057287122503 -1.3051269316717133 -1.0097675993642548 1.812614616080433
P 1.1737624257245172 7.271509831626705 10.851172631803719 1.908237027972449 -0.2286335488451353 -0.7393045160778429
P 0.7405039927212529 6.323124729473055 1.5743415648463428 0.7346377067297929 -0.35570749437821314 0.3911869182317457
Ni 2.5169874925841795 7.572774684823326 6.323635662773265 2.531095253434389 -0.013375135755325352 -2.384495836273874
Ni 7.058088347280757 2.6502203178862427 10.515259069095759 0.8897433615891064 -0.31242914330555227 1.400648042099175
Ni 8.265897510192003 5.763262598495544 13.09391342410639 0.17349315622756573 1.03433988938698 0.5051587791652268
Ni 8.56749679245785 5.4826394506274125 3.230275461857694 2.6475202038940533 3.3276708353195597 -0.5318208618374454
Ni 1.7503088513779805 5.026831208661784 9.590852531205787 -0.3095212256301379 2.1862285584254217 0.07492554566429677
Ni 6.3357401371400615 1.2325847831232528 1.6058308486231108 1.57690333445291 -1.5244155489668392 -0.7964899641498993
Ni 8.871260573977317 5.429846106171157 8.39525281623029 -0.24004487600587046 -1.5531579112068543 -1.8630642880905528
Ni 4.455180452993971 1.2707561454971323 13.541901599669893 -1.669680563586647 -1.0076767782734968 1.799865543944881
Ni 9.190965474463338 9.120707500836263 8.225990832536683 -1.3655771665379708 -0.643392083749234 3.219090063494663
Ni 2.7621797385068305 3.0173119595426603 13.085660457853542 -1.093623871859278 -2.406858263129474 -0.3141065310079752
Ni 8.89411322704126 5.779909734386027 10.674350693206275 0.418950204387943 -0.894085697718202 1.0479435962133434
Ni 0.28061385817176354 1.9807119006836407 11.896885882799213 -0.9776897449931032 0.9852521307213935 0.6889132081094845
Ni 1.6401237627635767 0.39505176978318873 7.135749279943058 0.7091850709846431 0.927170653197629 -2.594865296702499
Ni 4.901949820394065 2.5430729599839976 11.626398722637614 -0.4359642224474362 -0.1701887744446811 -0.9493924407103067
Ni 5.839521715975995 7.912443142803011 10.311598268723097 0.9884737229824849 1.0972943787323295 -0.4989392806180762
Ni 0.6406759865869267 6.036946343177186 5.064785192140666 -0.9297556403159858 1.2942797045445644 2.028852362364377
Ni 6.377701695631863 0.9355653211665609 4.347275055868141 1.1966142940805908 -2.067796347727742 1.5377354060041968
Ni 2.9578114543091 2.7603125095369716 3.4965070121133612 -1.4966183242489128 1.6371563657066968 2.9658595420364535
Ni 2.304448529393138 4.743253937348801 0.8163395000473486 0.7067900883899053 2.2811544584710455 1.0016434275952233
Ni 2.10300146366484 3.034172758449594 10.60398960394952 -0.05582533449973612 0.20965212264662603 1.5381742933138283
Ni 3.8264166440590337 0.767225804322242 2.7102949263553113 1.20587823588102 -0.7432552731954748 -1.2404649727169539
Ni 3.7156463045734807 0.9209284755699962 7.893055546484129 0.9647285568467451 0.20187839223847814 1.3301285959223736
Ni 4.767722997580683 4.758117451536733 2.970366478949718 -0.2647650044603698 0.22263387961827463 0.43830701164799996
Ni 5.79041638097762 1.685791910105994 6.9964679333361435 0.7330978730464988 0.906444219283555 -1.9901896556868564
P 8.854501961730424 4.019400796396578 12.009763125420907 -0.4871695416766578 -1.1633874137066609 -0.15470070611141098
P 3.9905562891756254 2.9053896977075424 1.7628564442615042 -0.15912248932819048 0.7821843461605045 -3.307333409313788
P 4.193824135391945 4.265828571936101 10.559420427687375 -0.25427747466548467 0.9384642238335773 -1.1997548965921014
P 4.832026275836218 0.7796730684849971 10.082526432906894 -0.19754994006645335 -1.3546062693487637 0.06429454831301186
P 8.950631739740867 2.041949579137915 2.597608122509152 0.10506067448678034 1.0475854415429764 1.0233592220057601
P 4.614916782032388 8.828128513743215 6.4422232817520335 0.2020483421574391 0.3529420158179341 -1.4427462568208056
P 3.346176500646994 6.4920857270043575 3.8214067108080645 0.8718675097499501 -0.07174174861967644 0.3991228852493707
P 6.396615517436005 1.8633180076880909 13.054266857949358 1.373227998215009 0.4641638248101038 -0.35656829971661175
Ni 0.13844248702493323 3.6692256918252992 4.252100258644274 -0.3276729568385002 -1.4542354884073279 1.2033210166768051
Ni 8.96336791346065 1.0351508662256965 0.8067051559446593 0.1515282219207003 -0.3433047498384862 -1.3698066312382862
Ni 5.053241815434463 8.391122617225319 12.42532375787453 -0.9681818055026681 0.18473324791775927 0.09772840249142524
Ni 4.133552585359886 6.611783464699036 10.197973205543825 -1.6356124182583442 -2.3237262703949852 1.2070781697263921
Ni 4.420195456474129 6.186677669227851 1.112908411730219 -2.1517909455728423 0.2952246065018077 2.703532200483299
Ni 0.37901125106550126 3.6137754942079505 1.1120296064538575 -1.3760302435504947 -0.45995235783191757 0.06524817047553279
Ni 6.2909823800416556 9.116071942348903 8.18845116951579 0.6373075681180509 0.044996362205032184 0.9420663393625388
Ni 7.464884151211684 8.078301381747583 4.955606177642857 1.0393224302032358 1.5646818526860535 -2.187510253351323
Ni 1.1802559234853696 7.084805514033562 7.884966078887349 -1.0198566081691403 0.5277559477394523 1.92760617652768
Ni 4.514690247923898 4.426178020934771 13.25486763233858 0.6817174616919937 -1.9578690891772796 1.2029245525693346
Ni 7.304581150694851 9.214208294774714 13.005142943558248 -0.22392225941239502 0.020301687671829556 -0.8320321229205669
Ni 7.5911125454526855 0.29588890590877254 10.33762242412689 0.27608222924540193 -0.024089179738719803 -0.13764529329102101
Ni 1.8877684885272368 1.4357411529831627 1.8912465508472125 -1.9242362316141828 0.15917648249457747 -0.8723156530309623
Ni 1.7392448230043396 4.939461614325855 3.3719777033379676 1.2699850936632577 1.0964947656491697 -3.499854528707082
Ni 5.007294977201023 5.454844679095983 5.667568507244736 0.09664391117799485 -0.09763147190224476 0.9551038892727874
Ni 1.6497107294147921 0.048016582584110026 4.650353257795689 0.20535298105063987 0.36752711272096056 -0.39177338686283497
Ni 5.88775381951583 6.861453344270801 3.8051729664059337 0.8994860427981669 -1.5470194024092838 -1.5834573335213438
Ni 7.2973537669209705 3.9177250696547654 2.510481918218049 -0.7306653523456063 -5.860547606134403 -0.05196379466180082
Ni 3.9493193270004854 3.2263115484177005 6.655904877596272 0.74794830779577 0.6675864216072502 -0.8719927224739047
Ni 0.338549049567407 2.922222627525374 6.853855301611859 0.3305083694047663 -1.0637427680291294 1.3669591344871619
Ni 9.196046938376336 3.266981839114426 9.486650007052026 0.3600696280016508 -0.15611661262233115 0.46731291196204683
Ni 3.8602868770147807 5.2284640683174315 8.131727354526463 0.5102495634245728 -0.3734095396436666 -0.15661232131182706
Ni 3.7315223956654635 1.2650894307129839 5.382342314826531 0.14563988146072337 -0.3301751544350636 -0.4277207514917215
Ni 4.546312374358721 8.553794490315852 4.108875435929374 -1.1771122194919212 -0.797331486214588 2.361023207073231
P 6.993246266635909 5.739434527313018 1.9313696784278946 -2.2446602201997536 2.7872334354576966 -1.6307401777677075
P 7.472473833143896 8.722068050315961 2.8096844588210934 -0.3325943053995175 0.3063924501931691 0.3593011252667425
P 7.746798566874892 2.011572272016332 8.508089184187964 -0.40410619739657494 -2.3026823052404923 0.47317631272135935
P 4.781583224560928 8.585045028895976 1.2909129286752399 0.08623762824300632 0.2842259413984589 -0.08048864157437105
P 5.829711796611962 3.1338233313833017 5.215079473791199 -1.2029628620064379 -0.9756948260502616 1.335663409697674
P 1.6957504646119075 2.273281598080321 5.346339167584816 0.6219436840674708 -0.6048543326853518 -0.5329925135480433
P 1.653816775209208 5.052833068794295 7.483069660820617 1.0654399532258942 -0.9265808421324301 -1.443680852819933
P 3.9873141851433833 6.323858615486084 12.63018107113932 0.3149933044883027 1.3273286645797335 -1.8467259559418454
