# total energy = -340859.6934996033 ev
CRYSTAL
PRIMVEC
9.35656696454675 0.00000000000000 0.00000000000000

0.00000000000000 9.35656696454675 0.00000000000000

0.00000000000000 0.00000000000000 13.69428152889316

PRIMCOORD
 96 1
Ni 7.782249669654408 4.810426246253926 5.383577722449853 0.4231716986684583 -0.6148803494627861 -0.7668528580097568
Ni 4.544924303793267 4.161829028486345 8.361892731968153 -0.6632255735353934 1.055656134366253 0.4579636095366629
Ni 6.037034741067239 1.6911339718835245 12.60950276582803 -0.18462320470245622 -1.1959265239849468 0.3191253243788052
Ni 7.230773616347696 0.5988427376002285 5.108966226451708 -1.6179479110990458 -0.2715367759665646 0.5633395012710168
Ni 7.233571229851917 4.901390789692132 9.808884867975577 -2.4398082356929334 -1.4897293104385634 0.46466441859560614
Ni 8.080424743742944 8.747660242782784 12.611132679782662 -0.7887740835628803 -0.10533758229725085 0.7241352645365722
Ni 4.370162347165124 1.638933685127533 0.5859821363910315 -1.285323266682225 0.11638381280908344 0.21680801696511695
Ni 6.932654681660583 6.439498109864912 13.338311960348031 -0.8165219431001098 -0.6032245103914127 -0.46588672103848144
Ni -0.007804312454413438 3.779388712862685 11.175683740364386 1.4761109483241803 0.3701583796962206 -1.5276476827508918
Ni 0.41692207163403033 6.148742793331047 3.9317650831736186 0.43319283034988615 -1.494667371170129 -0.4426922851998892
Ni 8.457063987886281 0.6380495598969897 1.430504929466336 0.18328905927206499 -2.304544812370528 0.7306712658828771
Ni 7.156220491258659 9.59955694623493 10.27434038779602 -1.7679877213996775 -0.4604907468338908 -1.2283419642011748
Ni 4.593615877960355 8.53303931114469 9.419310170087812 0.14454253463148656 0.8041022292795184 3.0424406210263024
Ni 5.452810703597422 1.7195498655701973 8.931492455367417 1.1118666201195497 0.276590279230072 -3.0066084418190413
Ni 8.173007973255496 7.272195138030574 5.585076069005447 0.4839703180130696 0.7527228463662777 0.08893060169413716
Ni 5.981700004398493 6.554303185773859 6.016582221472343 -0.04078720921969105 -1.63793849528836 0.21629791009791782
Ni 6.215548681023784 3.3953858505660994 0.8150580282387221 0.11926370546003978 -1.33316789696933 0.3540843569524934
Ni 0.20479747204585394 3.866956822514831 7.035588145482059 -1.1437159034196624 0.016958225120893376 -0.08786719342662931
Ni 0.13585360881561126 6.323420540857056 0.10773993223992961 1.4628728523673515 -0.9229676708598751 -0.1658227841665015
Ni 5.078248617306714 6.055579456670461 11.321952143800555 -0.578887733418261 -0.46617879835760356 -0.5705136504219529
Ni 3.8370251649897518 2.7881633716468768 2.4612458596867284 0.07422723404569152 -1.6436226901573308 1.8920475626967803
Ni 5.0396621353956705 7.484336579439177 1.4196176282171387 -2.360092724839161 -1.2723664494112408 0.8905959393973888
Ni 2.7208522293413377 0.20883576632151016 4.789958756151984 2.9913129491125514 1.7865616277471232 -0.327680670147984
Ni -0.07974227709385441 2.736992307250297 1.0236692369545424 1.50147128146584 1.1107116805794999 -1.6880215279876798
P 0.7917826324089667 3.4237549614182536 8.988008926436105 0.8625706578290564 -0.38886649762868514 1.3388896299444553
P 7.791241330448906 6.2117218451601515 3.4824281211582555 -2.4366074693674493 1.0573466346947984 0.2689412473252465
P 1.7003876165513283 5.799639925585429 2.1024552025689736 -0.013956719290408221 1.3214045857858148 -1.5547689644477158
P 2.125606156058909 2.5382962524823753 -0.13613149885265247 0.5294081386308946 -1.0833217186023214 1.0189952886101097
P 5.0470351101158215 5.060246582583909 13.877922015507414 0.43032656454568474 1.5501489491772014 -1.6071225383487677
P 5.20312135920409 1.0078987434382807 10.740767119261074 -1.3754394040440312 -0.3966898503278458 2.8873629911914467
P 2.9642726739091594 3.769826301487058 11.034221805346672 -0.059336690087104266 0.6236753220465968 0.5371723559573458
P 6.638699419245636 8.335840307081366 0.6154085393033084 0.7610658190143345 2.3075681725778843 -0.7451072388025489
Ni 2.620446909897254 3.668672456690674 6.716456232842516 0.07123652684848376 0.1590317293865971 0.5463391100582785
Ni 1.8144909499424944 5.50715364417437 8.36513852502706 0.3441375301524267 -2.517918349732799 0.8466403597520451
Ni 9.107523162467707 7.90171431588142 8.76094376081603 -1.7153973488974714 1.4683475023286776 -0.19249360858946848
Ni 6.55075704691734 7.770544604457823 8.461190233890832 -0.07136302512401904 -1.6362343681130596 0.5655501357690905
Ni 8.829212079915822 8.995141437386831 3.800724492373294 1.2056843747026589 -0.36364706094026406 -0.5699240964670701
Ni 6.483043572234941 8.297637444413375 3.468611278811496 0.02270798312047702 -1.1760164153245811 -0.42977274892474376
Ni 7.92038066685439 1.6235421325708732 7.11527428317449 0.4224597602030982 1.226046740409095 0.4468939819860626
Ni 3.092962895103264 2.267283292115411 9.486316288312288 -0.6955553960163504 -0.013600878612886254 -1.1003146536158923
Ni 6.142090274262484 3.956106191973711 12.306119826600868 0.04404248293219512 1.6800151127434355 -0.42822263082880446
Ni 4.349924092952324 7.368118661927764 7.588014825986191 -1.4580366073209727 -1.8158207817225567 -1.6725229181314485
Ni 8.206064724126426 4.40790673805483 13.132651812833654 0.716096967613128 -1.2948530605495314 1.1206579931589344
Ni 2.45795141247992 5.796748746412172 10.77214062374602 -0.49513019128463115 -0.22486945381701273 0.18005435438485118
Ni 7.656721968073769 2.430003347138435 10.919504681166618 -1.059991271406497 -0.24916689291179667 0.3019812084993509
Ni 2.6099020589967337 5.0090287353528105 3.9353121576868286 1.0790508591411094 -0.7444552070408469 2.28998902604354
Ni 6.1107551317018425 2.9489559738877293 4.800708515867697 1.2590913295688897 0.19690613583486735 -0.869294092595819
Ni 5.0222027815532835 2.738002816475902 6.770575551470466 -0.08667574422168943 -0.9194840831866488 -0.33607506485926636
Ni 6.129449552375525 0.8690557114969231 1.8595605970611424 -0.7161450472422441 -0.8149731105557513 0.1535118280096324
Ni 1.6544094467863268 2.0838945808020153 11.483613971106767 -1.5028869308664439 1.5140635163085538 0.011596960808980027
Ni -0.061053470360314784 5.791752339685572 9.745042205021257 1.9559099085683798 0.15388695196086402 -1.5352218955537238
Ni 5.263143735891613 8.33662625870128 12.13159926939884 0.180289867434425 0.9362936985448198 0.3155247515117405
Ni 2.52004159045317 6.1916052263171 6.380631269190002 1.1474046651251593 -0.21656221950289803 -1.9707801408119932
Ni 0.7477019744120448 0.5941260922240508 13.517063557103931 2.0590445696770407 0.5108383460485073 -1.5086672849936469
Ni 7.142447624776346 7.146386739442823 10.673583226265425 0.2876020569595434 0.38811213596116384 0.4975228598865238
Ni 1.919902032680082 9.314920824456113 10.807663765652777 -0.4109435320333826 0.15302666084309774 -0.843796976765979
P 7.600077312038499 8.927325040468489 7.301366106666378 1.5149150656755717 1.205336504444937 -2.6389144645029132
P 8.560098502630318 5.762419502442333 11.58956586341139 -0.5424428603276658 1.2884669545175294 2.373266028996326
P 4.729922344614107 1.3965424629191234 5.001726870541128 -0.8908741327594399 -1.9514421026050135 -0.3056200908035188
P 7.624432455688946 2.342547516289133 2.2403157949854378 -1.0631331594695883 2.2056223895710017 2.7622865357043715
P 0.4740495265215338 6.6785116114210705 7.114000854418891 0.00480127804338528 -0.05412840641328742 -0.6093059406988023
P 7.1537877838636845 3.6329584408190803 7.321894414453194 -0.5008195283599246 0.2800278441567112 -0.30597258904693114
P 0.7687523786320896 0.7098200419888537 5.259371168116022 -0.9704322920997416 0.6145170525860966 0.4969939839662473
P 9.031304568469803 9.088753889258797 10.706011215840425 2.8480413107736884 -0.6041573066183273 0.3605614800364048
Ni 3.883901565177513 0.2245978389275584 2.676794027104985 0.9160984545438674 -0.38589018860918056 0.009988478671279572
Ni 8.419450588933227 7.642499986380077 1.5082196385121487 -0.30564760160734455 -0.486150099273208 2.3025442370007316
Ni 3.6839049476099706 4.793172736883421 1.7740808731419118 -0.31168378049909545 1.8339529725468933 -0.5900000412813386
Ni 4.046499984830788 0.2325462425122895 7.075588404652257 1.4406243253817963 2.2226029832893976 -0.9805169300292534
Ni 9.360309530506177 1.315673655170058 9.146246250255546 -1.1069115901071194 -0.23295531614894074 1.8631427067369717
Ni 3.3197099374486125 7.205136623031436 3.6502793174712926 1.814903669224926 0.4949946941480313 -1.3049518395464301
Ni 6.353342841815231 4.320310558701973 2.880414443034348 1.1527787849528792 -1.0010363901388437 1.480390549536141
Ni 3.379816523238268 0.9435442762743248 12.361540643685128 1.6463732563192741 -0.11800515046259032 -0.9755752697532618
Ni 1.5541819021134138 7.792775807421121 4.820441515467695 -2.357882861672036 -0.4507748050977075 0.24459984236640456
Ni 1.0347520904520278 3.8901985347037327 2.62665873466465 -0.048399731459626325 -1.219614611630506 0.7719359289596189
Ni 3.131352889109328 6.236685165659342 13.410577404829104 0.9439409306774325 0.8751502942662799 -0.12229606452846034
Ni 5.0039761892247885 3.4172240777194394 10.518235210305862 -0.19092883520550988 -0.21533503196401624 0.15365272446287087
Ni 2.104291896652178 2.572541287350081 4.594390601699985 0.34367010359770495 -0.6646718190636165 -0.5377408268663062
Ni 8.72144314231849 2.432192783793911 4.249089307087358 -0.03246737650008602 -0.2614696215385497 -0.2356608880055619
Ni 0.8158776634994901 7.540522763696164 11.979674821269358 0.32701526864984326 -0.22175019146174071 -0.8067957169512815
Ni 8.346937195429208 4.969132334075244 1.8282142266202168 0.6861032494645152 -0.030803358534101783 -0.7456062899261545
Ni 7.887464264487017 5.668881903105596 7.64937893436771 -0.10864196408013548 0.7310566742467539 -0.062304771576492696
Ni 1.7940374946909086 1.2507203677242624 2.5542164510690974 -0.9276645621149121 -0.36070289071027556 -0.6373386784663023
Ni 1.6818335443812025 4.582706120950588 12.955871644724372 -0.6830683192929333 -1.444090429553526 -0.28295555932646754
Ni 3.1596003645917334 8.671123525510152 0.22529677447526814 -0.7890083110608734 -0.33551147904631246 0.9799235194196285
Ni 1.9515365853816429 8.423483269268742 6.933934660013016 -0.6043956478813785 0.8700829070457015 0.9289352012972195
Ni 4.802548016920973 8.292070287105647 5.38264674404293 -0.2471105246034002 0.9922643003731684 -1.7011367252133993
Ni 1.9660486206493508 7.611136774118725 9.21374545955585 1.2823693262602236 0.046740341479332405 0.5798824932313625
Ni 1.5396792234126095 1.5327834336045496 7.598039451766862 0.49552099896514656 0.4604979459227424 -2.1061731477337275
P 5.322913485272733 6.04655972617525 8.940503764952414 0.7261013871240076 -0.37821930232748413 1.8294918514517462
P 3.278353911734061 7.678859605368029 11.371457739288267 0.15280914551565297 -0.08175645254320113 1.0174050613048544
P 8.125064924440709 1.609002027602454 13.215104687359522 -0.18084265461410146 0.8148309285509321 -1.7464498473279018
P 1.0969545472281226 8.563850485958719 1.4396247752274158 0.5785473193597068 0.58325243814486 0.1638764590734081
P 0.6974441109452707 4.1109760873644925 4.974557271566035 0.04776312631689193 0.5037233322702809 -0.8734896187344052
P 4.155737903432007 4.74432210107897 5.635388200560262 0.7844044937402749 0.29322325980106273 0.1442093196617839
P 5.115440970749099 5.86685750222193 3.1041926467011383 -1.9558584865051543 2.4133125033952503 0.7255617125704537
P 2.8631936816480055 0.21788637348750234 8.723682168778558 -1.8868295088309504 -0.09468781589288854 0.7334511426208594
