# total energy = -340870.18936642265 ev
CRYSTAL
PRIMVEC
9.22925749800684 0.00000000000000 0.00000000000000
0.00000000000000 9.22925749800684 0.00000000000000
0.00000000000000 0.00000000000000 13.50795125597426
PRIMCOORD
 96 1
Ni 7.8361471850239806 7.401273803192244 5.454902778399073 0.10964058054797891 -0.5955315126225292 -0.9513163972058971
Ni 6.2288996877118255 0.42214069825239336 6.703617619810843 0.2389056201951047 0.6840270836617768 -1.0336081534272779
Ni 5.184323100154837 7.903843788426765 5.1356821446110485 0.889318615346862 -0.8002196063956606 1.3646896217266948
Ni 9.218376156424304 6.307034581291646 8.29593494734458 0.026660797120637958 -1.8318382401967355 -0.9819397785187088
Ni 1.8540655293231505 4.735338183680584 3.790722760649188 0.505797184080174 1.0508710542727837 2.4171683868062304
Ni 2.500953413318317 6.884444615195991 0.1635424420309932 0.4302435179135751 0.4648845050262123 1.9801975774711509
Ni 8.43870694548219 0.5894809797244561 0.6774727202618991 -1.132455500014495 -2.0173127371558937 -0.05621845617309673
Ni 1.0680650477696794 4.164683966230339 1.6740267125243131 -1.215278189038681 1.1684206052551942 -1.0405084800915372
Ni 6.072426856888268 3.116028046880027 12.490761668409752 0.4120956433599548 -0.7926623628736928 -2.897638919196158
Ni 9.125779016418832 8.609208247631207 8.83275470697961 -0.24183616357833837 1.7304930668883296 -0.5623313717214766
Ni 7.594875936741011 7.853110560218843 12.63143401047727 -1.5593357578827918 0.798519078764786 0.3328305897800397
Ni 6.452672263867778 3.3465287517177273 7.2023851509755685 -0.08354799722598513 0.9775958997277164 0.9611837769182802
Ni 5.961795747823622 0.7537959106040947 13.208709297222832 -0.3177623825930076 -0.8258306220955455 0.9996377100191043
Ni 1.0450472796869876 3.3973819602725115 12.65559989818686 -0.830282487219312 1.097827368417664 -1.2082068840141966
Ni 8.030376908079413 3.929264067171278 2.0700799916658257 -1.7394291930356947 -0.17327204135569513 -0.7243113851031202
Ni 8.112009690233144 1.9868376270126462 6.415560496731727 -0.15835964302023695 -0.6370946807762963 1.3442100137161044
Ni 6.654968357935347 5.705896126480883 9.151326523968832 -0.7051702933982952 -0.5648955329042271 -1.4833334342145486
Ni 2.5374643557943104 2.047833789506034 9.870772984191948 -0.9982382585684162 1.0105882954933372 -0.589958646520442
Ni 4.138629772446283 9.13307935906254 7.526103201919445 -1.0813463400435055 -1.3684015233606435 -1.1710966094254605
Ni 3.2014725123610055 3.9507682370320123 2.197945816094392 3.1815416729272434 -0.5105151583811336 -0.7995374927269714
Ni 7.612245399263715 0.5632975763360856 4.612992378133438 -0.4989210257856311 -1.038522817120076 -0.2716360205485902
Ni 0.4169409346045231 6.795889889954041 12.692300963366344 -0.01672605450542926 -0.4258078507397247 -1.2202057082472855
Ni 0.5888589277722616 1.8428150644904313 8.150657205809035 0.2324223264636062 -0.8514390666922691 0.365488485024377
Ni 2.319653879951678 7.9698883547458275 11.565885781214465 -0.7015653496558563 1.0394669262009 0.1365417758141971
P 2.5693606695448246 1.3038356586118778 7.710297953348449 0.5718171997247249 0.49592311949957174 -1.210309017958864
P 4.687290669390893 6.929787957052554 8.06819102170748 1.9032974245789869 1.2864015873480683 -1.1354171537459798
P 7.669586775806524 -0.012345054766402738 10.321749574424118 0.6668194615342387 -0.7398146229450421 0.5810070937541091
P 6.505648201636283 5.179376218161123 3.8208590550038037 0.03734733030020665 0.04885944470486424 -0.8416238803740602
P 4.308383504741771 5.565334535502777 13.561172793423466 0.6999057025652462 -0.05755902936139119 0.4334278291788278
P 2.7379792031738455 2.9480924783023776 0.3975318061851563 1.3686059260619656 -0.4770033997769334 -0.20909676436378827
P 1.2614087621098191 7.257306616214734 9.806259551684 0.2070185416785209 -1.2056586636710462 0.43286501469682226
P 0.9347115068607731 9.368342360744936 13.10090234093818 1.1124931979599548 -0.9766715881412341 -0.49124782551108936
Ni 4.715550655705729 8.032038174420585 12.178619875086612 0.251782733268089 0.2709665052853914 1.0581223365185584
Ni 4.018935532564796 4.107970179194197 7.650808928596803 0.011041602526142273 -0.015174650857909353 2.096168214002216
Ni 4.732827825653924 1.9962330110977224 8.588909418793568 0.20878900331538236 -0.29469470214026666 0.36006937089133473
Ni 3.2427457516816935 6.704086466089351 5.6540230849777675 -0.5343878512336733 -1.6422425219803525 -0.14123481041449226
Ni 5.392295187554748 5.658337762836092 6.511332501300328 2.329044340173789 3.741549795832182 1.235992795878213
Ni 4.2405115454474185 8.15403049940736 1.2213297887032846 0.9048395938005965 -0.33042352300044386 -0.10998973635728154
Ni 4.593595247748757 1.5095096609064986 1.7036904688974404 -0.6867390832763013 0.6433414330169566 0.6212260891751559
Ni 3.253885465425001 0.6264626143304489 13.48589250917323 -0.24769982144796693 1.0100823023911958 -2.1088779482594004
Ni 8.055203610622492 1.900479465044023 11.588133829225747 -0.1850204401408749 0.16233688250043007 0.7148481828076915
Ni 6.1541057853292545 6.056321802636345 1.5210222366508248 -1.12048495791618 -0.8278710495643421 0.09490635966159784
Ni 0.8130320537015847 1.0435890570097361 5.51699814545487 -0.11155810928566592 -0.8728147041545677 0.46042132704853606
Ni 8.775971700512585 5.693464316694441 3.6985040201992057 -1.1810233816208693 0.22990495935839114 -0.24861384862180408
Ni 3.0983171018316367 -0.24056244131073612 5.448756092936733 0.5078355546664415 1.9004982645672948 -0.0632769056817749
Ni 5.285429615530093 4.6457866986339305 10.899606304389092 -2.1233041509870594 -0.1902320662488014 0.812337215594801
Ni 1.8095435913797242 8.998212219931677 1.6191440101664405 0.10176734844748925 -1.7404843737730864 0.8513166821817919
Ni 2.8440695175726187 5.606044790118957 11.833965253615236 0.9937982205191918 -1.5797660007126855 -1.1275783744278516
Ni 2.4026895092379563 8.968466323167236 9.235993885972439 0.19054188417973636 -0.42121714604524874 0.10884328145766418
Ni 9.23018037670408 7.04033600280014 1.5053804911229396 -0.745201084067936 0.09448007075745664 0.332063372596712
Ni 0.5555708419981427 0.5047656255821037 10.983072017072582 0.9058713774992205 -0.35206218431614206 -0.40059689869173587
Ni 6.690122599566051 7.4001939800704815 3.1504457937661434 0.39185514794336385 -0.2788572208873778 1.781640279186106
Ni 4.13514111312982 7.208742263507788 10.057371957186925 -0.30142225067208733 -0.5225317232260356 0.14368661438909447
Ni 6.537941373457189 5.4986716089345 12.946438719461694 0.5974271869833453 -0.5739766692698889 -1.9570998151114232
Ni 5.369055917293233 3.3040095626411596 3.4072729554827044 -0.13887119527832212 -0.19971558025920444 -1.1206297110241605
Ni 7.181875895068047 7.62392963919663 7.741474385017788 -0.29409126422831283 -1.6914539507079966 -0.4918142395375208
P 7.168945705379254 2.289114267046455 0.5726477370596521 0.8510490303427021 1.5149487471269847 -0.6416779292716046
P 8.786280781085306 4.975843403595125 0.0277228435311906 -0.06779921903216066 -0.005099783120410572 0.28322758204093157
P 2.7462855348797084 4.450883239784578 6.038229689255229 -1.5803090177003494 0.7562588845439944 -0.8442590040040622
P 6.20170106600385 3.385919222518421 9.527563664437391 0.707697430695523 -0.8826183205085509 -1.5025537158967412
P 3.5301355994471058 0.5510014366341729 11.105251695985613 1.0013310385611272 -0.03779084559552846 0.5365882013191017
P 0.30161490227457494 3.2014355953312017 3.7013540149000614 1.6838897652074933 -0.8941939411612922 -1.180814350933857
P 7.868135791349004 5.416374320244299 6.60378105026084 0.07223308643379818 -0.2789443812845454 1.0601355102938452
P 8.607251645051603 8.113541746970004 3.433208091845644 1.6884897258733502 0.5888412450865472 0.03300010907510446
Ni 2.666941608573814 6.437434759816244 8.0665971289457 -1.173738675033998 -0.5061489109926379 0.5899401345776808
Ni 1.310960645364018 7.8982416291540325 4.5111964372265945 -1.6139858411275045 -0.8580038643939804 -0.9579801823793178
Ni 7.6051481002839285 3.182404866467324 4.451058595676146 0.03438747634093433 1.826412184085158 -0.40580132571081085
Ni 0.7344070865511201 5.8129924299418105 5.822453341754788 0.4782354724118215 0.7214183798260414 1.1075967890996021
Ni 5.3713909194283245 9.1990870083518 3.343771972517126 -1.024724477784403 1.7563745626407816 -0.5006359515942087
Ni 4.430523497847762 5.767298376302113 3.367883407607757 0.7271048886878575 -0.8869853392279949 0.7035024187775691
Ni 4.951228973973418 3.8787246533698267 5.597492037239154 -1.9829460867505655 -2.2225765009268366 -3.076147012139812
Ni 5.860578481358955 0.8027128209456675 10.902402769396732 -1.7355612254398562 1.6613820710232807 0.4912745649839668
Ni 7.421790442505726 1.6563932932385108 8.833888982720334 -0.7038479750424459 -0.851506943815727 0.442165980382774
Ni 0.3661477162231703 0.8862062214015131 3.1280223898632937 -0.4498594923722897 0.4424850542850895 0.5819262631342688
Ni 7.062412386622834 1.418066178082397 2.427392539731193 -0.5305211691894154 0.1778933421777904 1.0099223797745638
Ni 1.4168294575839686 8.247716691792046 6.829309031183963 -0.6238627554670545 -0.3581582699115509 1.2732285403012202
Ni 8.198561666608237 6.963714707442279 10.37621419141946 -0.3300211453557026 0.47856688760931126 1.2157160479070481
Ni 3.3256798591360117 7.730749064934029 3.3131492962948443 -0.49149850806931483 0.6084302229620684 0.36040901361894057
Ni 7.791616017823103 4.204849694656914 10.7890028830968 0.039685748625396165 0.4016741909163147 0.8698270822811537
Ni 3.5834899367710995 2.760757010562812 11.844460765188467 0.42761867869621834 0.25316470121728013 0.8931109925097587
Ni 2.6023552649320028 2.3448866698226 5.083852480617953 0.9700980486887743 1.1756531184478916 -0.3252239810773754
Ni 8.463773608718995 3.7327916345552627 8.449101858149206 0.04923559709736037 1.559523705523882 -0.15468245127896588
Ni 5.551684463732809 3.665113489667381 0.9935840172146954 -1.2975403775737073 1.4207116456182696 2.0896291273321173
Ni 0.5507660905691735 3.493910763952092 5.9804969921965005 0.5464668938853944 0.16464136226389064 -0.23238864501219333
Ni 1.6273026737530882 4.007011331938156 8.386290300715215 0.4520919812472343 0.7069957766428082 0.13260927352901034
Ni 5.79672124905577 8.91240781341011 8.919530031385017 0.21783028758204423 -0.5514620331071406 1.2672432692520625
Ni 0.7651691245609115 5.261322795068188 10.603160709212798 0.1632251986426544 -0.29879124080714353 -0.014011226677427482
Ni 1.027004081370363 1.890567242541693 1.0855314174956192 0.2245678634161939 0.7670834859633241 -0.10866870355301285
P 0.4944934620391863 3.020172978994367 10.462353619986496 -0.09565994999817073 -0.370099244323511 -0.6925934851745491
P 3.214661121258426 0.8457193148156461 3.6184420576636267 0.25775694857365283 -0.35521178568871725 -1.7869020418056776
P 8.501715086099889 9.015553994682028 6.727095004914592 0.5800647844454978 1.1963512702271912 -0.14755715308809428
P 1.8933729368067846 6.417065788621978 2.2712944167601434 0.9858673957078892 -0.3300100896121091 0.3915121627816483
P 3.3946685585819294 4.579003791718791 9.736639571028435 -1.2182074468703343 -0.3129986426557771 0.6420831351298232
P 5.980134282378678 6.613805869704072 11.066739850494253 1.9537064731591576 1.4439559608581907 0.6621295122577371
P 6.003188967491174 2.0655631930693263 5.114650512731803 -1.0979081010569287 -2.1841891593978904 1.1624013956443078
P 6.3726176847381595 8.292266317507824 1.1350030062099947 0.8668911395812813 0.07855491488676793 -0.5989173983756266
