# total energy = -381171.1144025865 ev
CRYSTAL
PRIMVEC
9.26402548024681 0.00000000000000 0.00000000000000
0.00000000000000 9.26402548024681 0.00000000000000
0.00000000000000 0.00000000000000 13.55883771238441
PRIMCOORD
 96 1
Ni 3.450905064986292 4.622757964524665 2.006504536652956 1.0087473856298563 -0.4501502841398312 -0.1970855988355251
Ni 7.185632077742513 6.896038642116048 8.993753067758252 -0.8500077335623812 -1.7522682537818919 0.19262370640942958
Ni 2.524011526447118 -0.10099918468427369 8.995828209459479 0.055104140062995424 -0.18229429945896347 -0.5665106999101469
Ni 3.6510635989000915 5.090572721794823 10.867231757337164 0.7735726932320935 0.22829442033816166 -0.4362606706419326
Ni 7.80080968787608 5.491297406742307 10.595634617553566 -1.1466112226895866 0.35641351930630233 -0.41414841212392545
Ni 0.8430328009409193 8.084400035009711 13.060835331224373 -1.6872224291251523 -1.126609325646363 0.05989667635563233
Ni 6.93529958198121 4.624573713513238 12.95182183812166 -0.24933555727917703 0.30209870791382165 0.09422913108891513
Ni 6.601766873636374 2.068351170569855 11.44738764565236 -0.5838561331671299 0.8647401546765495 0.314132242039588
Ni 4.074503674255639 7.236454521371648 5.9444388740991965 0.05144700292638236 0.23999962459023183 0.658610186250569
Ni 2.4699466739098166 6.652070531840203 9.544676323759973 -0.8731846858994768 0.9489617809307915 0.3944023398452498
Ni 6.853637197622692 8.279157642085051 5.246836450312419 -0.5211893502655282 -0.5424963392734206 1.1655255430955862
Ni 4.446269015640475 7.693819457932062 8.500171350096174 0.16539058172508933 0.12230069251415067 0.8762463555439362
Ni 8.280195212935665 2.3120320960566914 13.404754864905883 -1.1595155894560807 0.3029155473881622 0.4690345226388439
Ni 0.18408822896238478 3.3466199304742283 4.502889812799956 -0.38982114823247055 0.23235702044330953 -0.8065391208557853
Ni 4.72515323784454 4.37173066685447 6.538450965282804 -1.1724906615595097 0.9614115766583701 -1.3264426624303545
Ni 6.876676828921574 8.713075330226701 7.929655606666227 -0.21267573996429823 0.7465460281316045 -0.002941599126827192
Ni 1.667098436171614 1.6445775902980393 12.832490999873162 0.27425957421436636 0.617773097629549 -1.6648900841765393
Ni 0.4082026062922583 0.5928967025191975 0.9293012587541232 -0.5113394540546419 0.4707299080633957 1.2578733980013885
Ni 5.322284526397802 2.412111363013591 7.443462875704584 0.9495060834700357 -0.4371209617596988 -0.6290504703155811
Ni 8.124911618310879 0.8178151972582961 4.247333333086327 -1.1617560487508252 1.064988210400456 1.231261708951131
Ni 4.30910585479961 2.9656276197392972 12.156270873231918 -0.6460043245611004 -0.2503603989992656 -0.6653289930316413
Ni 2.2748277698418518 2.0660073721305237 5.01394996728214 1.133231973169203 -0.8921846240407474 1.7526937713550848
Ni 0.3360071295430391 1.8368431745268186 6.155440949804448 -1.2581040259549559 -1.0723027417839983 1.0800525609327463
Ni 6.3871008758648955 3.126404781457061 9.244686798771383 1.7307933717375676 0.8581959258001285 1.5634644353391849
P 7.794713959128729 4.156101210435994 1.3514082408471415 0.5241561462033361 -1.0622265884949191 0.02208629037607809
Ni 8.213522021758324 5.199035931785694 5.038491297106774 1.5704719770052693 1.401438399210954 0.16990723864852028
P 8.032438116249992 2.6716059799468246 7.757824609779254 -0.2248601978456321 -0.3305785605210694 -0.5971708479981651
Ni 7.094075714201362 1.0486691531044285 6.449844267445539 0.8707971595039068 2.0458278138764507 -0.6175054457904591
P 5.611961338253333 4.37889175852879 11.276153252004491 1.280624061434343 0.4049063247003672 -1.5007503441394154
P 8.090745892444264 8.389010455893708 0.5021324131541854 -0.16885720011745112 -0.36966549922020203 -0.060736912868740556
P 4.10709451579543 6.138806465703012 4.078972640133636 -0.5326431006284246 -1.2268288699907581 -1.2820615652118177
Ni 2.570174165273947 7.525640339878229 3.849462894380575 0.43356641163922105 0.8026642112814112 -0.2391784142405171
Ni 4.82801171243701 0.23269379130088022 6.939263658472079 -1.0576613377217399 -0.2694156158585037 -0.7397616582199195
Ni 1.0125672459183654 0.22702050211413527 3.926178289147777 0.25487448481953523 -0.7435573778169259 0.2445574191642433
Ni 1.147553360778033 7.744901294273849 2.0346125162765722 -0.8784683028959193 0.256029681469901 -0.5081086058221701
Ni 5.193255179903708 5.182490382328597 8.589685922427725 -0.43954448359952686 1.4258466528519897 1.7484365387406275
Ni 6.834590361293581 0.8064889997408005 1.7566287573464325 0.43315709201594427 0.5974094463715325 0.5534381829969048
Ni 7.742520439732711 1.1152682320781537 9.605948588098853 0.9606615858662229 0.5306445821411572 0.030103504253599773
Ni 1.9120207410690049 5.93454396851402 0.8640584331065565 0.7254061608291958 -0.08010349032081043 -2.413914141534991
Ni 2.58163376475795 6.827206933008416 12.240891260917229 0.4214619150662031 -0.33088503601789465 -0.6388546008901965
Ni 1.9437037081145105 4.219782121392369 9.297416705241066 0.4984967937640189 1.3203339784294552 1.2543980378582784
Ni 8.236561653057205 9.475059951696563 12.099269324626365 1.2334052376566953 0.2671216776180045 -1.1857647529605964
Ni 8.281510704549834 5.8171317099366115 2.686317252364445 -0.7097561129967647 0.20366710870778473 -0.17833068682552514
Ni 1.8547783278017012 8.982815959309738 11.223734616789992 0.14772427479357786 0.3865733307191342 -0.45082571294030105
Ni 6.676592407211389 3.584520104079078 5.541727055692282 0.7724113259341407 -1.0427353125395267 0.12942933313913196
Ni 3.8749565660216643 7.198157040153485 1.6176368778813626 -0.9055636164508146 -0.48520470464080306 1.5765189545302978
Ni 2.018788634402178 -0.02426989387889346 6.445206696304317 1.0466547021985908 -0.1021905520278369 -0.2914692532244335
Ni 5.921694765212231 4.636505778295287 2.4224490890153687 -0.1617172466385602 0.7054541431873012 -0.3011695112313329
Ni 0.20156666578248872 0.4456348275332145 8.158461286484943 -0.16144522392409616 -2.1530965517581437 -0.8122279437104464
Ni 1.3083490505467 5.098271126945354 2.7707755196043475 -0.6922849527951949 -0.6716235677911014 1.747324022402739
Ni 4.110318396652693 3.3181701083114366 9.287206822790525 0.644929860549999 0.9599573607103467 1.299442993913059
Ni 0.08135481871351499 5.764715853929748 8.519966719681799 0.497053376449273 1.917396068763898 1.400060287916505
Ni 0.7520989799101374 2.540075346580717 8.780350683058414 -1.2247298213698843 -1.4760978356980579 0.9385529268926417
Ni -0.17056645741278828 5.940398832599623 13.341977196431067 -0.11663912335299913 -1.1824277181675635 0.05536742102671109
Ni 6.032779694405992 5.837540358007152 4.742677994791903 0.4263272135783045 -0.383145793094824 1.2069526998921214
Ni 4.307160409454712 0.6215614500724734 11.665698111036617 -0.45457129602566226 -1.3389564786266488 0.5720647969591568
P 3.1062555260991735 3.27976145878785 0.3191373391951251 0.01041528179605303 0.40409077077760724 0.3683753196538688
Ni 1.9820289814090302 3.9798716542644574 11.881297922573648 -1.0398718749488027 0.3046839521424946 0.8804025438041547
P 2.47132701370215 0.3567020360000434 2.2569908152367595 0.5995033527860837 0.4049852575674186 2.1209490204913215
Ni 4.845029727192154 0.9932239607747938 9.471702668872794 0.1573574270079677 -0.23385545936570692 -1.0901603387907095
P 9.69137494599848 6.975209003628005 4.040465791940259 -1.3715156435095928 0.3499929604919392 0.1820932391917509
P 0.45665716501588777 1.4710068094311994 10.94608992119139 -0.14687735341225028 0.4265555275390267 -0.8415557461402862
P 4.555167634827586 7.985163794368934 12.97258066635428 0.16196355832141138 -0.3424740264070747 -0.348978917405128
Ni 4.444592227033681 2.3835596365708285 2.785703570217543 -1.8778800129471465 -0.35566455695541976 -1.1711881406980023
Ni 1.7272868095326226 2.370599264963617 2.9851811982606278 0.7188084530070201 0.40318754223704756 -2.40562593338427
Ni 6.350980440627929 8.752401118270026 10.54653806186612 1.031750788503565 1.228294141682375 -0.16560526883905674
Ni 8.746120109013635 2.1736831399579835 2.422028502259853 -0.608669592666384 1.3635308255319034 -0.08336210646742417
Ni 3.084309049803617 2.0276079866323893 7.9016291504665865 -1.6923589790207696 -1.090717239735444 -1.6450599368244896
Ni 2.6699940395181936 9.178073823759481 0.3062686814398877 0.7834277316493024 -1.4551479729192682 -1.8856277752133652
Ni 7.9978091891107805 8.335214260094512 2.7566200887138406 0.7128910590813207 -1.5488515705220165 -0.0851950459111049
Ni 5.604865094757176 2.6358005215752223 0.5224780658516531 0.1610364185214517 0.3270805746701399 0.9084687059127516
Ni 4.518926767259744 5.78147447597224 13.573345305689779 0.3456369975160886 -1.2972521569093272 -1.4968252980533965
Ni 7.2944195286242 4.823361171660155 7.507623663179368 0.002065367169460959 0.2325261990313221 -0.13108512357500005
Ni 1.8077170785060377 5.763530058671906 5.182256002484665 -0.5436975586703734 -0.6126506888013191 0.9006445818826424
Ni 1.0134473283362961 3.16073725978181 0.8238136537384028 -0.0512845092065891 1.795399537753727 0.5070356844729655
Ni 3.6790780118666437 9.538518526042093 4.413306686680062 -1.1113148613811377 -1.4362045990475458 -0.4750434478370851
Ni 6.326199172544091 7.176933157843177 0.9668316786648695 0.11461643649601551 -0.08282937389240574 0.318017178916291
Ni 2.7121638833752524 2.015981634690252 10.512031419862875 -1.2049420972199958 -0.6772347433302918 -0.013828935463292313
Ni 9.068424818510767 8.223999634544427 6.060610679668597 0.1718743896772201 0.20465389810108625 -0.6539629172865447
Ni 4.8218881916133025 2.0926785014065503 5.070964485523327 0.35750932347364234 1.3563538481674897 1.7494685795495677
Ni 8.832738746988921 7.974102547979363 10.021675435863147 0.956331076811669 0.41396663513042253 0.8275069813567039
Ni 2.5246600082287514 5.461189324023623 7.449008321340092 0.4458917659737934 1.1523121297291057 0.19910288637587
Ni 6.207860511421492 0.4619793476380056 13.093200130543138 0.09289575698947226 -0.8280898504433674 -0.49258479915495806
Ni 7.3535888591855 7.072638759305661 12.246017046199768 -0.3497312221901203 1.1732982450624696 0.021890629425504238
Ni 6.567230586751682 2.5999857991781683 3.4109836001064093 1.4519240666653317 0.1426813130530317 0.13568431290990826
Ni 0.33902627543781394 4.165596836524194 7.027843490635533 0.5721936092275371 -0.8029349484442945 -1.487217342649987
Ni 4.774678717910409 -0.02825898323848256 1.2242706083503256 -0.5531625607380151 1.0862036681358067 1.5876091509061883
Ni 3.2776492609848167 4.0721135556890475 4.3242794020872815 0.695034490515874 0.2543607784079104 -0.3696338746513183
P 0.6547609380844553 5.826775560432042 11.107142224465075 0.6848647490717238 0.10012878440280176 -0.10207073862052099
Ni 5.175625739468737 7.020862121054979 10.955214986261515 -1.421574764949513 -1.5782961010353787 0.7946377414325088
P 1.2981864146259634 7.49837631297328 7.47439082467576 0.4558450205317633 -0.5040362355250093 1.39602005640886
Ni 5.584882591857422 7.771535367448069 3.445422614723856 -0.9322917764742783 -0.6196343192080038 -1.9398937356457817
P 5.925984008996463 6.752881656807804 7.247808510965499 0.09634694876286631 -0.02597045592183269 -1.9330412315003227
P 2.576797943472057 3.5963224725048013 6.414157388599722 -0.23359372106388804 0.4398609863986812 0.3728395260728095
P 5.717358155819624 0.5543203741349314 3.8975283640352245 1.803320592373017 0.7482516979688016 -0.5013224361382721
Ni 8.713010482048537 3.810849509894501 11.569946070368301 1.822887201651035 -2.4090251888738057 0.516464176875717
