# total energy = -340874.65700108686 ev
CRYSTAL
PRIMVEC
9.17963413126152 0.00000000000000 0.00000000000000
0.00000000000000 9.17963413126152 0.00000000000000
0.00000000000000 0.00000000000000 13.43532244273734
PRIMCOORD
 96 1
Ni 8.275476641743868 0.9816516855330712 10.841230203292813 0.07154428789688969 0.26267264070771534 0.7830004143038967
Ni 8.944543435135959 2.212383556175779 13.103025892600757 0.06853249765375939 -0.20019483388846812 -1.329887169335529
Ni 7.16016948723474 1.5148323589215522 1.0757934205663093 0.3163701302311712 0.19852593082647746 2.0159428533915604
Ni 4.443998445284583 6.091935495150697 1.0694759965450646 -0.6507333546056535 0.5371625857653329 1.44318694390265
Ni 3.5976270239204777 6.754576544842016 11.672526829934906 0.5670876554595394 -1.1535215766561746 0.03964049720975754
Ni 3.463732884464107 1.307345094823626 11.201901689436827 -0.2409339634790431 -0.07003376478963423 -0.7744517534029371
Ni 2.886792896473369 0.23600746853210933 6.49893383948712 -0.3624957209446402 0.23660191176259251 -0.04461352494431671
Ni 3.3985850229721377 4.003311762651785 2.996922799797514 -0.8263648973324607 0.7270105292018382 1.3739844167650594
Ni 4.464138561969574 1.63419513798032 1.3638595106719154 -0.5060494093002962 -0.977699515185116 -1.0258033126708785
Ni 6.401757317500345 0.7731721030150688 12.57970689986619 -0.0764700073332812 -1.254973193635458 -2.497870944163621
Ni 6.375338331256315 5.778138891340428 3.408353071360697 -1.734980670346038 1.3003305387243347 -0.32138686671947225
Ni 7.887444338921967 5.569100269120459 12.098171764527583 -0.8275889995475489 -0.7065093239246929 0.018802991639116005
Ni 1.5143917364963564 5.490375729152144 12.52686617348797 1.0187669746493875 -1.340398610389814 -2.107637648094396
Ni -0.3894110838274095 0.24585446177184941 3.396019315308758 0.2334080874156432 0.5241967696332844 1.7289198088639386
Ni 0.07345359420690988 6.809727785062355 7.574364664516028 0.06804887314912152 0.09206606199932531 -0.022533148105509583
Ni 8.101504220862397 4.610140638484971 7.559840647825512 0.4564803401229171 0.1822523904774345 -0.9921876814989623
Ni 0.35895764850267964 0.30170794398234496 7.425904282053393 -0.49152704731440505 0.3964736205519817 -0.2054681664722655
Ni 6.469649889515931 1.7103677397360422 9.684583485666462 -1.7975237831855817 1.080641600666997 0.5526444834510159
Ni 0.2868277574981288 7.691248024469684 5.1816545449021 -0.9717245285486038 -0.8125346763175878 -0.2415011488364228
Ni 6.600533109066796 7.584360367824271 7.8000780916395005 0.6906466458608235 1.809995176179715 -0.006853789697039809
Ni 6.267459274154211 7.416795331375855 12.8152416172546 0.6418334810128623 -1.3818424793568977 1.1353346213345028
Ni 1.0588065081116258 0.33288840630864786 9.933177150181614 1.0296741084801944 0.5717202691355444 -0.5358307543277869
Ni 0.4417689614646851 3.613773999877132 4.155625755408112 -0.4957811946050687 1.4184159076055571 -0.1986277465116644
Ni 5.006260198735986 5.0861780911058725 12.65845163502899 0.7621096868978166 -0.9279034175985955 -1.4014715664417348
P 7.638648722461936 2.314773192230651 3.7420327621079257 -0.13746505895941488 -1.2389883881714274 1.376579174075429
P 4.847810538708809 3.8919169057819745 1.4997988725519034 1.8435866389819153 -0.38486174734466616 -1.6790818022958889
P 6.904489145381025 2.611357982556709 11.621432987879912 0.4204586706126695 1.1202304187032126 -0.580753068761774
P 1.1393669748515893 0.7037860045707477 5.072706978418898 -0.6278037423926737 -0.7878842247587592 1.1242027730873994
P 2.561558468875727 6.136934060323816 7.333979428596922 -0.45238251590445966 -0.7563966956734393 0.17081792338824775
P 1.7858335096846796 2.5409593704978235 12.165214302447895 1.0718191172793605 0.45504952121366143 -0.3700447369364917
P -0.28241235361231265 0.053636600633729214 0.029261918849929593 0.4165166552457859 -0.14124380927555677 0.30421061205050187
P 4.502977592823811 2.3034271647818594 9.165656947733066 -1.1809189948325212 0.9599936132649209 -0.02451623997380939
Ni 7.578393605816412 4.297326255497535 5.132306669206943 -0.31079340747434214 -1.613491417989589 -0.4127605306374634
Ni 2.0624984945383447 8.494153879514995 12.078905548985897 -1.0489684379334323 1.0476252936419765 0.779511941534664
Ni 7.366380782226371 4.029795006332824 2.609193424892935 -0.46627624316741634 -1.9733430164431631 -1.292549095006703
Ni 4.886667928830762 2.730739120883194 12.600088440921652 -1.300646527302857 -0.546042404753466 -0.5274309602998658
Ni 7.617563103489546 6.231383313091306 9.578605530736404 0.3691656767656481 0.24236863904304068 0.4574113365776187
Ni 5.321856010782471 2.596193227422887 3.241808810197318 1.223775942097047 1.131044221489265 1.240146927255903
Ni 1.7918186309602557 2.6884210087966816 5.857424306937482 1.3471336151208024 -0.3803052383222354 0.5265662983067253
Ni 2.0557606432863924 8.08992870256715 8.225292501404226 1.1320844898283213 -0.9288920067641099 0.760819250221167
Ni 8.923990234927347 5.694080984100474 2.881379666387162 0.4045885363496322 1.6286683828403437 0.22775397445365936
Ni 0.8701898173360952 7.206994799545652 10.320060162844461 -1.802266954297522 1.0487655778940066 0.6309646566191585
Ni 1.8776941057041436 1.9753195117865858 3.4989881862600853 1.4158998260519229 -0.6557932856270642 -0.7841532969614172
Ni 6.056116563835823 8.703605585258586 10.145455265190158 0.7177846397281961 -1.3177659605919627 0.7152575024309682
Ni 2.9466349295952723 4.180845881470256 10.937064662809512 0.9588772402722905 -1.5101700947914185 1.2415175823511846
Ni 6.385527724838967 1.7742304524878572 5.455922727355376 -1.6398593664601564 0.629184167679968 -0.8578182307457356
Ni -0.11785731910601564 4.3517431250092145 0.6884550980640916 0.16369853873464713 0.03908513892691978 -0.09075762760054691
Ni 5.150564042987607 4.924708331539332 5.434803143737711 -0.9494222655069778 -1.30995006409197 -0.2579176425212332
Ni 4.289909111340072 8.018685564193305 2.43692566201894 -0.042475138445075236 0.23231022636577411 0.2639193686306229
Ni 3.0031263963589163 3.992690926277795 0.4049421063521753 -1.218620880258669 -0.5224113955980874 -0.23842405257299587
Ni 4.164460235033287 0.7970703618016255 4.44590964505387 -0.2914607685840013 -0.08334976517225 -0.42959714257882786
Ni 0.17396507717438459 6.691530819503585 0.2363920951907698 -0.775691025126677 1.7609886643740253 1.377422753022647
Ni 5.620570476163643 4.278829293273169 10.31319471468188 -2.9656060312647505 -0.5022832573896446 0.5055081920848455
Ni 5.3605665267626925 7.8204513710244905 4.551578246322907 1.780822668380817 0.6110954284990572 -1.2655715379765946
Ni 7.588803310611662 3.8408689618962706 9.749932381139926 3.5631676869434314 -1.2327313515181222 0.14451862337208657
Ni 4.25867999695432 7.239848709124313 6.367160195452003 -1.7124848032363666 -1.6052443474894484 2.2369019164105737
P 5.890745459879528 8.926028113643879 1.0659381656560967 1.614635044675729 -0.06604161291110561 2.0041489460804254
P 2.863788734024606 0.3947609744399951 2.3322640665841523 0.21282717794049796 0.611676497813508 0.6357481940507309
P 0.2440451559383892 5.145873250086044 10.60151691657213 0.1928499634876227 -0.7360926940087646 -0.3646888719412171
P 5.435068435156214 8.988890246305145 6.439643502360096 0.37749245146378857 2.135986374440418 0.26678280622134704
P 8.339899312161037 8.34861078469251 9.203020811426283 0.15585924519588643 0.40872698399803803 0.2820998961943916
P 3.9760757889943705 2.907098246567809 5.068058411833082 -0.49455554972808374 1.992386406227859 -4.146436323038207
P 3.263185423563015 8.237335263062857 10.225126225409257 -0.5346948409511307 0.936092124056975 -0.9613436995349122
P 4.134084826596352 6.164509680433986 3.925841160668507 -0.6035667242221799 0.7618011545184622 -1.018954150959529
Ni 7.152871678317435 1.3332224826700205 7.63791343378989 -0.03748848386376124 -2.0408763834084467 0.27449662992583695
Ni 0.9620531672457167 2.9636723300361765 10.126309302852013 -0.37091865490101283 0.11261380424368993 0.04294359344106152
Ni 1.0588615859147752 8.554923055656582 1.781241856828785 0.9216425242905482 -0.44629620050106367 -0.7766297348908625
Ni 6.016423827032769 3.367163136275363 7.438922838791157 0.7611630067138311 1.6594488585563099 0.7104395122170345
Ni 6.358888427382339 0.42603874088519544 3.0955120674350716 -0.06982010611693137 -0.6963400967011749 0.7051875197894758
Ni 6.785649605452177 3.593184081133087 13.504648643349793 0.8465300594264259 1.3195441355383082 1.1867877949084722
Ni 4.235859427182722 0.2035528730262819 8.542137661618817 0.8772336591578698 -0.6513375638485557 0.203527754916443
Ni 2.366344375246275 1.7308107843383553 8.22366678824793 -0.7919943902723908 1.1368752263487452 1.3313483272620878
Ni 2.1386435573924922 6.399352253429485 2.6114910872476536 0.792122431209823 0.30525268016177104 -0.880591262776193
Ni 2.2788991831126273 5.800023138458485 9.569053203743513 1.5545655901876583 -0.36175370057229306 -1.5041076906474224
Ni 9.059610145549069 2.2986445755417133 2.1434445059003546 1.33655558249464 0.4126085784406313 -0.5634392600736748
Ni 7.081747875183749 6.401564545189323 5.707848598961069 1.203360611665489 1.5028283097143667 0.5369072752214172
Ni 2.286325506903948 5.40118640658543 4.8020261968774225 -0.271083747589546 -0.16704997170538327 1.310438316582298
Ni 1.9335062795622773 1.4051999917525244 0.5997137416296594 -0.01997772867350753 0.17119587555295676 -0.32771306604781625
Ni 7.961019104295806 7.904068655839251 1.7087714014080935 -1.7191509024026328 -0.15499175498926857 -0.6501198893913707
Ni 4.181277324261593 2.2058109383332756 6.824982500607988 0.16834220815424555 -2.0399104199507514 2.743467860335972
Ni 3.9226778588409554 4.41398104256812 8.340674991222057 0.4153745712215427 -0.3614945333736355 -0.0030783818150076016
Ni 2.5114009494742726 8.09777728951595 4.751374813174396 0.8883847906786829 -1.170229890549791 -2.2723947100005444
Ni 8.61107487596747 2.346975347805377 6.226089418245256 0.6262592807236892 0.460714947029555 -1.1682820227948008
Ni 7.636574125209973 9.046896352655398 5.853084176049303 -0.1623016583871205 -1.105752793912328 -0.802727974639811
Ni 1.589912584248143 4.167168227021469 7.882409309750719 -1.1617892159816057 -0.0060603472614669815 -0.39034051107105033
Ni 4.964860050035298 6.572985027858201 9.242614408183668 -1.8570003412846599 0.20906668245680124 -0.8212743701834306
Ni 4.4628993113987105 8.684199839282256 13.175589980286803 -4.21831845389049 0.3552066434823947 -1.4307934553343036
Ni 8.279212752724174 7.986611923492595 11.811072289867251 0.5735768627283089 0.5524038281951196 -0.47730164774364253
P 7.5344231596354145 7.514806282080344 3.8009201133085715 0.871797318633647 1.679668013816662 1.0467889137836102
P 5.779681069828613 5.65213005736829 7.355126551116161 0.04521207776026407 -1.4079612879311365 0.924697509066788
P 5.868108482785093 6.300505956043896 11.049248968191131 0.5404384283031273 0.3851527962225238 1.048320262826472
P 8.923687307010026 2.420834681828821 8.366780033988137 0.6741203660710262 0.47145881580962024 0.25400776594386576
P 2.475288269875934 7.113858234419892 0.3154810666232567 0.3914795097714999 -0.3138995572034917 0.5284298338780254
P 1.4055304585714214 4.289257357336137 2.1877940709596966 -0.24359042726528374 -0.46915690714932107 0.3378784366165923
P 7.247210775478625 5.677998265580826 1.1526242020696678 0.36926877800241564 1.028125790156468 -1.2598893999901528
P 9.421700803087568 5.478864468293904 5.608749861644379 -0.703406259519337 -0.34130443157900575 0.7876733942995338
