# total energy = -340884.4564869597 ev
CRYSTAL
PRIMVEC
9.13334558248975 0.00000000000000 0.00000000000000

0.00000000000000 9.13334558248975 0.00000000000000

0.00000000000000 0.00000000000000 13.36757447269819

PRIMCOORD
 96 1
Ni 6.864394271536822 1.8734683971057036 11.173942418984284 0.6887185756001751 2.093391679698343 2.241031879418547
Ni 4.704851221371775 1.145020146545264 5.923118973517107 0.324023533011371 -1.1447872821069704 0.9423368194151062
Ni 2.8904116373278987 1.8043929038074524 4.637826164176322 -1.2088409180537696 0.7457870384783931 0.37414590358905886
Ni 3.634852376155591 4.758098626624823 4.56767384942364 -1.6568042218446113 0.03774970794494789 -0.24799575542183092
Ni 3.906222342687078 2.995317245687506 2.5327808742864737 0.5029090638991016 0.23279076554661846 0.4938564667785301
Ni 5.108873900406739 5.1236242536629435 2.387381664566675 -0.15282534346556906 -0.27121487385077164 0.6827921828134111
Ni 5.1422745455200145 3.4633007444458137 0.48053454237730253 2.4405983356943968 -1.9160876343651196 -0.5037104767544744
Ni 5.773215197713123 7.983813650170544 12.474567375700419 -0.685899103873509 0.057280064668391674 0.13988241015165584
Ni 2.075315336401135 6.802424521169424 -0.05289303144107248 -0.06354867128592283 0.7818603871621824 1.1076903772546727
Ni 0.9386978678717892 0.1766160718835024 13.322111713787132 -1.1507265304095406 -0.25979994714561067 0.3253075419301172
Ni 8.0576750165996 0.016006188285757617 6.998286379047649 0.7199577361201149 0.6190082555882307 -0.9817348615967544
Ni 8.874634520042937 2.770015874712859 1.5093191652599736 -0.004723116507282188 0.4469096657153465 -0.040006365189608525
Ni 6.980214227971455 1.1509476878847542 4.654963973990528 -0.15615980715544073 0.2386297408258987 0.20806446644453197
Ni 0.6481076887134563 7.590613985753911 2.504335069198889 0.11904053370564016 0.15939811158708034 -0.48113053457142946
Ni 7.799849801695948 3.6850949106833815 3.8110154340938878 0.07934630043981174 0.3563111894004831 0.06264184320093728
Ni 7.872332032928913 3.901427336210603 12.755085301254454 -0.5164628913241364 0.3182238956104584 0.6066577044426777
Ni 8.331647986646889 7.438918247529574 8.698026668170538 0.4002315449325172 -0.449590040760987 1.1343434610658272
Ni 7.619840691896235 0.949886216316898 13.828087190526762 -0.45503332326374535 0.35596589024592246 -2.9821451665703544
Ni 2.282925416814006 6.461805527771967 9.269998787383237 1.1778485834373134 0.8306599251633888 -2.1409743145733127
Ni 0.4390974664094545 5.262423707801979 1.3442165889274134 -0.7867616811185418 -0.7970558639556983 0.4090247177441149
Ni 6.580237621068068 2.409385720953578 6.857939736152204 0.29829038991132495 -0.8437627810939341 0.2198429471366988
Ni 3.4312153011089426 4.752965686358578 0.2536521892672691 -2.156072346557016 0.5532330089646343 1.3595816110761683
Ni 5.688859617109837 5.9571973128790585 5.002734377047185 1.994833839327087 0.9313692646600089 -1.5177707899568118
Ni 5.965389923944578 3.0733342843961746 9.095792092087342 0.19045369534130427 0.23734804589999767 0.8540646772405742
P 0.31170830101529673 5.921842131792514 12.666993268937786 -0.8958407327360959 -1.2046574761000415 -1.4582908894236242
P 4.538633463532972 6.0925534957007 12.532675547518764 0.39996389309342734 1.1603596826239306 -1.2481456291906634
P 2.2921135625574993 8.636034997773532 1.417604848050791 0.6492464856474819 -0.16379649776509211 -1.1821883484632478
P 6.479222817963659 8.356353686682821 5.463260499066365 0.27293905563072995 -1.1855984025860613 0.9148846367414244
P 4.774703049051932 1.57308179138229 12.44216409193425 0.5321283657755351 -0.027933750295790604 0.4998489369165392
P 4.501707346991278 6.602687384723643 8.167066924352055 -0.6021811567285629 0.20086126382787342 1.3569634567270308
P 4.766848371776182 1.3536714283644555 3.6469412724837103 0.5201825062675687 -0.5800154192648012 -0.2725559612596984
P -0.004023238767404411 5.830207274690657 3.6725009403397406 0.5061779644583605 -0.3003107627754634 -0.08258948996745777
Ni 0.8935873602756778 0.08821259247950516 4.417515253275477 0.8635677316350031 -0.9832631253158228 0.2855415748860889
Ni 1.9276474036170383 6.669570875061219 4.5154192388448635 0.08998886775532244 0.38506717848725297 0.42833036005126235
Ni 6.386592426183828 5.664802384616436 9.26398356592532 -0.0497233353670563 0.8899084264120609 -1.909111203047286
Ni 9.153530363406073 2.3330035511197456 10.118505780103513 0.0018607073578226017 0.8746766970639711 -0.17608637087603868
Ni 2.717106403249581 5.657924975327321 6.827395088229773 -1.8021584537441158 -1.7689236029503859 1.0415112103244384
Ni 0.6472190141798162 9.36715931861513 9.11976073112775 0.5375657347410225 -1.1058641226792116 -0.6358037298790147
Ni 1.839738951548327 1.3275135263670748 11.451546807269754 -0.03707376492384583 -0.0307269967702116 -0.2290906909872119
Ni 4.188734990935326 7.220046751906239 1.289331574795828 0.4385553802133802 0.7093696761916235 -0.48524404251917075
Ni 6.077154674901963 8.171129436505838 7.920355164459021 -0.9681486382718876 -0.8094550089509993 -0.5579000754230005
Ni 5.387596210202155 3.367272748076937 4.549720431841149 0.8441371337142172 -1.0005134277558383 0.028470853746183227
Ni 1.1993909533156577 7.7268835031425 6.788174675255908 -1.2780668422301278 0.028403490843357533 0.41397383421927414
Ni 5.216793512837274 4.97955485907262 7.027092951289177 -0.19347962665182164 -1.5349917818207888 0.7182641504677759
Ni 0.8195689003011061 7.248962924295801 10.848963366711237 -0.22479129228090966 0.30058998457877906 1.3943750646062696
Ni 5.107312098297259 0.529049961238995 10.630711111924292 -0.8520003385123778 -0.8696954417992957 -0.7232405206364448
Ni 8.54272873841416 7.532653774135412 5.065896029024451 -0.4281038458627531 -0.06140539969067489 -1.126173780770841
Ni 7.670612960472855 6.2608993230804915 6.751119778540274 -0.757140001597367 -0.6280935057189505 0.22790361265764622
Ni 2.5578847881935967 5.754281772140298 2.310505380732124 -0.1208855573341789 -0.7841378703424495 0.6118575034760624
Ni 2.657593522867272 5.4584161725232745 11.389293923186603 -0.07159956661485734 -0.14529278253394975 0.07742002995137635
Ni 1.1665839756708982 3.6020088651281537 3.6959873387288 0.5871623147222276 0.4521248913676988 -0.45235680487284674
Ni 1.6616204443021956 1.4364012734385738 2.510163057070582 0.08625048375881275 -0.6119415785494364 -0.28777354954040113
Ni 1.555025166993735 3.400746459955569 8.149074233383185 -0.4286093247442619 1.1654039299160575 -0.7669557021362082
Ni 3.9028338714437023 3.017301208713936 7.9393634834663365 0.34092365120081936 0.27326764261474223 -1.2833103500172542
Ni 4.015621557116068 7.1687082158981115 6.095614079834542 1.9718103818487203 1.8155919535412022 -1.2649511307837764
Ni 8.13029424801761 7.670585560435847 12.850557076872057 0.08567712775384599 -0.525541713696953 0.9182970048570831
P 0.6741897839417804 5.751085101155981 7.67610210122021 -0.9844718009119432 0.07702176607169317 0.3217887301435813
P 9.110402705154804 1.864581651769303 7.921276719037071 -1.6212222109749432 -0.07535363434065086 -1.0588779837376603
P 2.3552615145162603 3.3142719431569647 10.141778458203907 -0.3992833220866349 0.6870154768661393 -0.3061759633069888
P 4.154174410922027 6.668931540864356 3.61582213711867 -0.3477748697946978 1.0048153975653018 -0.34654973913834514
P 7.716809422869067 3.9592870810267367 10.126565957656824 -1.2704437784672313 0.14635567658082535 0.5859078734898361
P 6.817001340857909 7.845233396327576 10.521805098161453 -0.3759824425771654 1.1295630089580482 -0.9925291239987808
P 2.7390081661649863 8.794471145101943 5.741694195138625 -0.6913153897930739 1.702297835401036 -0.7004183805356066
P 6.987950171753501 4.190132392822756 1.784811924026662 0.4843642110173788 -0.33190859218640256 -1.0659212637376867
Ni 2.8901650369948224 1.852005034782434 0.5439784147357543 0.555841907342391 -0.45520198763112574 -1.079757655400147
Ni 1.8982836972896713 1.2995472219271373 7.076433111264822 1.409174334402631 -0.5887682257567667 -0.3116500990476826
Ni 7.107341266344898 0.7510761144565677 9.24988076687708 0.6542367397732217 -0.27136708315791974 -1.415774356217652
Ni 3.1089999992354804 1.3603661707401817 9.353599040299658 -0.03890156216120397 0.12477126554183028 0.12394414165484462
Ni 6.438963030252606 2.0938560281101726 2.419410481160395 -0.2588527527409929 1.1252546113906814 -0.25029072210359476
Ni 4.220336366951715 7.384236907006418 10.511485330889514 0.6192378551005336 -0.7975975953917813 0.09257539753557605
Ni 7.846283731079566 6.043580496220967 10.880978483286453 1.3618310692319773 -0.6535006329381455 2.7829947147860006
Ni 8.163649226402537 4.027567973251743 7.885572644145953 0.44435193229049924 -0.1982899035562714 -0.20709824587652076
Ni 3.2439451815019957 8.780917260128438 12.657809689867126 1.1782985264905383 0.23408711576053878 -0.5930372854457657
Ni 0.6487671162707924 5.009009898856682 9.80410040211202 -1.0006599806360315 -1.1660958137767594 0.055229867007582305
Ni 0.2897608713715446 2.0277214721174928 5.563277027489102 -1.0690143008407136 1.332336659317286 0.6818835549562128
Ni 3.4081444699478447 3.146446716480334 11.92566791431795 1.1854495357130228 0.2637787292877006 -0.25450630284683906
Ni 0.9324141260511895 3.733364642546565 11.977881424841215 1.000431409564993 0.5165197127040008 0.4953855018285468
Ni 3.154840261150583 8.472995644227707 8.04516781303982 1.3302486664400057 -0.19427384041834284 0.021850520216188173
Ni 5.669880524808666 8.473269644597792 3.112706310908154 -0.4174193695657134 0.33306018929234255 1.6880379830479122
Ni 3.2488041213981576 8.739616271011066 3.2677704270153924 -0.10438010347998797 -0.32105570863229865 1.3491781563546572
Ni 4.249800540081446 4.93314832972601 9.58297388344289 -1.2461743643969054 -1.072875840678649 0.01591975655405
Ni 5.856684843786469 4.570033905944633 11.48324134341197 -0.5686377735554786 -0.44891718306367845 0.23234493625845143
Ni 7.91461942337859 9.371451991079782 2.434302401274477 1.1736119196481465 -2.2086514062053126 2.3296212957231814
Ni 5.283485202915791 0.5892661092378536 0.9103625762668053 -1.368883090982752 0.42507122968401634 0.308273726376282
Ni 6.396301172630481 5.824188399894472 0.442455797612121 0.47550161842042626 0.5765138338694458 -0.4747889086241178
Ni 8.535367261804563 0.031245175535279206 11.115593126840265 0.03289315118359496 0.8457469014034983 0.4365581472776933
Ni 0.18848850791925492 4.667925104830082 5.552890586793773 -0.03165927877649386 0.6978791590535207 1.510683029872095
Ni 7.262699476182695 6.724434882497764 2.8058003230458675 0.7040865734158133 -1.2912810269275568 0.19980119799447527
P 8.883904865897456 1.6917513516657987 3.494871980421493 -0.04843829800704561 1.691468605996016 0.7960191951610678
P 2.053002572930604 3.5005282613946003 1.6775636125028337 -1.4291260949342095 1.1125844721221807 -0.7582774576359199
P 5.132127398481226 1.0651673053570307 8.166077783016052 -0.4005395630912392 0.5734151403394641 0.6088742524780223
P 8.954560427996526 1.900959767570828 12.438782014032844 -0.292068063150697 0.027513632039236485 -0.24330991991038742
P 6.672310878762062 8.09871113869256 1.2513925702193895 -0.017212764333860677 -1.4835990291711094 -2.3573406160153207
P 2.7169694030645393 3.6292901686428802 6.122429582720125 -0.4229616395401813 -1.7820573121188663 -0.057190590278378924
P 6.9420642431100505 4.207613616434134 5.841402929812301 1.3921150649274991 1.1450829589705183 -0.0444209493175364
P 2.41074658945833 8.583700927087431 10.214965783722555 0.4430185581910564 0.32155758796938166 0.839372365335722
