# total energy = -340864.8101857738 ev
CRYSTAL
PRIMVEC
9.31334460059291 0.00000000000000 0.00000000000000
0.00000000000000 9.31334460059291 0.00000000000000
0.00000000000000 0.00000000000000 13.63102123026865
PRIMCOORD
 96 1
Ni 2.056386524712748 7.323865311819338 1.3476745159303605 -0.44570716076681305 -1.1252623247001652 0.9191215576409073
Ni 6.059616012980314 1.7612652557132122 10.711406341513463 1.4141527614538292 0.42584410329429884 0.47329175525330097
Ni 8.055558930150553 1.8784085062016043 12.172324610477972 -0.15336476090880685 -0.1201823606195672 0.6561097884262185
Ni 3.984025371356524 3.6206186585200597 6.680427742510475 0.6309572004199908 0.14878639750950506 0.013724291564627978
Ni 3.7063666237964648 3.6027556632555715 0.44442163630191434 1.4577157336464446 -1.0142361766585692 -0.6060447534490272
Ni 7.371046716412612 2.830725948735357 3.2119863434915428 1.4180104446370223 -2.59891838372595 0.8199309687816589
Ni 4.39441790854614 4.717563031951749 4.446343530964091 -0.1378520099851884 0.6747502863455411 -0.004944488489468904
Ni 9.121229091852236 0.3754525929590349 0.41128103028045676 -1.920045590571603 0.7090619151432176 -2.0496081068544894
Ni 4.723747092877516 8.41041599249025 8.059232113326942 -0.41454410490044735 0.559836630324081 -0.6156748203396235
Ni 2.993383515103601 6.828153223212632 9.366351669466262 0.6279436104046475 -0.09983824974557645 -0.06253694219195681
Ni 8.834089359318636 0.7640500407232309 9.933061247906258 -1.4104012648311968 -5.219964195478559 2.4522176651008802
Ni 1.5717107496557912 8.648139117686323 13.055901186615655 0.4491858633440329 -0.7661069809826677 -1.0171212115158483
Ni 5.027222432133697 7.904775878361154 10.747120224694243 0.36670024594429107 0.9832605542126615 -0.09839380398956604
Ni 5.121752881526063 2.392607584172236 8.782071534787486 -1.0828069837494319 0.04046170755947225 -1.6099594935769306
Ni 2.9660954149341783 0.9457049677486711 9.792089804829653 0.0058024656143900065 0.0062331253939053935 -0.7128015846913078
Ni 7.966635114308356 3.98016033327792 5.810700110042394 0.46111012558544456 9.101705190952067e-05 -0.6072907100409864
Ni 1.5463877652323583 1.7712864146832796 4.650290880025548 0.33721946287635474 1.5377066096487906 -0.18939414372853833
Ni 7.211555687265394 7.251714829903805 6.127689112556538 0.2986544581189631 -0.42690828289275506 -0.3668668534291423
Ni 7.066835622919779 5.952046880913138 11.961111921163216 -1.7865482580106846 0.5123784368421176 -1.029195369071563
Ni 0.7101220491802206 1.180391942550467 2.241157696897468 1.3988953210741262 0.5363102650673667 1.062791974080086
Ni 4.0732658409208256 8.324993994280716 0.49558542711786524 0.21260683439957576 -3.1689990603755422 -2.1801499563315097
Ni 1.1181601728125568 1.5904585126732131 11.417656833273742 0.9771762956917945 -1.7136461705343198 0.4488423639616851
Ni 3.0460597931098294 6.684588013618216 5.186358622845265 -0.3849985300328467 -1.4748822181234018 1.6757959324557654
Ni 2.4796501043713546 2.6702011383189217 2.4064481458315456 1.5806877411960067 -0.01201733617585027 0.6590637288482198
P 8.393176991325198 8.655282453123165 7.331976303777545 0.6031784876448257 -0.359740012576374 0.40600392863992013
P 6.404507796418549 2.948176539601084 6.99583533908306 -0.8065121242725917 -0.4472891605419523 0.3368924185542392
P 5.865153374230303 0.32423851008133836 9.242868825194483 0.7168837251804815 -0.09420830515330872 0.42263690921091085
P 6.2774365204077665 7.7192354238986205 13.414587896323837 0.34257995585731965 -3.2469600504320533 1.1216275561610554
P 0.9734866751907822 1.6079769141812958 8.785820156056493 2.779492100949381 0.3708314945038452 -2.171799527484285
P 2.4455073824528903 3.851729308931051 5.152662010141174 -0.2612693326022855 -0.7716518220602969 -0.17178388684594287
P 3.115174124631085 7.081746287892901 11.655490787272552 -0.737591132931162 2.4498843889820128 -0.7138199986534931
P 4.108135003731172 6.54923717410893 7.306540627882423 -0.5659501994209866 -1.5794744376141958 -0.918669043484521
Ni 0.6115067667727323 7.476967386455899 5.957683317166563 -0.14382468262885553 0.3079420540684761 2.4003700843019695
Ni 5.071758846812937 5.534827662008782 13.456462557068466 -0.0655289349407452 1.434963527551593 0.356854720608779
Ni 8.533631543767196 7.121784357049332 13.192157283236364 1.0865834200727287 -0.41396354980662897 2.479225046927659
Ni 7.728073788083187 5.060918113503311 3.539199535891691 3.5874718109064343 1.7243311610519916 0.36573916758260233
Ni 7.210577786064783 4.1505666024929075 8.787906345284464 -0.09974826113493143 0.3086802177860813 -0.022123571371916735
Ni 2.398856838511377 5.2548685182910955 3.3199447733700085 -0.14246893993190946 0.029233957164452883 -2.0277966674063532
Ni 4.756138905979649 4.740976780697798 8.689503407137678 0.0023250485887508347 1.5770527155465808 0.197823248332498
Ni 1.4698693246207644 4.9966467212612695 9.78891395426386 -2.1593175929671906 3.262145757033556 2.3849100409931574
Ni 5.964703716452471 4.980655708295093 6.354849973451538 -0.890438587883918 1.6616880322994736 0.1092204622914248
Ni 7.747175458201783 1.717241074996196 8.327899757848245 -1.173043448739186 0.27441461173499193 -1.603664404596838
Ni 3.359807751644807 0.773501222993514 3.585026780155738 1.740297454573261 0.02742338631827535 -1.6046578788583592
Ni 0.38121103402891665 3.47465991932034 3.445676790403193 -0.04225016691846272 0.2764452690117755 -0.2883062821154196
Ni 2.6075316413769287 3.606639328023711 9.013539817637557 2.68811843703139 -4.739075601714606 -1.6031015901148327
Ni 4.447755434030878 5.562655936174732 11.043894612390048 0.5938389554114547 -1.1732244544017407 -0.04041131393751105
Ni 0.7393296297062696 7.1450025255552605 8.561808137027459 -2.1504089776236515 -1.66052075146425 -0.8013511488969425
Ni 5.0066585668865695 6.906515706088235 2.3322813247738017 -0.3335471562310901 -1.4689421984898832 -0.6729469145882153
Ni 8.626867438236848 5.758385189813152 10.071293636286677 -1.4310729342479354 1.0612135738493724 -2.0322300205873582
Ni 5.503655897071221 2.751888485276601 4.729364902441404 -0.1962319925859782 0.7254280152060668 1.2549729365251419
Ni 6.550587609100249 1.9199273971761033 1.1144460109191898 1.4905991146380264 0.6627288364046328 -0.7943688040418384
Ni 0.8632352998305037 5.276736251805705 5.044227668345077 -1.324592753705809 -0.07369938656667953 1.3490550005132314
Ni 6.822881870074102 3.912359183368913 13.180352618743278 -0.3546744251280085 -0.4612705624227088 0.7013946284059469
Ni 5.948153902800231 4.370156645426228 2.509511481700098 -3.0225168855191815 0.25952972420335946 -1.7095259777183593
Ni 9.151255315383368 2.8816699446147895 10.113291233182236 -0.2297373234322753 3.8060801143050833 -0.566276986632786
Ni 1.3463184929321805 4.030796988780018 0.9893407819888733 2.1502673098394647 2.114510978175461 -0.47987146535334785
P 5.295297747927772 2.4397051686626003 12.508329600338849 -0.7049530351811666 0.28945659366977894 2.338717858707811
P 2.570455215856632 0.14805517310693403 1.3789962257186823 -1.7113789717666976 1.7867683444412907 0.40178243435940486
P 1.9088910836263544 3.554773311012274 11.76494866565862 -0.767171160581124 1.172273146232065 0.23580975487860034
P 6.038968327630276 6.118411158498934 4.148246648311268 -0.7053664685695012 0.03197295336217074 1.6482180228374972
P 6.186407888648064 6.249375412622624 9.73489376060765 -0.657586630082061 -2.126194842271293 0.6667893796272516
P 7.946853570021717 0.7195974461468997 2.4500532260340147 -0.9889154385055936 -0.7370766551885887 -0.14519919437887896
P 9.088436804925092 5.503013276282248 1.568384954239238 0.01419583188440781 0.09384243717345774 -0.2504403603075816
P 0.028776372663303667 6.98923683431513 4.05390712248664 -0.8943584917636145 0.011131334026471151 -1.6540084042670289
Ni 5.032661425478046 8.183738494188695 5.3610536873257875 -0.36896435938811944 -1.0236145325496757 0.5544177733013548
Ni 2.3554659652385657 8.894411893379164 5.183822599065015 0.6695659139311243 0.167147416515196 1.0834752134610501
Ni 3.8215261318493323 3.1143918036705966 10.991455824675398 0.7712815832050717 -0.3491316409329084 0.09879900984778468
Ni 2.2587748198600885 1.977781894873185 13.3528664978792 -0.9618052125523631 -0.48313316682375507 1.2803687508904273
Ni 5.947650982182774 0.21777580337256855 12.671724783612694 0.34657390750806116 1.7204369682039078 -0.8444384670047199
Ni 2.850758953330724 1.7446688753371338 7.287389597036559 -0.5838188521712913 -1.1098148797968435 0.15999023664512446
Ni 2.34837850987033 5.591201337887796 12.932963173012787 0.043894130279788925 -0.5242155386863616 0.035078588870687974
Ni 3.5378882169483963 0.4632634641014903 12.14877023022593 0.19718792874134428 -0.4608995522365352 -1.1745478011988546
Ni 0.7458918124296058 3.18298458788486 6.708970350220109 0.45054829090919823 0.2925277763959349 0.7001209038998459
Ni 2.1407654283082986 8.654295238577786 7.89354770990919 1.2254913821262572 1.0541834064754685 -0.1893002984631514
Ni 0.012444491278628508 9.24988363647353 4.2908274373637365 -0.9850824379127485 -0.06837823146408224 -0.4474431696213133
Ni 7.288707435321192 7.8939444583962946 9.159883197976184 0.6259139815691285 1.4194086105361297 -0.2944231936464349
Ni 6.686944289844449 0.4664439713396669 6.399110713125655 0.22706517591675085 0.4987834717665023 0.46884657499775384
Ni 8.731400419909747 3.310968571682879 0.9701497037605079 -2.8901387541643713 -1.3504547090742354 0.34475999422777404
Ni 4.45248661317288 1.181490917233058 0.6959238550818302 -2.0183836016225696 2.7782811113604153 -0.1537897642613674
Ni 5.829436697046094 9.045632672372646 1.72775956657686 2.172974264518677 -0.5387111611993755 1.08419846478032
Ni 7.180318728914457 7.78155101373944 3.41113545732867 -0.2399836837506318 0.2321670159196905 0.8808339749146187
Ni 0.7159671043564421 0.6655474497874321 6.5161049500977635 -1.180501190568812 -0.20708487614008209 1.8857365328770879
Ni 7.028129362065132 6.126402008309639 1.2452016461200826 0.6024562647668205 0.297312599379088 -0.3672975132086578
Ni 9.050671191891983 8.017476663395344 2.083365421835882 0.8316261457314001 -1.1619889906972374 -0.11795218573746782
Ni 0.10927626816309824 4.939751498075263 11.946772164224356 1.2258623923124308 -0.9009263747891194 1.9055306847848792
Ni 1.304380501443134 8.288560189549392 10.512080274125749 0.34896451922742483 0.25093555477644525 0.7420417125033478
Ni 2.2208601933106973 5.21991553537784 7.401467825761895 -0.35146363150019466 1.2607666603887837 -0.8595544967105518
Ni 5.924740154054181 0.637475165988568 4.212299176951268 0.7562537423376717 -0.7412171597195234 -2.4192610076692014
P 4.435620145798537 0.9377513713170377 5.949218418107181 -0.4594713044304409 -0.0014562728305523307 -0.3814030993721044
P 8.629018820878192 1.909598897828701 5.356623329219783 0.05975500857144548 0.2946435371873571 -0.7774586585500611
P 4.905524956053889 2.4372371322991544 2.541762663296238 -0.6556924983831418 -0.2745182271923918 0.48060551530589485
P 7.626977430629579 3.997436587822042 11.182644822739553 -0.6027434569899361 -0.7672416088077433 -0.55588381632392
P 3.364836957819376 5.4465185269212535 1.2911425131902956 0.04519716536192861 1.2006519544850742 0.9791462749339719
P 8.874537215644848 5.373874437733032 7.405665350248706 0.8617211653445677 -0.017130746143015657 0.07399249232706612
P 3.602541456325914 7.8368257149358636 3.539281493325647 -0.8511485320350438 0.9518714983784188 0.5035443834902553
P 8.737873194523313 8.52712151577456 11.807586089339724 1.5509403347302448 2.800359174206377 -1.615330785191173
