# total energy = -381173.47779631073 ev
CRYSTAL
PRIMVEC
9.16654335895510 0.00000000000000 0.00000000000000
0.00000000000000 9.16654335895510 0.00000000000000
0.00000000000000 0.00000000000000 13.41616277423115
PRIMCOORD
 96 1
Ni 8.619987941769631 2.9438261411791844 5.273249149803154 0.7567936740015417 0.3979121527707212 0.37340825409208594
Ni 3.2841615523736793 5.099302078497129 6.404876308530842 1.3014764794033198 0.24704059059741326 0.7882680904607391
Ni 0.23043497633578544 8.62224291136546 3.343227089315417 -0.7795798186581219 -0.5509151594647351 1.7899675681048786
Ni 5.870703344217381 5.103683686085767 9.469583486515242 -1.4854728491550546 -0.8136911585195342 0.15751889228649646
Ni 9.042959738762402 1.6809240024564116 12.357747628195495 0.7165649083884821 1.700368479588807 -0.5025822766873023
Ni 7.530828460442367 0.005455009782424147 0.40160458509085323 -1.9824475498475922 1.6922522782395757 0.9918992037242659
Ni 2.8523715409451973 6.7663387681987555 11.255677070950663 -1.9918978966272147 -0.92417737489726 -0.1097861049869077
Ni 6.294930957611078 7.112100772892149 4.759799906067921 0.7646913315820637 0.8287714498914243 -0.40302890517199624
Ni 5.6934132346528274 1.8528700174097172 8.042426062476963 0.04400751592920163 0.6605711666316817 -1.3069603853360265
Ni 0.6655579428254156 5.995597493579721 7.3429739099867986 0.3533785891347204 -0.3275940239714487 1.3967667047668977
Ni 5.74246340663359 0.8449976067404616 10.085814427759107 -0.2895005595338369 -0.009323334283454911 0.44738917645492626
Ni 4.390049974808192 2.0048054688358308 11.9223129992414 0.20442635547131247 0.37022034328240755 -0.7065093239246929
Ni 7.363089888759324 3.990572027710151 8.260157126768618 1.8984092432487498 -1.7449200409469368 1.6123850722992876
Ni 3.637055127577451 4.374347686525059 10.622112196756767 0.1769158087558695 0.07502247625347724 0.6352766537309511
Ni 7.6923704490084255 6.443868949452495 8.635433566846736 0.5728273861567942 0.3878979630678287 -0.3806281688792929
Ni 4.665880422401749 8.253527882818611 2.0652441539298243 0.7267688455046774 -0.777972622072002 1.687959821511809
Ni 3.4544392564877957 7.495308106036565 0.12467048571137264 0.21458761227503043 -0.5109285917694685 -0.5478241792442372
Ni 1.076491318801117 3.7333771621829177 3.4287280198238377 0.36034730714306973 0.819473569529266 1.3220681875117424
Ni 8.540367348642198 6.076831398287909 4.176115692657151 -1.5513637954209087 -0.11681087304417301 -0.19576328047967576
Ni 6.89864865090672 -0.14706526709171283 6.762470487022175 -0.5711222305402293 -0.728335675771165 0.41906230448577503
Ni 1.5489257822129099 2.9025308646377277 9.468564166925585 0.538532469529666 -0.36668507643563947 -1.1479245421843713
Ni 2.377847105712882 5.42211105933707 9.02424715773427 -0.5531913570934215 0.5125974948314591 -0.48213994967255025
Ni 2.200511163432967 0.2340951769846209 5.093016579912339 0.29678372345881143 -0.6730754697462795 -0.8506854763556962
Ni 1.2822435446056748 4.977377889090267 5.401615585681345 -1.7321151758727844 0.08215523064351658 0.18685260825360722
P 6.818982225063924 8.37592873246524 2.928882842662451 0.2698722437799481 0.2077739317873067 -0.3340698615037795
Ni 5.583946377281445 6.666817610060999 6.959527330068192 0.4433831406193267 0.3539028370693066 -0.23781855777851302
P 6.430568295454348 8.722011566166172 11.680620591358322 -0.01859987448937442 -0.605200660281177 0.8190143705046605
Ni 0.5746680016446923 8.290579049917516 8.07339064497575 -1.1914507476017804 0.9111539660543985 -0.6009223446207973
P 7.982051543184476 2.557676347708508 0.6458434586394642 0.36639814132284 -0.8914917117387807 0.15984265532366665
P 5.009964949712881 2.940361187897792 9.959219884656825 1.2809217951804197 -0.4071010183588408 -0.24242160376816313
P 2.584259322618657 3.040982331204245 12.900055899485771 -0.3160765102501524 -0.7111866747957042 0.16166711012691515
Ni 3.9539791877648693 8.767633451037833 11.420279768248617 0.8994793579299475 0.6548980275063044 0.08596123465316809
Ni 0.3711863285591841 6.948789641513105 10.323978633213594 0.6572318178458036 -0.3709356241818773 -1.018662073640407
Ni 8.1819555145088 2.8976909298954663 2.812296331286686 -1.4770925955111593 0.459033445562074 -0.3749794552339477
Ni 8.569856117706319 7.453132841360151 1.6131456663242953 0.09901421118238432 0.03214058928828658 0.5177389298230826
Ni 3.671310499039254 1.349590136559078 6.486647372663078 0.16903614889747662 -0.028634375907241008 1.8422213832032726
Ni 7.370322291243499 6.345090281303608 11.161616422521176 0.4016675060480953 -0.03438516234808917 -1.7454131785332714
Ni 5.056182659884252 6.3897496791526605 11.680165014167619 0.5071081895821138 0.4096716072994945 0.9731196091239175
Ni 2.68093885240395 7.452647014577312 7.032309682063567 1.1079009506035824 0.10289143474960345 0.040257047747833896
Ni 7.673991530148132 8.724092371443621 9.701696856887596 -0.3702018313396463 -1.0174744810902088 -0.11435546952514498
Ni 6.695160561241062 1.9734467249849268 12.1959223934485 0.2736574218539932 -1.4482905836778024 1.4338672091636209
Ni 8.911355679871017 8.577757677834784 12.202737718222878 -2.661382820808759 -1.0397998840602865 0.19374547871869857
Ni 3.7040075581787386 4.863941918568507 12.965808429598871 0.3968585146952262 0.4998191121198683 0.2615426408683302
Ni 4.121561928215681 2.9887330356911925 5.029464020136629 0.9268076134312555 1.0240415927847653 -0.5061008313635219
Ni 6.236540078239474 1.4631452721407792 2.2753009883612116 0.7162252656608762 -2.1210914596064567 -0.85074898260378
Ni 7.9926205673470285 3.0252617098349672 10.571453296466787 0.653939520247777 -0.03881543020530089 -1.9019455385367827
Ni 1.3482884874427878 6.014471405765927 3.0744209636782918 -0.38269739270349573 1.3428290742081777 -1.1735442996350047
Ni 0.28842252781220146 0.9269666682030616 9.88916091260828 0.38250713106956064 0.7547203364122809 -0.20933536273715564
Ni 3.2427196111430634 7.092236874054117 4.319119264513455 -0.3428900308985708 0.34646849227844845 0.3763074300167519
Ni 4.939098405219651 5.212389720382134 4.395779064228483 1.3675175780937934 1.080865543752345 0.8877445859915227
Ni 7.260177109684755 6.864604109935584 13.273789610364792 -1.8470427158513159 -0.6487914003879343 0.9571492018375902
Ni 5.5677490956724 3.447546016097302 2.8882585570738994 -0.36160560503020306 0.9362085950301812 0.03601601308329281
Ni 4.670216197275024 8.749272865263684 7.934063773545812 -0.23007079551229412 0.25786596334769135 -0.2683218685736927
Ni 6.646816213076879 4.231899607178947 0.4736371138629007 -0.6094856608097762 0.5026524678036052 1.0235559113975985
Ni 2.798994760634231 0.6486328376964156 0.13094590109878246 0.27740326204967064 0.8230692573003244 0.2059026829065228
Ni 5.558885048521325 7.3308511567734636 9.592676410163843 2.149417817354976 2.9780123753489036 2.158781775068379
P 6.902993592323068 4.246694407697906 4.4557621721317755 0.3965669515967364 -0.23559969575032327 -0.5082659573356407
Ni 7.981712381090794 1.6106166170906022 8.11728830309548 0.6764852667587768 -0.08897456755819516 -0.1930602797262159
P 0.024927497231262353 4.791388730149944 9.239952416006913 0.17184045111549115 0.45649499541093636 1.275182064483165
Ni 7.478267502464852 0.7121872307807398 4.534742940552751 -0.6748826981583473 -1.6369308799594517 -2.8613549971634593
P 1.7014570589387341 1.642974514136405 7.651183337675224 -0.24312120093834902 -0.6472986178924917 -0.3440076894427817
P 1.4613119635262861 6.950237955318555 0.8656406617396537 0.5441557292537145 -1.0869050650782057 0.8255256892606169
P 5.200775710309321 6.13632226282821 0.5336614712100185 0.16415850909020113 0.23513664007097568 0.4088192866015282
Ni 8.554263827940055 5.12938667286096 1.7258950627699268 0.6336473456576442 -0.7402609664538412 -0.2811251909859481
Ni 4.660701325565805 2.8485399259409063 0.6339315359167955 0.45248176048648525 -0.5290484412986308 0.2906518995294607
Ni 2.468256720036608 8.35038157692228 9.390133391088956 0.9272002208839838 -0.3587347112403112 -0.004546738830417976
Ni 1.2951042045363437 4.226023853069497 11.157202732031783 0.03187936520709994 1.2900121875174622 1.0119715489941088
Ni 6.05077091633289 4.0967572626615905 11.637769752457467 -0.7256211050534793 0.644867896963812 -0.6307795371915459
Ni 0.41336800981574806 3.5141776176910526 7.548483222399937 0.2805369225826459 -0.32848054034146007 -1.906497162463207
Ni 2.275860147488632 1.546615813358649 11.281516639217637 -0.8706066407596554 0.627866477309809 0.16023860521050468
Ni 0.3512371808705777 6.438185692747568 12.667406286343676 -0.9247247627602978 1.5472898824618513 -1.9552974717953615
Ni 3.470902367845944 1.4088426709794941 9.089289280759257 -0.28604988198107506 -0.9874062009499188 0.21803494739368257
Ni 5.1355557563487295 0.41195727883689565 0.34180114143178186 0.4859030162594084 0.3086565636369974 -1.748853314563072
Ni 1.2260434690283897 2.947144429771417 1.3995065468601882 -2.036866490918105 -2.530376887211126 -2.0194464956694445
Ni 5.861124306706654 4.352384649323432 6.838835124050269 -3.3538001854167594 -0.7469540622033007 -1.6246582332396857
Ni 0.6129117359973253 0.6117411684469714 0.8626377022291141 -0.42819820534877223 -0.6156406246675784 1.3088830562800362
Ni 7.94730117839676 4.910012964050719 6.2179484955799 0.44558709024918103 1.5604102218938933 0.15871188415333312
Ni 3.877356054222131 3.490692934339396 8.185187637596153 -0.31670591630403516 1.2097420897118003 -0.7181337955374987
Ni 0.850129954206735 7.506317124266595 5.538366658507919 0.09030614188542511 -0.2549035382852578 -1.1544551442140376
Ni 0.5282284611309683 1.5664247129382465 3.9282661177922966 1.5515656270190699 -1.091594757244391 -1.2914622897004275
Ni 3.5335098570308823 5.848611975412739 2.1726531223814374 1.5797107219947182 2.2774993782169615 -1.0399322958730928
Ni 6.5305936134610905 2.271698536933733 5.610625600893856 -2.733422560284828 0.9721333339512483 1.3131929965092997
Ni 1.88853703650468 2.6193855156723447 5.544027915509473 -0.6386501981888744 0.5148243272794488 0.9781553717756122
Ni 9.058313698408782 0.4588633963930082 6.019282007570356 1.6713034439020504 0.6806136871048537 1.2445987923796695
Ni 1.3389202804227283 4.798657798806409 0.1330367895736118 1.5845397679522455 -1.007441265223923 1.487705595140315
Ni 3.1166429777243745 3.7379146010037876 2.0982070428184096 1.0799024085081272 -1.3611013901548041 1.2234530115399898
Ni 4.535211350903754 8.695355258911443 5.387407443919023 0.9777910464576579 -0.21940354560643502 0.4955963322877722
Ni 4.185370234543113 1.0611923584131722 3.5837791792402824 -0.3690877723398611 0.23117302743753734 -0.2207600596343295
P 4.181080292385199 6.4954582538643315 8.516754333687526 -3.311393952536407 -1.2949093677087633 -1.492493760557578
Ni 2.1669707823308157 8.289570730179545 2.2334419694207983 1.6176483775807557 0.4589943647940224 0.7219526550629566
P 2.3312260676463232 1.287211810950951 2.441325416489705 -0.4287779891116422 0.42783953645777284 0.16191393603039858
Ni 6.322623084232996 6.063805740581936 2.4243141458558233 0.3635568152193029 0.3099608842707178 -0.15178636067809342
P 8.137809443071808 7.142057035652965 6.485654636048329 -1.2358148755394522 0.8118109107776857 -0.14572395653409742
P 1.368794044295893 8.820826900487347 11.20747297089549 3.546534706372441 -1.24883057107283 -1.1336659753828282
P 2.953157682026954 4.90901381085582 4.141958403206224 -0.799760664481371 -1.3359894255785252 -0.6236699227299581
Ni 8.48980469705448 4.461237348308958 12.30194996385909 -1.423388164009168 -0.763216289698434 1.0346034274610119
