# total energy = -381166.2571116538 ev
CRYSTAL
PRIMVEC
9.30700247676997 0.00000000000000 0.00000000000000

0.00000000000000 9.30700247676997 0.00000000000000

0.00000000000000 0.00000000000000 13.62173889098594

PRIMCOORD
 96 1
Ni 7.347068826800342 0.6483509285516506 11.973495115037458 -0.009242087423558277 0.2910139108545698 -0.33713950156803874
Ni 2.32812808110134 8.060748398553915 12.793006474515977 -0.03211230715351244 -0.9457587006124617 -0.6221151766483286
Ni 9.229214651324396 7.8890342009736045 7.6534013710820705 -0.024735297963150948 0.461944705671598 -0.22929612212979864
Ni 7.839036983119868 6.703787422553407 5.90446574376925 -0.3133010043875443 -0.9359280876752849 1.023862901115056
Ni 0.47000083813259885 4.782207828102645 8.938939478592006 -0.6386877362950291 0.5942495605863121 0.3430615234794285
Ni 5.836123493132285 3.023677611831258 8.29168863774518 -0.1352981332150831 -0.26124053624687915 -1.294188944602971
Ni 0.39898003215343364 1.0358414660214585 8.172853106017024 -0.5020708842685224 -0.6547967260417498 0.535221145768246
Ni 5.469269372480626 7.411389521622973 9.205476210546706 1.8089322821328393 -0.9228350019367526 -1.3186645611468322
Ni 6.494137882461586 5.502783888767167 7.733565376394726 0.13942398245799859 -1.1278429409431479 -0.873848801846037
Ni 5.048937215010728 1.6004693914742905 2.5428248086916865 0.41975238857426417 0.9204657303736276 0.8372851437893902
Ni 1.0756661300564803 3.0255297053444545 10.250740085979022 2.5898313338230174 0.03981661777630562 -3.504117417748494
Ni 7.701749388078829 1.4449772993889647 6.680945246124065 -0.47091579882195667 0.495242034272147 -0.030019172069909592
Ni 8.33269901390875 6.590437438145243 1.4227363553262184 -0.33709425015240013 0.23279256531883133 1.447037942217624
Ni 4.431780567002705 8.715067907859401 2.496388450024629 0.17723565398913346 -1.7119880661056066 0.9454529964465846
Ni 4.461153467141647 0.34972737450600777 4.713789260044534 -0.9937609395233531 0.6168984083340795 0.27459227496343674
Ni 5.544274506263808 5.608641736099333 11.674579321110837 0.4059440219362622 0.1519902491587834 0.590400619153867
Ni 8.216566235729502 2.880749973227418 8.60492046303863 0.24325335564083914 -0.3344444712343788 0.15698230305673608
Ni 4.762058167519372 7.767121774192873 0.35030627006641396 -3.8354652523354202 -2.406504479334481 -0.8407779874339971
Ni 4.373844475949185 4.125310279082809 3.5678878350265455 -0.873934676691624 0.04254738644390737 0.7804066854347915
Ni 0.11021166313856534 3.920760976404214 2.8911868459193726 0.4336492011610144 0.43008050997314967 0.4432229608923786
Ni 5.172953024374286 6.839399757130248 6.676886462299415 -0.5790142316937963 0.7149374000873882 1.9603574028167723
Ni 2.763509661741284 2.745174866660893 2.2064632205892063 -0.12537264657125505 -0.25261062848602306 0.08950858568479422
Ni 9.043130441762294 2.23898561040084 4.5474265889470775 -2.1671527727408932 -0.9188109683790241 0.6354373476785314
Ni 7.83652409242357 5.841689080674454 3.7519719697344445 1.6096242217246988 -0.541991117502228 0.07551689939139251
P 7.144045872544683 4.523426621396923 9.40830371774821 -0.03105969751928199 0.18541561869676454 1.8514830110108564
Ni 0.701525557085816 3.181961804690247 0.7372318724796839 -0.5739512153485922 -1.5583155441483938 2.1839932413370002
P 2.476909824327294 4.033747987711801 8.348450185073245 -0.25862546722153523 1.6477138295075688 0.07006616068946643
Ni 7.093117954433059 8.034195520196374 2.9156242425907344 0.4376999741916204 0.9547814729363623 0.4642317019335618
P 2.6844559818362885 0.6507716799224169 3.586195639799458 -0.9288117883454778 1.5346400549083248 -0.9236060757748222
P 2.103391889829157 9.173074811768599 7.6230661268764734 -0.09131144322148789 -0.6039431337249922 1.6410521012166772
P 2.49279687772944 6.650523446794484 10.958225847516351 0.1728192700889927 -0.9409818480491084 0.6707097977275803
Ni 4.38260236537591 7.636228089923524 11.219981572246283 -2.18001445919491 -1.2430946970303172 2.3650739801038365
Ni 7.287262028228468 9.33101464553217 9.457151520783453 0.6007511091502558 -0.36349870828785785 -1.8977425561990287
Ni 4.020429667021426 4.218380304871596 6.754979659538271 0.5058565765631998 1.8844247560441998 0.37449017430235504
Ni 7.578226849851951 1.7587163563229642 2.274149327544359 0.41295824847056617 0.42963288091276974 -0.17220143399933568
Ni 2.5894035644982005 7.788788476196502 3.802099485624285 1.4958259102546045 -1.2359434306975166 2.029388437373505
Ni 5.40829919858639 0.5373342096900122 6.860642990516538 0.6541863461512605 -0.6951180513686158 0.6144198648865998
Ni 5.922380793033333 5.284227547207359 5.108342881771454 -0.42718313382069656 -0.2529176182034806 0.44781623669001586
Ni 3.9966223544246544 0.6785233002121174 0.5825336677143366 -1.6023073763483116 0.2897363296937268 0.3493751244022822
Ni 8.606054986652996 9.244040706432548 1.1822294481841251 -1.1415101540175956 -1.0768535943794746 -0.8932030380029327
Ni 2.163608196514502 8.210712131107387 1.6673011155927022 0.09428312425530214 1.168338587064349 -2.5524716622276364
Ni 7.838785694050239 2.8209338676529647 13.447734561234675 2.6125881679035587 0.8185569712522677 -2.3016908878615006
Ni 4.6618310567474275 3.6673312961813482 12.674755422549776 1.937925556175817 -1.7688986632497212 0.8051723224152455
Ni 6.193875365261802 3.3593625808462533 11.020408723846614 0.8964832514161012 -0.442929855131992 -0.41554272136829074
Ni 8.65848133217982 4.082805198305071 11.175042710294168 -1.5190427146907002 0.35036782733285465 -0.38150465794697525
Ni 4.866277982397656 3.5629718762643816 1.3542312321441239 0.4227703494649816 1.450831090711469 0.09274637589580158
Ni 7.140053168438344 7.451279334676046 11.156436150738474 0.11379548325661691 0.1147521907429314 -0.02918999130039489
Ni 4.649769181405201 1.8131157863965102 9.9150048591501 -0.08667702977327008 -0.13666390321435817 -0.3672288647542514
Ni 1.3785625289860866 5.980195893053327 7.271052952537093 0.607284025172767 0.0118530426838441 -0.8881554482766961
Ni 6.115575552565696 1.80714069074087 0.24553827273623477 -1.4175563878187394 -1.8397040160980571 1.450796895039424
Ni 0.2819370291219713 4.903366387674486 5.395747774908515 -0.5292942387608498 0.26823265129399615 0.021065562421047592
Ni 7.99257460466363 6.568826578157087 9.20738321537512 0.6670855707114318 -0.06190393659364823 0.2394344961153812
Ni 8.46591944882282 8.84729249349753 5.649629775456715 -0.14143972733644675 1.6892749407788068 -1.6999115945570464
Ni 5.855026015369988 5.901160827153489 2.6516487977457412 -1.0984596026850244 0.034059146467238115 -1.095341625881333
Ni 0.2947369497687032 6.399997551376228 11.508789030671982 1.1243770938817348 -1.0663758347766021 -0.874554826774126
Ni 1.7223538972472854 0.7737572041004933 5.742557404106045 -0.9154006571458944 -0.27657330994920754 -1.0821994320724202
P 9.021947703892767 7.833722684647328 12.97015689230261 0.3226042840663412 0.41779860728200297 0.8769822052686962
Ni 7.6605752086698695 3.847514866108439 6.092499770371625 -0.844820532934487 -0.23860505823555037 0.4433813408471138
P 6.203899007039254 -0.385580740540622 1.2043494012133462 1.0954827794448876 3.1502883713399163 1.0417498086978059
Ni 2.6705792409911804 1.968514808456047 8.41368482754912 0.3055822955870479 -0.8388285770171102 0.5088141165296269
P 7.088678514202934 8.419002848822691 7.34748391911536 -0.44906167906134276 -0.40269620442292586 -0.1213730384935587
P 8.710004898456491 1.4131380435666208 10.157512771846653 0.8376512688795574 0.45079408837141716 0.946307116916764
P 5.8985176384210884 5.394831965854753 0.40192290636887507 -0.14328449385466935 0.2400675017136898 -0.4140627943886547
Ni 4.64919214724531 4.790016403266324 9.470473564274862 1.6178885186160201 -1.0641448885635543 0.32968073129714837
Ni 0.5021928293526823 2.0023271488251133 11.954302214319293 -1.000291027332387 -2.2698367194653812 2.7206315791677467
Ni 0.9035694146701772 5.929240053933967 0.3455057181362284 1.2910470565398797 0.6645540625388296 0.42436829007972077
Ni 0.6572586607198954 3.0075020413491664 6.822162257653907 0.5571220596063953 0.3594751889507616 0.0409684719925617
Ni 3.13587352791964 6.225333033978412 2.0046027109556492 0.6298433985305216 -1.510063394010225 0.2090119179594658
Ni 6.741890291111336 3.6051791329595964 3.750241797955031 0.194688045137626 -1.4500569315496061 0.2492324560424095
Ni 0.7341009968121491 1.3454389068078572 2.465235120292349 0.6120755330241394 1.0731566051438615 0.3240680130960612
Ni 3.5098475055441423 6.270788434573656 8.427143683978437 -1.4782645043320735 1.2432211953058525 -0.7143527312285116
Ni 6.857660096190008 7.522840877505044 13.419374262976316 1.4331537280363642 -0.3660482141825889 -0.4187306321779692
Ni 0.5514966755142919 8.522040674373457 3.199828457540921 -2.5314287255144077 -0.9952796901607245 1.2650652877641375
Ni 1.2865721154964498 4.1238211586701885 12.635334682426677 1.1336423212337443 0.9532984606329324 -3.054941067486158
Ni 1.2980197286684705 0.603354363183546 0.18578452407906007 0.29140420431445296 0.805158952678807 -0.3123435255702814
Ni 1.2752548003605333 7.299612420650639 9.398795683913628 0.3733257216806086 -0.03422241151797977 -0.6729605414349701
Ni 3.2173749495028807 4.0445068826929855 11.08685606875852 -1.395221728877281 0.4109026514931181 -0.8985195651198397
Ni 4.668150511498486 1.4502450628486099 12.168136182770578 0.27372864141156084 -1.3387651885514493 -1.9211928168021688
Ni 6.722885391845265 0.8450944481673403 4.211842135559934 0.3137504332201371 0.3062078449861888 1.24136048794803
Ni 7.995692450527554 5.501815960498964 12.922466880388178 -0.8561755529359899 -1.1265779581877953 0.5122727645021887
Ni 3.3551465086780214 5.071208872181984 13.513950161782365 -1.2414592183094233 2.1698002376660694 0.826803527531776
Ni 5.63738176006291 7.6882635413420335 4.7738882984973845 1.0545973540844356 0.5552271565765277 -2.19592624532916
Ni 2.059192934582062 5.0001592144948255 4.055640849878097 1.7469309007293785 2.1740507854123075 -0.7415254349885616
Ni 2.438788341764207 0.7018205890675664 10.673912740635993 0.07785968859195623 0.16803624687805255 0.5630263409059723
Ni 1.82033802039772 2.8843238622177076 4.53962173658443 1.3587066646703825 -0.9396163351601495 0.21432176020815347
Ni 9.476203885762677 8.73931264957738 10.993505902192108 -0.10451482928563936 1.0324277599659315 0.15795160894854088
Ni 4.02280295267904 9.14567499617638 8.732869411692022 -1.1431039808672765 -0.2531862984838349 -0.2050398206855953
Ni 3.6318995373635574 2.1018748484087997 6.263112018846597 -0.190021235789576 -0.7495678456770639 -0.7382264525223157
P 3.9295002518257816 6.295749815490208 4.728201153537928 0.11219522864903257 -1.1034400866187513 -0.04780477818810477
Ni 1.0281911099016203 7.543064994108947 5.51232263571026 -0.6378582984151981 -1.0054733428642748 -0.13084241143657466
P 0.870926964525276 6.217226634732209 2.665693064637269 -0.1054244855841023 0.18370609220482556 -0.3732573303365184
Ni 7.486227129359736 4.108306385371199 1.5895476239479764 -0.7364215381030931 1.4282141246429017 -0.2661402875413416
P 2.755887226629182 2.034864429840873 12.945351869029384 -1.0865127147357934 0.6363593452721685 -0.4204139334176631
P 5.614579603744658 -0.24918010284535 10.675983548709793 0.5308096469641116 3.3249536934987125 0.06516383829184261
P 5.689621965538156 2.426279730298194 5.667964570537106 1.0474833687474734 0.46551442530072734 -0.18441083158133403
Ni 3.2088776561483643 7.910859122021075 6.36776833214583 0.12875750388308793 0.22707391766749924 -0.31404739563526557
