# total energy = -381172.38130774745 ev
CRYSTAL
PRIMVEC
9.18793041656670 0.00000000000000 0.00000000000000

0.00000000000000 9.18793041656670 0.00000000000000

0.00000000000000 0.00000000000000 13.44746489488694

PRIMCOORD
 96 1
Ni 8.685626149098209 7.045543839091516 3.6448951326945727 0.3473377822572792 -0.03076941997237281 1.169407651758812
Ni 5.902353987558985 5.605234697565504 0.6095750732412495 -0.3399049801283178 0.2728634651977881 0.5257553723696557
Ni 0.5145213403379295 2.1543215808844574 10.300785279377141 -0.6626442471106264 -1.107382359095951 -1.7102489719273124
Ni 5.177205776678735 5.176737192233512 9.011912523824336 3.1149354457619194 0.8964994493660173 -0.04525527229337367
Ni 1.4717134872863464 4.450523181438633 11.574259982542658 -0.5983594689896277 -0.6119073828773913 -0.31181799208411454
Ni 2.1749852361258246 2.590040799431086 13.06193933630874 -0.322218104371516 -0.2015238371125368 -0.028064619446700054
Ni 6.000315700401787 4.335214656192229 5.311842950894133 1.4978431977949493 1.4357567128768498 2.025289841824099
Ni 8.205731361676305 6.295496337102281 1.1759778995958219 -0.4510445138193265 -0.18192766014816408 1.0674919506589164
Ni 4.997884941042556 6.300871276326914 7.0206123902264865 -0.47414818971632544 0.9580066647418792 -1.4075532538594404
Ni 6.7423972668222065 7.556181441292262 2.7039628659954427 -1.5965506763701924 -0.21765776655992194 -0.20709156100830142
Ni 5.79196100502229 1.230484377298751 8.416687160123312 0.5625933671336116 -0.1828008067817368 0.33414519482640515
Ni 0.2122898859263525 7.770370472411318 13.203715532366084 0.04822283956212985 -1.6014637974010935 -1.505734170507252
Ni 0.2153513043018188 6.535632083384352 11.082176486786741 0.30128598220453917 0.7477922418338799 -0.22347385902106673
Ni 2.652601416833696 6.433214224346771 12.0817672568907 0.038120975241437566 -0.024736840625047718 0.08034928778302936
Ni 1.9587748603410946 8.54504162760058 0.5772298834183461 0.6343441146143526 0.4108201190816409 3.177945213825237
Ni 8.357074949553496 7.322302675543481 8.731546505937173 1.1339814497407181 -2.1047994073146525 -2.0317119433003588
Ni 5.179980531628888 2.5310818507054944 10.402421245546318 -0.4032739313032667 0.8705783586248813 1.662946073076291
Ni 5.752783670229409 0.43320172564483456 12.139443570546616 -0.1410589469582603 0.11940768723707178 0.6130857194562086
Ni 8.041662490335664 0.4666200657266049 12.246619858685802 1.0999492998566733 -0.3950636275783325 0.08856396238333779
Ni 7.345373568523061 0.0033581885241084014 4.61802098836668 -0.36892553573038395 0.08063262335140307 -1.9224143479140958
Ni 7.332142948893194 1.7053717427079627 10.454395529658976 0.08140755384421462 -0.4438230563702228 -1.515579695842764
Ni 3.554516218727138 6.556654067907363 1.0374312610384062 -0.9388025810096026 0.5085230676517694 0.12029626048961216
Ni 7.073815100620056 2.3790216042650187 4.330056552122642 -0.6574012535441324 0.7537554013958503 -1.5051775266728336
Ni 2.5270667251650423 7.907619775210583 10.283545046965001 -1.3428205895677454 -0.10236924369754627 -0.43711170578831815
P 2.0101078269189157 1.2575612078884844 1.7679112278708866 1.7434424279601457 1.2273315206587896 1.0051244441652885
Ni 3.0218459596705456 5.376896253786731 7.830929039801881 -1.1697465231554693 -0.26820848292428 0.8311867442011363
P 8.967704797193015 4.283863313753812 3.2123034856215593 -1.3006380426624247 -0.5516916326194434 0.7119947725192963
Ni 0.26009376847651283 3.4409074605859606 6.012522784596398 -0.1633699517506348 0.0917539300755452 -0.3355279341065447
P 6.408434376331667 3.488445811950494 7.582312833854277 -0.8383128137229562 1.0065506350888536 -0.19799988311967834
P 0.2685209381463137 8.905061488417719 10.294007343195924 0.2581716675135683 0.12183043774595147 -0.7830621207797676
P 1.315748370469 5.494878466750002 13.545899782887739 -0.2643094049801899 0.07438921354485253 0.1079757912510463
Ni 0.2851501731936018 5.04547841998888 7.574997403750597 0.5430162163326325 1.7787089644719238 0.5811479902073475
Ni 8.387459435050696 5.479626502454463 5.3640184506803275 0.11326609311570815 -0.6085464368249583 -0.5727443395246846
Ni 2.542493260136254 7.2845862216680635 3.7997025702943055 -1.6974968144679667 2.804365724262609 -1.0975517461587743
Ni 3.8313026189699992 8.2423360759856 8.15838871322713 0.13500014235869007 -0.7126226359112823 0.10398595336536286
Ni 7.836927839493784 8.729498516273633 0.9663359751815023 -2.226052632400895 -0.46812846588480667 -0.10305084314560317
Ni 4.704725649007736 8.209810802728846 4.447601419603704 0.6514784603017942 0.45117152631549395 -0.17558757686274923
Ni 3.563832780049836 9.00866459046381 2.491788747990852 -0.2404814493226568 -0.11827280230168018 0.05842549112674454
Ni 0.28835859845384443 2.1458135574280295 4.132002445400813 -0.09350150889427124 -0.0073852367204776045 0.07989163142032048
Ni 8.381083011423524 1.0168190582067105 2.489408155250506 -3.4061180209838695 2.5443518613339795 2.0201566343625914
Ni 7.129034561714151 6.216020740020099 10.360061211698032 -1.1871225525400717 -3.3048330114894373 0.10492234913670316
Ni 3.422586727570715 3.284005174878166 1.666921173201694 -1.792591893101603 1.6156861116480628 0.8348179131958203
Ni 6.300503759114974 6.681536416524821 4.982608169335211 0.9577230720631892 0.1343483677073041 -0.09131015766990726
Ni 7.175929757957787 5.5831928527793595 7.325775713196321 -0.021646117514865948 -0.290500461553261 0.77415736209097
Ni 8.66714003333759 4.418677815023969 9.759228454135823 0.6730608144582602 0.7316277162588755 0.964380686589023
Ni 3.617361661969003 4.523870429011704 13.099861599822844 -1.3604174767139021 0.31643389358957114 0.3500464394376939
Ni 1.363139714948757 5.3412287083678835 4.065208948509675 0.7668235474337181 -1.2401574687788641 1.6296567148955419
Ni 0.6961336457905597 1.2519749462669851 6.529430230432853 -0.1774320862706557 -1.248201165018947 0.5891724031737208
Ni 8.243989903439335 2.765438388829798 8.324209722875697 0.4637125962052982 -0.2820505310136949 -1.0262514559518905
Ni 1.6594137153547748 3.2153713355482347 8.368572725529063 -0.39814612315839815 0.3093109093915447 0.38691091656421106
Ni 0.7360377458700541 8.782292363768919 2.7053612689868776 1.911327751082631 -0.5077928743539643 0.6749328346699924
Ni 7.883317699571002 5.106183075471191 12.699678539291794 0.6929464976385937 -2.18316971699444 -1.0827740736289675
Ni 3.584138106009561 4.630257473938246 10.268524618512984 -2.7253559812266097 0.19459959918887776 1.3729971131511256
Ni 2.4970038172282907 2.653354827118175 3.9436976515187423 -0.25237460121581695 -0.9361738851375038 -0.6442541746392131
Ni 1.1391563501314803 6.538811107267641 2.0652886987057566 1.0654396961155779 -0.6196852270505973 -1.6373790232404637
Ni 2.6672469777295342 2.391213987771152 10.484948154280639 1.6174845983093822 0.13010167661580818 0.33513584087444864
P 3.783194615926958 1.5167802854005783 12.151963044371378 0.9371730158259796 -0.18332942559169715 -0.45955923615855687
Ni 4.359718866298378 1.4501218510848286 1.0041773849089792 -0.0007911284427276697 -2.5101518184135023 -1.820026592273788
P 0.673834538956056 9.007047514731271 4.9576629385747335 -0.6162486905652226 -0.8010256472367236 -0.5478874283820048
Ni 5.704988056816516 3.1085616458279604 1.9175146217495391 0.4883401649459912 -0.43337872110844716 0.9432176793581627
P 3.6859587495777393 1.057962610083475 7.447636151538597 0.27186099207520276 0.4190350507922654 0.6141614690188907
P 1.4160438176076249 5.701735529490842 9.451079972611998 0.7612239418587535 -0.0028472396408079997 -0.3056895105888735
P 4.462522618408498 1.2673004140049136 4.424672939543752 0.7234696059281153 0.5468988392164904 -1.9600365291422437
Ni 5.936128819336338 0.551436606691316 2.715769356429039 -0.6450077649757859 1.0158500581129086 -0.24617567149395667
Ni 1.319892127033632 0.4926862239835011 12.01900818019364 0.5058696891893224 0.05039053663740999 -0.8633201344005712
Ni 7.261386697664305 8.378225565100685 10.229714800932044 -1.7705577961196992 3.88528269007818 2.3507675907834935
Ni 5.326298321632791 8.087978846970495 0.5852766727737883 0.9712403898233337 0.23057601728348676 0.5171653167077996
Ni 2.9432064642455287 0.23036162603050797 5.48013735137906 -1.4250434402244039 0.26046817685722884 0.41477833239844053
Ni 4.853358797446865 7.196896614899006 10.97998924479965 0.3484572405737031 0.19417253895378817 -0.6637912162308761
Ni 4.045730536276817 5.869075304017754 4.260143752895157 1.840816532435946 -0.5416242210811124 0.9782013945221992
Ni 7.374637126523841 1.495960435344136 6.380351467374246 1.4401597270405522 -0.06819774002215996 1.007080796560711
Ni 5.430489451217987 3.151919488906668 13.140862738779981 1.11417907030281 -1.1920765541112373 -1.540524795823876
Ni 0.2956455459735992 1.30099255440958 0.6316646952649471 0.1459532989360841 0.5186413870326939 -1.7845893345121004
Ni 5.366412825316122 5.1159314695179186 11.838623382228892 1.3529785039373536 -0.16489770124907085 -1.4839690109160184
Ni 4.203615930526554 3.1772322368790853 8.391177790442507 -0.6552063027753426 -0.8571559145713884 -1.019099932508774
Ni 0.9301217479098928 3.669512354343392 1.4076001096632866 1.280316814606569 0.5449602274328808 0.11893460425539518
Ni 4.415783616979936 0.21372687822504077 10.219764272418747 -0.5383630338313373 0.7610640192421215 -0.08599311633236803
Ni 1.9396272135989827 0.7586354604392596 8.744631037475292 -0.1510641378000882 -0.16096777006704538 0.04564967951831493
Ni 1.2435863659044382 7.780615014694166 7.891415941336117 0.7915570456246561 -0.4869044609407292 -0.33151624184399037
Ni 2.6239993898144096 2.641833162523833 6.285990504415435 0.5604657792676476 0.6116536149953724 -0.09922041365591944
Ni 5.251637200027032 2.247349375156954 6.241412504193083 -1.687163807973075 -0.6414719839083856 -0.7670482618500145
Ni 6.744887195933105 5.063495951304275 2.875888336534345 0.5783200338402492 0.39030168741331495 1.2991565730208916
Ni 5.862221108015059 8.682566568308802 6.713337680874053 -0.6604996899637979 -0.21619815129525988 0.0937475634668063
Ni 4.562634306941152 3.6028263562367466 3.8561274878435654 -0.023849810034404086 -1.3324960677132858 -0.011370960841102997
Ni 3.4724955649522666 8.52265982939339 12.617204920553204 2.5992402858417427 0.8943803461404856 -2.140076999570024
Ni 8.79505439895356 2.8363232710828665 12.135234579676867 -0.48625294339965924 0.29550742784954914 2.3464442808177908
Ni 2.8737089594675367 7.104309841280838 6.055016962227045 -0.11874305706987937 -0.4238913504433023 0.8837244090885361
Ni 8.42661839398298 0.43502277343000084 8.309713006450695 0.3563752098691991 -0.19421110550120746 0.7633255615827885
P 7.102766268990687 1.722681803390371 0.4259386667438559 -0.3274634119308554 -1.1115501173203952 0.05881578458662774
Ni 7.308649411119883 7.188232396627504 12.442037948204986 -1.7062694184542746 1.9588489365920458 0.5542293114396326
P 7.0758272573554315 3.715323374811804 11.066953923868155 -0.9606050215966746 1.286158618099327 0.6495933274639393
Ni 7.989906878964112 7.982198205443655 6.279724335951845 2.5346485180032867 -1.308492762820153 1.360598996597089
P 4.553869021436366 5.220673874921025 2.3437050377835744 0.5457873513198666 -0.8499064320978266 -1.2042463567045518
P 3.0831478306222593 4.7252698611552235 5.737468309214808 -0.6727060022220027 -0.1574425305226063 0.2507455502528262
P 6.034853130393917 7.398737067696854 8.758562696186935 -0.9510585155588202 -0.5586279547279605 -1.029071184788873
Ni 7.861854694393664 3.45808889024419 1.4236964447532605 0.40781295682420093 0.29910234428965904 -0.670693342667348
