# total energy = -340886.1475822204 ev
CRYSTAL
PRIMVEC
9.05630034920667 0.00000000000000 0.00000000000000
0.00000000000000 9.05630034920667 0.00000000000000
0.00000000000000 0.00000000000000 13.25481098593620
PRIMCOORD
 96 1
Ni 6.681502760178082 1.574211367285856 10.995143481335116 -2.662207116482267 0.8780888080693134 1.5519613197955917
Ni 4.629046296481286 0.588777239300189 5.690263543819452 -0.843974639994424 0.0062212983193634785 0.6659761396973369
Ni 2.5777399828989482 1.731763820366092 4.689644717432933 1.1576065453588258 -1.2036745433614817 0.2953174233259301
Ni 3.912366930673529 4.463488074100429 5.105090711964566 -1.6351982135390613 -0.0062030434869183495 -2.329659090939652
Ni 3.643086903089018 2.7082503238392985 2.443749305824854 -0.3163040528799262 0.2562271421926877 1.0710704120387942
Ni 5.559400007174663 4.7102631959020815 2.781137238415395 0.4911041008443735 -1.7367285062750801 -0.3112623766909607
Ni 5.4474550814676554 4.4148285735888395 11.70959137479483 0.021940508826833183 -0.49444087852709045 -0.46732679591911774
Ni 5.540173482033008 8.167840847459482 12.030530349488627 0.3061412534143114 -0.8991636264617417 0.8592277094987525
Ni 1.9582709425130016 6.526141931725392 0.2833191040209646 1.4276124865031607 -0.6772069754161499 -0.45000244570805725
Ni 2.7725591109475793 1.5313297862468884 0.1393357054012745 0.9902315862138559 0.6532720618671071 0.0791282708917347
Ni 8.287565134964265 9.091800810272495 6.720188557374314 -1.920451310650454 0.13995182993701058 0.16501571488417388
Ni 8.926025236688906 2.4607054165279707 1.3388951820182278 -0.38412538339927393 -0.6961179533880398 -0.8982830236290014
Ni 7.229526648966052 0.721001937852087 4.771095269396663 -0.7870897538819218 1.3186630184849353 -1.5506695975673617
Ni 1.235786488332281 7.749937878706967 2.277812530099237 0.17305838268299228 -0.047506016000763346 0.4696698422299976
Ni 8.14762718560542 3.720554494262688 3.3165257772845553 -0.8397590592511794 1.1803451246069219 1.41340354199263
Ni 7.574028305296006 3.4656196460584776 12.544976194344564 0.02364463600213347 0.47943952002225176 0.4997072691323523
Ni 8.153794525982937 7.115969701838784 8.879318274481857 0.4810487734909005 0.09465387733115957 0.5226872749672934
Ni 6.7371990058781135 0.8941792255187078 0.020572291338567812 0.4296436795460471 0.5026784359455342 0.7774501739096288
Ni 1.6808674137263881 6.7309229898992315 9.022880555146255 0.27473240008572686 -0.16178075288664398 -0.48861501587393263
Ni 0.15101923817812177 4.828248673785009 1.1255667877969582 0.33331549983625824 0.12191117038521587 1.6380742495352758
Ni 6.414033992616336 1.9390806425718035 6.780431971361497 0.3059589622001763 0.5400823305152892 1.34712050249468
Ni 3.7992084607512693 4.798181757407106 1.0360651850320355 0.06528005215473273 0.0034691894955230576 -0.5786532488099518
Ni 6.170075380150083 6.263002075618055 4.583208739085166 -0.4993694261769593 -2.2749136197676565 1.2446401871405661
Ni 5.327776075463441 2.9387603306365193 9.32509110120466 0.4727816483861019 -0.1281754061273728 0.14244065779713533
P 0.25069921664097367 5.598170027961953 12.490286103587177 0.45231078212625975 -0.6190141691255017 -2.5213798259188382
P 4.1088976994436734 6.009769811835244 12.391883063440376 -0.07115450865763875 0.777034683638765 0.6366755909610068
P 2.843515222339408 8.400768886387093 0.9409631662767228 -0.462412646446952 1.243829775424129 0.3503637135677966
P 6.1943281518549105 8.17290331922311 5.623684342272635 0.9256400754857155 -1.6633571924717803 1.234376600431029
P 4.772470921383953 2.162037695074093 11.942451491471587 0.25553654388356634 -1.1665395861823975 -0.8492484867988536
P 4.4114596299464965 6.235742612275438 8.169907495145457 -1.8810900352440119 -0.9927929191831288 -2.110938687443171
P 4.8536878208047485 1.2283150407383745 3.517826499324652 -1.6469283574917957 -1.6249179146589758 0.09035422151454117
P 0.2727087428076057 6.05922626675685 3.2680926842758127 -0.7103191845890863 -0.3522694152309417 1.6724265017629003
Ni 0.8242709280500483 -0.18040874330751086 4.461874241420144 0.7153706309700648 1.0122906228964244 -0.40044648915680064
Ni 2.120804360655842 6.498067401372531 4.8336851707433395 -0.7282688270889716 0.40624741210929394 -0.889702481048842
Ni 6.028018256564604 5.634205046114867 9.461284270466438 -0.10377126625139547 -0.2529888377610482 -0.6198029835753841
Ni 8.511944026584425 2.18806550160123 10.025753494631104 2.134642201707698 2.0169828646203003 -0.8759511929010205
Ni 2.383147262353162 5.205180940822574 6.849092310674472 0.004419983444566581 0.9077835069202689 1.2880594346664658
Ni 0.414588362910854 9.240324132139246 8.802943778731926 0.09310401634553643 -0.13823099059116195 0.6754182589468432
Ni 1.625714546033186 1.2028849500187502 11.177212244453491 -0.607334161684412 1.236828404405631 -1.0646336552745148
Ni 4.425786696726569 6.9748816023654845 1.635047063300484 -0.15870005707879123 0.12561227338588687 -0.3338870560690121
Ni 5.628255056940083 7.987511799592972 7.9164886715803 1.2806829396967363 0.29045803835109973 -0.6645669180546361
Ni 5.533616720750599 2.7932889819081272 4.7556008455319185 0.302477174299163 0.6083949988487587 -0.3319489585060348
Ni 0.6122638480153861 7.4062784582876 6.875177171892326 1.1990002778142639 -1.0828972294703931 -0.44175614653886497
Ni 5.23951337455409 4.75251083593308 6.84286248182617 0.27677668420926527 -0.3035308123746579 1.9681851263913073
Ni 0.7907807302291187 7.344197521007321 11.404571564441115 0.7656729787690426 0.3661960526143629 -0.7431444586492234
Ni 4.571783310861563 0.6384573848346059 10.286727083751217 -0.07861225048726463 0.14298341767448278 -0.6710458409107604
Ni 8.156402740415718 7.510996456503774 4.553000544425487 -0.23817362712508658 -0.5089879231033299 0.40976288146172
Ni 7.1784128911236165 6.115121751059386 6.945931327791617 0.053412868403501554 0.9240488197391956 0.025286799591246776
Ni 2.1125993527527154 5.396042465721463 2.6711357947128156 1.682959025863108 -0.33927120319906084 -1.2675415172187718
Ni 2.4781297379469724 5.598459829565595 10.994851868471452 -0.07928150864014732 -0.0181005662554527 1.1972393292590993
Ni 1.4511181361387289 3.347842463078167 3.5921859682992574 -0.6535412563680939 0.24604685922557626 -0.2030189336008245
Ni 1.559820906404986 1.0902155203026371 2.227589912188002 0.9069622965705542 -0.033353635759781265 0.7859332716799754
Ni 0.9509205682518749 3.3434954390235303 8.135670152565135 1.2162886325810665 -0.06260636197731154 0.2663585741997348
Ni 3.7924162356659 2.9533500301198936 6.966065294204675 -0.525057832081999 -0.7480987173307051 0.06136040538535239
Ni 4.217129542104011 7.004559097838493 5.858334889481898 0.16831238335757465 0.37744617160688543 0.6438448550159364
Ni 0.9583105091447571 0.031462492225443936 -0.14668670420366728 -0.9882338390575367 -0.2128973690568011 0.9603710512089977
P 0.3779112530798689 5.343787614064686 7.900834856833552 -1.2728978964346787 2.238999936590183 -0.8954910627061611
P 8.433181384494478 1.9893974460042225 7.728243511784297 -1.121254746202669 -1.2769723236143684 0.4822186254292857
P 2.071728270339017 3.4200574001858177 10.319214749149545 -1.3685843287954107 -1.2568824948430288 0.36935311018610584
P 4.125941656257894 6.010123007539684 3.611869836596659 -1.2914792589812918 1.68861725259015 0.3121211251468302
P 7.266485409730578 4.220353584944534 10.524677746721954 -0.0833353669945468 -0.997633792215198 -0.8565707314918797
P 6.40975941896261 7.650671773159317 10.105003365667176 -0.5714811565415449 1.7577655294510373 -0.16503628370946416
P 2.344902506972474 8.4752478985232 5.856001986572576 1.4617986454665663 0.17142444662399509 0.21179333735934494
P 7.199468788888263 3.9350167372582088 1.4022657364347157 -1.8555499819913788 0.035802097300273825 0.23317565968986295
Ni 5.10663933928403 2.7956073947372673 0.6818578918700956 1.3216048747220788 0.510132064010102 -0.840983418576584
Ni 1.359450266386579 1.2275452552286992 6.832841685750222 1.326556048079767 -0.42397259730319886 -0.3434759853090278
Ni 7.012909006543441 0.4956549277497587 8.967475922309887 -0.27906548024344197 0.47431428298054445 -0.9629375263845933
Ni 2.68207761651034 1.6766834030738005 8.836094365298587 -0.8349734649370781 -0.14549692812495588 1.2396327066236457
Ni 6.487380967238215 1.8495591159466307 2.4208051694864747 1.5391837084149491 0.496801408339467 0.00783980775939295
Ni 4.060455550134817 7.200709502003857 9.95652351404097 0.2667565809691018 0.4422850224591415 1.932169884638963
Ni 8.615919408191266 7.214049432071524 0.4415417233096238 -0.3636105512753738 0.1637327344066922 0.05355479329800455
Ni 7.494921523801732 4.002785031009971 8.33571204888941 0.4409837871492147 -0.30083398226878516 -0.5056814844379162
Ni 3.155703999863228 8.616363166896843 11.883521241000908 -0.32330259568494646 -1.255346774924793 0.9398287082812717
Ni 0.2837402219762576 5.001703989865125 10.077592662112659 -0.4853674554709125 -0.8761491678444394 0.8218469548574492
Ni 8.98558852253754 2.559056835764124 5.554799406716838 -1.3594067760612008 0.8297078456627646 -0.12311007578932347
Ni 3.2589186522605065 3.617973782873378 12.184616956515303 0.5459033080724405 0.3640592087770182 -0.005544069746680774
Ni 1.0253271299870717 3.2787881747102414 12.350898777275257 -1.4354494660490764 0.6553446281254197 0.07689038270015146
Ni 3.3223127530572905 8.260541135424608 7.884915692493468 -1.5701120225626894 1.2342958677917646 -0.4490549941931234
Ni 5.982745812295587 8.001784528572362 3.1484816005224516 -0.9143819860733929 3.050930146554552 -0.0007193946645277933
Ni 3.455992799037481 8.545769307509566 3.6846915458119356 -0.26226152131222574 -0.35677938728615327 -0.27315939917165216
Ni 3.4328901774471094 4.3901048742780935 9.132643818155842 0.922859684527101 0.8728998076692064 -1.5810780346558897
Ni 7.473458092531964 6.295867388731131 11.430020673390976 0.223688289024718 -0.6341206857496369 0.3780742921091876
Ni 8.356311509128322 9.153564777048791 2.1103914267849646 -0.8332559680253391 -0.660403787815882 -0.10272559859570049
Ni 4.712608777631562 0.3481468171257674 1.2617336937884047 0.42359001715279954 0.029724266537310102 0.6160458305257972
Ni 6.2739511424556715 5.737057446507593 0.3734419689736956 -0.11918837213741407 0.3551755331341432 -0.2433212327642971
Ni 8.153359823577473 8.852442798264066 10.96937649625126 0.36632023689705295 -0.6296811619210446 0.6107704410594706
Ni -0.0752161949653729 5.3999276184702945 5.616023618006349 0.4197670438622836 -1.4075789648910533 -0.8922018504319279
Ni 7.352321022209423 6.382599574921245 2.5103022441013403 1.1887320631190366 -1.3911300753064104 -1.272172074012248
P 8.808936332517245 1.5758777265068 3.6055340490370256 0.7632512567014275 0.9238189631165767 -1.2714629637603652
P 2.027053541877512 3.4607835817976946 1.1267250885815165 -0.07675308579133878 -0.34089434062478063 0.465827842776088
P 4.590122318592062 1.2693944180546906 8.056419375899052 1.7528485517653944 -1.0026016777434346 -0.4270108699088904
P 8.55233512509209 1.5651007293713466 12.253846937105436 1.3803630665978937 -0.8573307495863557 0.09639631394356302
P 6.7298815153861415 8.018185488078501 1.0003779288034917 -1.8620335328331932 -0.22733077087331172 0.05810924543790638
P 1.8677169976748524 3.402787035868751 5.955664758065212 0.6720992218759393 -0.6084610762000038 -1.1560985933547314
P 6.912121442576669 4.31177693459361 5.646628478611015 1.3348943927421333 -0.2368266261788889 -0.9687219942768542
P 2.154330783677227 8.622476169473675 9.870168069935593 1.3662340833956792 0.17917555132432367 0.4854859833266478
