# total energy = -381169.7747047967 ev
CRYSTAL
PRIMVEC
9.22515914097560 0.00000000000000 0.00000000000000

0.00000000000000 9.22515914097560 0.00000000000000

0.00000000000000 0.00000000000000 13.50195289619261

PRIMCOORD
 96 1
Ni 2.341520625489793 3.426048764730082 12.128196575367875 1.090480955354922 1.0615187637946168 0.01776529440322102
Ni 1.3153231664388192 7.20176795519096 6.461278282128158 -0.025796649348129766 -0.09466596151601761 1.441111292320544
Ni 2.431539726753013 4.598640271531214 8.45301870249537 -0.023705828257372077 0.0722629112304691 0.569457955463929
Ni 5.005183802333517 2.53095926501021 2.675560864371821 -0.45192588798301525 -0.8588245605230629 -0.050564857431745165
Ni 0.20048853493885235 0.17421804973007252 6.89479894531661 0.33121567988443607 -0.19848299340368397 -0.8410099009391452
Ni 5.8379296777106084 2.693801771210084 5.95160669916132 0.3575522608964358 -0.43600870253212654 -0.770958395537698
Ni 5.6032600837432165 7.29555092131536 1.9091355793709768 0.3674782617608962 -2.096600159333312 -2.017422266150564
Ni 0.1537040637207444 1.1310782914204707 1.6027763525047727 0.8973983070312029 -0.5871278619398662 -0.8343124343143116
Ni 7.438079627455632 5.760466017810295 1.2464573547017888 -1.330518889382257 -0.1770425641417209 -0.7432030798013007
Ni 0.8543788731699031 3.9365598371635073 10.450673372280479 -0.5839047270168782 -1.7254979276665832 -0.7387632988623922
Ni 0.3532719277940434 3.6390115596328743 1.5037802490444585 0.3823549217624125 -1.1716599381280983 -0.5353265609978587
Ni 9.130185961848305 4.456840352949849 12.726792233227783 -1.128604758809837 -0.9845957280843172 -0.9346476783009644
Ni 5.337741558168507 3.5214184581979207 10.124492968843855 -1.4860089241641827 1.036247647932654 1.0059353701023577
Ni 2.139332816268025 8.781770157737903 4.739523209310615 0.14885838839802107 0.8796345552898787 -0.2522876979289655
Ni 8.675118094845496 0.22250160928137103 4.534577077555777 0.2767106068580202 -0.25278649194225494 -0.4664623910362934
Ni 6.205524587326877 1.0109667215857576 12.358688094836179 0.546346052036814 -0.5689751022902395 -0.18232643824847955
Ni 1.4803981611102754 6.025597086708118 10.469684579893027 -0.2548474882363418 0.9595249011586184 -1.1494186102313946
Ni 5.516635840982237 7.391547925593397 12.861433428445727 1.7018450641343335 -1.841818491337899 2.4714256054878985
Ni 3.8640131869960586 1.2684593588535393 12.611796014043865 -1.559406463219727 0.2933381881123722 0.40957544804126234
Ni 8.458308408650764 -0.09085028808673119 12.60091309400285 -0.17977770368469684 -0.5028483858644952 -1.3988654962774552
Ni 8.119754299483011 2.064710505331543 6.107999896722833 0.8015984890210581 -1.5297032797283396 -0.6774265476261236
Ni 3.9203696831650494 1.4291062772177248 10.305392801218419 -0.8215631050684431 -0.6378845236674434 0.5164394942853687
Ni 6.278034336858433 4.923328966761826 8.358883335298183 0.5678350751485254 -0.6615826386153315 -0.6987260804348483
Ni 0.43571625102413936 8.072567611333659 0.9787635366411326 -1.1168987832268182 -1.0840783942626877 -1.0703119366062148
P 8.27752296824747 6.5541433449346975 6.53884710884077 1.0516704102456274 -1.2305721390832742 0.5753478385858027
Ni 0.8046903219069436 7.089045737694005 12.314685009048574 -0.25591706715143664 -0.30735018612074805 1.3353849592253066
P 2.1762057766850256 2.431419799686358 7.898655836881506 0.957106778635429 -0.858760797164663 0.15906643927927444
Ni 3.3201347145555546 2.050845091394402 6.107594912243897 -0.3166059003910612 -0.5242312224156456 -0.8738444309706628
P 3.4251446991506804 4.85723070271684 10.581142950610618 0.41044833756451893 -1.1047724322769297 -1.142684891051987
P 3.91517591866298 5.948742287300054 0.6770823878903802 -1.710529736392525 2.0928787446176664 0.20129680870339525
P 6.629070086117304 3.762803967898006 12.339191643861625 2.2199933135806926 -1.3772648872885442 -0.7032959591937178
Ni 5.465039526843562 2.5649447506685115 0.4107658860644646 0.534739321035821 0.7702636834635186 -1.025430502712492
Ni 6.6854727080811625 7.414306392780973 7.8120675722405215 -0.7682420250477995 -2.1519524108513712 0.5340083564070673
Ni 2.1479306644313088 7.008971357804196 1.991943373864628 1.1922444471476694 1.2216542677683542 -0.5069444103107398
Ni 6.722419469769951 1.1023234709001328 1.941526957558661 1.7317104842351982 -0.9389892430991118 0.1878414545294378
Ni 2.4007000203046687 0.1320793685710093 2.040577489456919 0.7137096983278741 1.2446373589270887 0.19684622913120936
Ni 4.603391228402557 1.9019694758803773 8.221487507610755 0.23256502268905757 -0.11756960558706847 -1.3630181475615428
Ni 1.3924731709340346 0.2650830980711613 12.875273011937741 0.9135857154243427 0.06605729664038947 1.8219153246560686
Ni 6.101750774034198 6.198439665235244 10.562591155914946 0.19093294897056795 0.16664759406064203 -0.06391788169988345
Ni 7.586641587564557 4.1306110561706655 10.18434764529559 1.3035791275686195 0.006345225491737458 0.727745864705966
Ni 4.640651645496443 8.659416874272633 3.1586464616929875 -1.4029926310719516 2.1121715314090075 2.2313236509918473
Ni 0.060813170469079386 2.763534747890622 8.258941653043086 0.04580960213494691 -0.8446233293220162 1.0830540667632316
Ni 5.078081008541957 4.901456114835704 2.10332056318325 1.7338167319449238 0.4923641985037198 1.9666427216048517
Ni 6.450554034821487 0.2625867700529375 7.245067161348888 -0.2720743936375895 2.25299393687643 -0.9395998800999172
Ni 2.3471571976225887 2.7605550215421877 2.5482370652516413 -0.7365104982724735 -1.0713516907246388 0.36301996887922644
Ni 3.356795496316165 6.465249713066242 11.906548293291552 -0.23371302025057167 0.28446376844087784 0.45503178060184857
Ni 7.679123806273698 6.350534861231014 12.537993819740125 0.013700123194911889 0.21171080494786765 -0.753369221701025
Ni 4.555881659689133 7.206288283087965 6.639881972434223 -1.1129817075605992 -0.2855765418890824 0.21157710758348078
Ni 3.562645693650404 3.8187084312772965 0.8705275139529804 -1.1607710591297364 -1.5358739273154258 -1.6819400976802903
Ni 3.3968972623738845 8.248666670978423 13.461406402540375 -1.6266798916554048 -1.0577011898207396 0.49816872100063875
Ni 5.077075466213849 5.10371772532926 12.650438359951977 0.5541215822171747 -1.5755321651369962 -0.6599129642223925
Ni 7.205965402523893 3.3715649758327073 1.7923035535513356 -1.0760933191746822 2.234072417381578 -0.586583302290306
Ni 6.375479691095304 0.9246930348657699 4.298940686927965 0.6118716445434494 0.3015978570180032 0.28888555165765734
Ni 2.66195652243363 5.093717653002006 2.7224661851724825 -0.49586706945065573 -2.1615814493007033 0.7355185666728493
Ni 5.962746078621796 5.333553335994548 5.934837205179327 -0.8214558900666175 0.7221696561697691 -0.8617517614721869
Ni 1.100828995146429 1.8555300256078777 4.786698827269198 0.7305959325602513 0.9332482268502768 -0.038103748850256955
P 1.7091083023807985 2.2488908042370768 0.2399150193597124 -0.19078639609037465 0.04904327858089618 1.5080270803064866
Ni 7.753377110851241 5.6196347409211445 4.392536382325204 0.6491973775771013 -0.6504456481619056 -0.49779462549067166
P 4.95392881907686 8.687830363910953 11.572699015200273 -2.1117773812943827 2.4622549947322243 -3.727989283538928
Ni 5.042010636955649 8.602626795631888 9.087287127589828 -1.6210964840303566 -0.04312665598614508 0.11154036867385307
P 2.8677421436550548 5.590723092698257 6.4545946544518715 0.4130436090955209 0.4104776481405576 -0.0920642622271124
P 0.6100929734885558 8.432782393771143 3.0143382223867325 0.055395188940852984 0.49635583616161616 0.9781324889574767
P 3.4841672662630074 1.3964861150874988 3.7791564846943975 -0.41581217297959355 -0.9953812487355953 1.2277500962534469
Ni 2.5442803945679158 8.480522591458904 11.06888725321339 2.5869326721189836 0.20486755677378912 -0.8373000561877256
Ni 3.368889679730398 6.775288855846966 4.116394163676635 0.11824349172564153 -0.07502813268043208 1.7157873852470384
Ni 4.613815658042589 0.030366455793005055 5.58085678517612 -0.2466551822335365 0.6460937989511131 0.030406380205999242
Ni 1.011880012324132 3.7926934829720826 6.383021258556124 1.5465121237555624 0.3395064591383185 -0.9601211399817206
Ni 1.6035079076113696 1.5029075490055672 11.120180982137734 -0.5741437909753725 1.0469871458373452 -1.3411347172248902
Ni 2.405700056468295 7.40075463424893 8.721262340030846 -0.33649106935076245 0.2675479665221457 -0.14036603465629374
Ni 7.929872852331865 4.259274348373794 6.551701445354417 -0.11365741501685589 1.0241878885546425 0.02025335093239738
Ni 8.841530737568108 7.53922427044087 8.502436034084509 1.271774324353197 0.22729811786316337 0.42164986270729315
Ni 8.26310404477192 0.7233567078172547 8.87209276673135 -0.11800617890385484 0.06263978631840825 0.07151394887958652
Ni 1.392325568390459 0.5257335072555653 8.972466186426406 0.40881491572615397 1.1379856858041046 0.08848965750197663
Ni 0.4323103223311304 8.569314746578652 10.5859492584358 -2.502976640821302 -0.1689181352623736 -0.1284579703647981
Ni 6.250063654850841 1.388063544944711 9.930956513707418 -0.12746963830959984 1.5220254514681077 -1.176027985288807
Ni 0.09670365145540444 5.693399112073093 2.2891484754814475 0.9464243592209184 0.5232135797844086 0.9425659047067768
Ni 7.219941518368716 7.8957397641299885 5.317433293204288 -1.8592549416467914 -0.09059616232201816 0.10701702688220278
Ni 2.662796011900217 0.03694583917289119 7.266521191057613 1.3795637106250498 -0.2646876142552151 -1.3216539827924594
Ni 0.8657036783257475 6.694199708470075 4.299251574785371 -0.42613772327531774 -0.6409037701097413 -0.4805728622957465
Ni 7.710590823532239 7.581457048221462 2.915436215547948 0.6029306333000777 0.5064024217643407 0.28467614156200005
Ni 1.6528163823246218 5.299060466592705 0.2774678739930586 1.178031645982397 1.1287675096399463 0.6290188457466973
Ni 3.948248113582907 3.641659180258263 4.40090729157774 0.018862384122141706 0.7631067607037632 0.6992845240414796
Ni 7.342820635895474 8.344654450097485 0.6748868000546919 -1.674171509478465 -0.3438058578446208 1.0235559113975985
Ni 8.429387535268901 2.2960774923864284 3.221970720434648 0.367100052485871 0.5181973575167398 3.224976604182426
Ni 8.053739061868786 2.0954856356670732 13.444838939539903 -0.5109846418183844 1.3212325789843244 0.6124172326342743
Ni 4.946096659108376 0.22131525383738143 0.9803050607056011 0.1970855988355251 0.31481152749479974 -0.2991416821680267
Ni 6.997163154318141 8.60021902913981 10.353580419116394 1.1357040888587797 -2.1680516304060786 1.4347958916254773
Ni 4.399644367314271 6.177332501503922 8.86650232039342 -0.40263861171211307 -0.4743199394074992 0.2585244228672967
P 6.349538544061878 3.830046151655704 3.848394070338059 0.015043781706999899 -0.3456344264129273 0.8561459852496351
Ni 4.334237990192296 3.9847520676409682 7.00207186140793 -1.2116953567834294 1.616499351577977 0.710394517911712
P 5.472382753386452 6.587833625505847 3.9954846175907153 1.152306216191835 0.3803831427480223 0.31135185108097346
Ni 8.264441692823075 1.7066728604117998 11.248058290796324 0.9522641058311472 0.9741387944170514 -2.1115894336532923
P 7.098372373416193 2.628007937411223 8.021078309039076 -1.3075239711489803 -0.2898224616496299 0.5457246164027311
P 8.39298505795955 6.520517640476362 10.424290340132222 0.006995457481226662 -0.34328315257193137 0.030392753359244434
P 0.5840780251833414 4.096939225917462 4.217591390068022 -0.1971179947353573 -0.21340850436526473 -1.2240248248830596
Ni 0.09890661941827154 5.018652534434798 8.279356929851398 -0.7123102468771861 2.301471058541211 1.051891525117498
