# total energy = -381164.29259246244 ev
CRYSTAL
PRIMVEC
9.30437601488901 0.00000000000000 0.00000000000000
0.00000000000000 9.30437601488901 0.00000000000000
0.00000000000000 0.00000000000000 13.61789479854107
PRIMCOORD
 96 1
Ni 3.9374815532687735 2.9740041406829727 6.978053850206588 1.7404445216740865 0.9093004577854276 -2.0400384608881836
Ni 1.344482294894769 9.041331736579924 0.3225836374548868 2.8488087850673325 -0.06793780149255396 0.3415959946774956
Ni 7.401593686225669 9.043499656128095 12.393958839381602 -0.10070034063555561 -0.44137485194004633 -1.1560494852843508
Ni 7.130659568958952 4.765831516935842 5.519632030835539 0.5692095868985487 0.01690500328545476 -2.876227543399917
Ni 2.1555726415581717 3.824945128654571 0.5030615441836295 0.2748828096206621 -1.5906906180449896 0.16347382431835072
Ni 4.68757241255965 6.716633457137308 10.537132024624196 1.0401680660329828 0.014877431332464698 0.223700373209576
Ni 5.524510315037707 2.909534121158226 5.0360203537055295 0.2402065983947153 0.07889378628342543 -0.32686023112921775
Ni 1.6885581098789115 5.887464708404836 4.739558751149723 0.11181419116053001 0.1205726540794504 0.1942275605614397
Ni 7.361603479281325 6.408351575637319 7.011622177012963 -0.18736631466523215 -0.27816173748225 -0.013318571485777062
Ni 4.316439472914234 2.710336740871706 13.415028476942764 -0.9230466037269264 2.382309627255833 -0.2392951423240395
Ni 5.486436809496467 7.83701986225671 12.521327369368064 -1.2416145129403648 0.7027359729251899 -2.588127463758033
Ni 5.449386785286978 2.3960349282658564 10.95303575947082 -1.0328100830060147 -1.2970094447709017 1.3557645513229233
Ni 8.779785734438112 7.888342798856292 7.79642114913876 -1.3475398494202857 3.1795503535288274 0.36603792976994376
Ni 1.4956877050977788 3.1484053596138204 6.199464618451814 1.1880260381909475 0.0994456422928481 -0.7286910022280547
Ni 2.4548851048417 6.148294273614422 7.337457693790105 0.9971252280098956 -1.394913967828875 0.38694074136088197
Ni 6.253582589524658 3.9416592179774774 7.343394815951851 -0.81998933282342 -0.32866540265875654 0.9622620975841235
Ni 0.2721762514284376 7.493623266701823 12.261687833816039 1.3779716835475817 0.4156599636724454 -3.7082655798577555
Ni 1.17678953087478 5.442194502837472 11.97560340152664 -0.3916690000744868 -0.9364428225281745 -0.5779004298043273
Ni 5.826883917940754 8.212144379095966 8.383421188652243 1.9324853589968527 -1.68521028379113 0.45150705527804175
Ni 0.26012708484097236 3.0987386018965313 10.391760458012184 0.873836460550863 1.1390745479929092 0.4100261624254358
Ni 0.26708675789689823 1.7998291393920363 8.590876202410866 0.18392283620132197 0.8575775754898393 -0.36075534121476577
Ni 3.5701634076780766 8.360632911581956 9.044378919635827 -0.2629739739982181 -1.2958645325331812 -1.0584064434178806
Ni 6.81216148289291 4.595291613938429 -0.016743224149917905 0.43998259957820995 0.8650569145860197 0.488479775847649
Ni 4.854176564617682 0.3434161347439483 6.998984973878527 -1.4396241662520561 1.0884047895521836 -0.652577606903244
P 6.726607747934036 9.690321249045011 0.9123210243120229 -0.296048902175316 -2.0211601359264417 0.026008765358935853
Ni 6.431882341891914 4.435916961832876 11.308626669874768 -0.3508694495596215 0.5385435252732595 1.2904590452468936
P 1.6302103695932015 7.909361383660218 10.568874832909755 -0.003522668441277804 -0.5182832323623268 -0.5741170515024951
Ni 6.714186406316843 5.487357942695044 9.17078072498257 -1.0301585043157806 2.5884966741719935 -0.940179149642155
P 4.715494844165042 4.412860718741185 0.967590877101877 0.420865676243101 0.28419200283672996 1.5900427000483455
P 1.278821315274891 1.792934596966313 1.2503610907515408 0.4044311848361616 0.7005518207896774 -0.2122484226188925
P 7.677849906417507 7.481946275144086 9.847929930634502 -0.1883595318164369 -0.45659578265485884 0.30377352451308326
Ni 7.458108464489966 8.355217764899404 2.6758212286146708 -0.6474395143457302 -0.06639616803704693 -0.6902951760586757
Ni 2.92091337269218 7.978669678571437 12.298647605580816 -0.9195139079833197 0.3778732318419751 -2.7511713996278164
Ni 2.3237027112380924 1.2684469363212048 3.280905252822668 0.01043533640071106 0.2637167657015136 0.19272269388113905
Ni 6.710781004794825 0.7642791018617069 5.755603095371973 -0.24214932394338298 0.9706665195977348 0.5841767497313423
Ni 7.361333652384772 6.4588371184200115 12.100561167758038 0.23297125698854074 0.8791126213481376 -0.42366123671036715
Ni 2.9783306754035683 4.071250563328995 11.811944084391337 0.5702074320354438 -1.1130989498647539 -1.0920143612803128
Ni 6.734711859206377 2.4259950181590133 0.5755482138487311 -0.7215639042649702 -0.0940733222373412 -0.4599587855898208
Ni 8.586236110227725 5.3767940457384045 10.487290344642934 0.6724378361622807 -0.2659729087255419 -0.2621023700265422
Ni 8.189190484137452 5.978908113209167 1.781915424773622 -0.09912014063262929 -0.7357378817725071 1.2567356848525193
Ni 2.6752592443197805 1.4801680063580938 7.926703809607999 -0.3671090513469355 -1.5732328275798582 0.5334954213263909
Ni 4.72599018000339 5.3038384355358446 5.195934659604189 -0.7646298822165091 -3.2997918495211045 -1.6083561536455528
Ni 0.7438197100399483 6.4958871426295 8.97976189097434 -0.11885335739549852 -0.23738481267520406 0.429927272224737
Ni 0.4299142638407595 2.2786137063864658 4.580596282889593 0.06905083205107462 -1.5814302757889862 -2.4930174727260614
Ni 4.731042456031957 4.191509619810067 9.676889452222104 -1.7472453466460038 0.3471976571349891 -0.866558695942527
Ni 6.045620487288028 6.299443857562972 3.3142958660523485 -0.06225360662358311 2.309944900340177 0.9515629659990643
Ni 7.6431073673923375 2.079211629833595 11.699677486673686 0.012644171126571773 0.3589658534145108 0.14191101054591043
Ni 2.3669308409410754 1.3087069701621021 12.455157440395032 0.23455325676367988 1.217075133038104 1.66596789062175
Ni 3.787094928131167 7.242628426652817 4.236241336633155 0.42054891633363056 1.0928067752746211 0.6410809191175539
Ni 1.8886580146125231 6.083526514065892 0.4840192087875628 -0.20975856631750328 2.1035099990792676 -0.0010744640111013753
Ni 1.9168595774902122 4.017657359048069 2.9016468018407013 0.01956815193991469 -1.93394394582025 0.2924377877852899
Ni 5.012471909137023 8.401367468585757 2.395754866555986 0.3868013875695403 -0.19061901727457495 0.15386509758399308
Ni 8.697758357885917 3.4368317032777855 1.4926982091714833 0.6940268751869659 -0.6922191325542658 0.47631485835034093
Ni 5.482612711066004 2.0400495123303974 8.702515685203423 -0.28078426270676154 -1.5969530540149335 -1.220811974372717
Ni 1.31127497786723 9.025281688422876 8.727613308333174 -0.6525786353445084 -0.7919756212193134 -0.4654704594366693
Ni 2.686377973332924 0.6406686092379285 10.394415926849296 1.2854471938545993 0.8995487777153024 -0.13936433286465674
P 3.3295336422070143 3.738516782375834 4.54862179564803 -0.5917288510469875 0.8259995435732419 1.753803716589812
Ni 8.796133522618943 1.0051144940366943 -0.01664552820461413 -0.4137082392627134 0.8871177510408013 1.0211329037784027
P 7.761468331221793 2.9187175400167806 4.301225888136501 -1.096581411825705 1.0700877364105505 -0.5098057910189349
Ni 4.029073828084996 1.1038897469266795 1.5436564142419311 -0.2448350983056622 -1.833196811107159 -1.072965572178978
P 7.747232636334672 1.089672660791045 7.796067582860518 -0.9577374702408924 0.06640053891242113 -1.6403895279320135
P 0.6542129890073285 6.829439708648064 6.466770029178678 0.06149847362511345 -0.12413414617846365 -1.1750656213755375
P 4.614560976102631 6.173890611284009 8.37826005142748 -0.32710268615732696 -0.04349740906200251 0.20333260818650142
Ni 0.3589572335478426 0.6999346914094938 6.438881093325961 1.1134604469692309 -0.48096778374132004 0.775279134400239
Ni 8.262909053150954 2.780045123939884 6.388440211546837 -0.22389192039509184 -0.19500660481930931 1.3190489410694446
Ni 8.906194983285449 4.485202240144693 8.12694141910261 0.15478375274352052 -0.1340920287221239 -0.4245680647953527
Ni 2.1592013480980263 3.8381945597129117 8.117831504812427 -0.5842893640498067 1.389639092583181 2.85023549021153
Ni 7.185443733335009 3.352106057760057 9.518622020829993 1.8057374293446256 -1.816106688394092 -0.20482487646131178
Ni 8.416756906065038 6.877543331240492 4.597400915919416 1.5832043369702735 -0.9870650155604163 0.050691098596964315
Ni 0.32592576922185007 0.579163894262545 10.928918817544403 0.46391751312725266 0.007724108117135084 1.0549089717875832
Ni 5.1696042066884615 6.931350536163513 6.346946417482389 0.27051656223216636 3.0128515945152756 1.3856592819998266
Ni 6.345872692521622 4.2899406107975535 2.6373234435395383 0.3865440201430956 -2.1757734245303686 -0.6281048185728602
Ni 0.3574703943040766 2.9391964710276 12.72515925921228 0.2948895917598921 0.810977873353429 0.12065672915282445
Ni 6.943669529647532 1.6331412479523146 2.8448324226774737 -0.6516247560716714 -0.650288553758751 0.4181212807287444
Ni 2.399207720394293 8.15143332737148 2.5018247500286526 0.4238913504433023 0.4270988016370064 -2.6683415115147784
Ni 5.049242802074214 0.826428610076095 12.898856136899369 1.0177896983377825 -2.600953668988424 -0.64040908986151
Ni 4.668833399812812 0.7116693700968384 4.180298777477066 -0.39189037205667343 -0.15489199618661068 0.4988297516234054
Ni 8.522984963925339 9.387277731088453 4.6000973240098 0.5428215838233232 -0.17664738558583126 -1.0699782074158797
Ni 4.641804188278768 5.628319235204772 12.8102440536337 -0.18732286302180642 -0.11555334648798808 -0.12157564142266804
Ni 2.957526091241736 8.220937014173305 6.6463091243949295 -0.5276142799552654 1.5821108467957785 -0.9325702269466455
Ni 5.252236367663966 9.197291682787718 10.369345286409201 0.019761241787327254 1.1139181033319394 1.7053366222273598
Ni 0.1726203614135965 0.39300101395469705 2.492551078725389 0.13098510766202603 0.0031778835073493655 -0.4034536514142406
Ni 1.5196278638850744 8.491973479573199 4.391580680978875 -0.9684114050149709 0.3274119898676297 2.8673456675292552
Ni 3.9349042411879025 7.689722289865851 0.45638707370535875 -0.029248098231839954 -0.5972873189713713 3.390265113112013
Ni 8.841073657458677 7.826859483945118 0.46776074261386646 -2.840553744147392 0.22416574288176877 3.935128152845397
Ni 9.216151652419217 4.505802128040174 3.7039584699903796 -1.8982053547680597 0.9219996505196509 0.49439948376619375
Ni 3.0442242644170263 5.9042311934941125 2.5103094102688917 1.9448780762342506 -0.2122700198854473 -0.6598949665002636
Ni 7.669243358855033 0.4745380499052253 9.788896457856518 -1.2098364491978195 -0.8834050780759044 0.08179810441441396
P 0.8740623616934914 6.388775169073592 2.5185754176791653 0.6893459247715289 0.27220886233292474 1.194041648257408
Ni 6.473752032736388 6.981826774570462 0.5866455427976653 -0.2723816404653631 0.33968206548423435 2.292069562721653
P 6.763108813974674 8.087716962281933 4.909986071200644 -1.9425872233175447 -0.3806569652346992 -0.14436127185861589
Ni 4.124946115743097 2.863263460587211 2.8382412029009787 1.273138037469943 1.2916142418972594 -0.37993654212890693
P 2.8806161213483095 1.050678022051225 5.560499640412469 -0.27607117350180843 -0.6853532586723681 0.48817304324050764
P 2.6835494431069864 2.816276363083968 9.940137224687351 0.15077437447381128 0.17323064659479845 0.5870543283894535
P 9.260226480314834 5.020669064166797 13.775589784868737 -0.07992222754793978 -0.4098824377587199 -1.4972873252914793
Ni 2.650844562369581 5.7451356726608545 9.91043672687743 0.5840260830860909 -0.407813213934517 0.33863922604201685
