# total energy = -381163.8644512698 ev
CRYSTAL
PRIMVEC
9.32760254293153 0.00000000000000 0.00000000000000
0.00000000000000 9.32760254293153 0.00000000000000
0.00000000000000 0.00000000000000 13.65188917009303
PRIMCOORD
 96 1
Ni 2.153762046881553 -0.03787846054248684 4.080140466519274 -0.2702489103930765 0.1073795524279441 1.6162106166929648
Ni 2.3768409856227466 5.0572021529915405 2.1936673954232226 0.18186749633419003 -0.42430606938321763 0.5185405997887714
Ni 8.408451122206813 6.267365286972245 1.7772571074806158 0.6722074653190295 0.2099745389830513 -0.8349022453795105
Ni 5.778337748908885 8.628330693328495 6.934490334014902 0.15144208996479724 1.5457317939461124 1.8509042556892512
Ni 7.64985587509426 6.658369051527025 10.349960778440368 -1.0362581894556153 0.23051148259413848 0.9449212923128307
Ni 0.34936814576990505 1.9249746154781402 3.7240443211460064 0.43779613344985246 -1.8045709198403501 1.2219908251721665
Ni 2.9057440239001315 7.2290970589177865 3.017122125749395 -0.26896772968780774 0.207858521081313 0.6000337713682569
Ni 4.9531154379299505 8.176772134062734 2.54774318211898 0.7009835090104573 -0.7942860145200449 0.4367252689831769
Ni 5.2584918125514575 6.24134127630625 10.761197045337662 0.9437514403744455 0.8830808619672663 -1.2083662924101963
Ni 8.721672010437675 2.5509593394227914 0.6331632467434146 0.8935395954067449 -0.8202495284633422 -1.2018824844580656
Ni 6.072530328265686 1.0560245044984236 2.692261322496993 -0.3401482064873755 -0.20771582485586162 0.89357379107879
Ni -0.19248906670566368 6.930529834040429 8.605687005768363 0.4180567460393962 0.6581414741442665 -0.9450827575913594
Ni 4.917847773296214 4.504914815524318 8.32363896472236 -0.48941385762614426 0.14088231217107994 -1.5398002589530255
Ni 5.186370790877811 5.997051369731912 3.8275256748125344 -0.6561686666886118 -0.45804305662434663 0.12567140875859648
Ni 6.897939191292405 3.075441094167674 12.021034325842292 -1.63927006961559 0.6720017770661265 -0.3661214906226856
Ni 4.672429226832776 1.838246568462936 11.908256150874402 0.12378627592074165 -1.241446619903933 0.08211409299293601
Ni 1.1588240104302976 5.694976966356197 7.003459558841222 -1.2719363038523577 0.42360750065429625 -1.8696324282263737
Ni 1.7275559109097605 2.741400997404016 1.6290256485914438 0.9246841393303494 -0.9866662374601008 0.28556677169706945
Ni 2.213430719365556 5.998450510090299 4.979580644188957 0.030895918247908077 -0.11576340561626515 -0.4906672704172711
Ni 1.6089181361209475 6.577731928871998 12.717962928039066 0.3436685609358081 1.5051451307730013 1.1947546151640327
Ni 5.130591728590123 7.827416114175936 12.831724232298782 0.7457646698808899 0.39185463372273155 -1.6194507208968174
Ni 5.4949278779140505 0.03861813941195401 0.6862942027127956 -0.04660998654905522 1.8147805133835002 -0.04953564483628243
Ni 8.529868522507622 1.9282952419287116 9.66850013928568 -1.118999374509589 1.2114976389503262 1.7213669362173452
Ni 3.841461112782067 0.8202264471392542 6.374503993535596 -1.4320666656197725 0.1714154477629306 -1.0179992432454275
P 4.65272933058669 3.0568978206178543 6.379650964533981 -0.3061615651292856 -0.025766310330826592 0.5255982779665013
Ni 0.6682340989667386 4.815309440231238 0.5171045540152281 -0.4893462376130024 0.34974716302972025 0.4875366952080893
P 3.4836822679377795 4.48053246287883 4.084181183874295 0.2887780795455156 0.22427887142086536 -0.9649663838891639
Ni 1.9621171281921155 2.21040857619144 10.856856271640568 -0.2832139551941768 0.31169817867679867 -0.6099782841754785
P 6.477842634885569 4.670498413138203 10.084827411567023 1.3891492974309558 -1.5250827502371929 -0.6477416189671812
P 8.451264817173449 5.282258543439255 6.208250674070163 -0.6039770722867212 -0.22853738958690317 0.7899660469884524
P 9.212704983014723 1.4638366085586236 11.748610504941512 0.11415286659603564 -2.4074149069638926 0.3094960288191573
Ni 7.499103165279275 3.3526481095736593 4.341997046673279 0.5351920923025234 0.13661762335745503 -1.3172116307503896
Ni 9.243933795813916 8.220574554882631 12.998646340855524 -0.3170239617650863 0.6703395588723552 0.7531496494910513
Ni 1.6180964968719649 -0.23243452393760736 11.391532163036656 -3.2702149071949353 -0.5748999524151067 -0.6570790943180232
Ni 1.567438288295973 5.349128124967756 9.068567408814191 0.13513101150959952 0.5886029038234959 0.19918079080165696
Ni 4.656199198675489 4.120710873111298 12.19617405210396 -0.7943569769672965 -0.7442376917134021 0.399281522314422
Ni 8.816832210012757 8.826281071233064 10.583858803192848 -1.341999636328347 0.22855513019871607 0.6280793646515634
Ni 6.035704954032945 4.637581304306555 5.987131464590949 0.8674560109458157 -0.7629887470686602 -0.7345649445103284
Ni 7.87977194638677 9.24068779018246 1.1742835786302328 1.0666357733062082 -0.40438104832451643 1.820997697937806
Ni 5.0586572589642635 1.6577388070262582 8.020088934648667 -0.0009621068029531816 0.24401645905910876 1.4359716571011334
Ni 7.206888037628993 7.361008011906495 3.529464005984674 -1.2048567365950413 0.6050314816931646 -1.1263660992873055
Ni 2.111554646070217 3.4817794370503736 13.063711031321706 0.7307345150206448 -0.606610139034194 -0.547407917642425
Ni 6.640721227806573 5.913233534662153 7.847474190353769 1.8808509226500125 1.2991856264866142 0.4894501101807184
Ni 6.2232923656830605 0.9618810135837692 10.024308994505358 -0.19565966502227594 0.5665217556537404 0.48786322530957266
Ni 8.829181955576118 4.705523560109819 9.933946913599305 -1.7077097504452265 -0.4983528119869869 -0.5900848876856611
Ni 0.2165029790567761 0.43636669325439736 8.49789163599681 1.6442868061038907 -1.2071036236476889 0.034653842628443544
Ni 4.976378478288728 6.697955396066983 6.187527539841977 1.2062003951071292 -1.30967444183308 -0.63085564184512
Ni 2.5139287579374874 2.4755176912985744 4.279266122324886 -0.18892491740160366 0.4699902016838938 0.06049394361999905
Ni 0.1523775781511915 7.911233949245696 3.78860438832293 1.6066296578727493 -1.4322988362352365 -0.8845391916803476
Ni 0.031716646404151304 3.785392894820313 2.628329935721105 -1.313647310437899 2.2412877041830948 -0.2424383159387115
Ni 4.664407488778025 1.9064033591211527 4.361559827164243 -0.6291234896453617 0.16003420250918246 0.06008668087925136
Ni 6.353561660651263 1.9062168070733676 5.675472949760286 1.5292641353083922 -1.2367175898593799 2.2069051129381667
Ni 5.1615780237271975 3.4782536033472384 2.7477297756251193 0.798309019636509 0.574364648736927 1.245785870709235
Ni 4.723395246287613 7.892345554407473 8.976048786235744 2.418809007733447 1.6998722566786788 0.6261412670885862
Ni 2.7363361093066554 7.412057979782836 10.111203072843093 0.2575954832951241 -0.04298935907733241 0.37442126873763254
Ni 6.304237299216933 5.484695498093048 12.885799141629954 1.4406695767974351 0.955914558099541 0.3538208188784616
P 6.350959259584663 8.371802972419468 10.965197306151893 -0.020548513575312996 -0.2125142746857695 -0.18528500665617123
Ni 3.8692387126972405 3.5981132940490426 0.9816816479356594 0.31236075196146207 1.34010267641595 -1.0370683440617365
P 3.266134597413408 9.201539842954796 12.424747881412658 3.127789161796136 0.23613654209039978 2.4613589652805157
Ni 0.8962324152080208 8.164571630137601 6.2853293164136925 -0.41603200229988346 0.00295471175294975 -0.013922523618363119
P 6.638100171535195 7.41535062342624 1.0835791747164936 -0.6604238424205401 -0.5130757200194582 0.31882321975735417
P 5.647322245749543 2.4131253589169117 0.28813243608450867 0.5365005267013019 0.11499721687420195 -0.7050664208305794
P 1.320965722762551 6.960490092914686 1.4715645271381137 -0.8587764808939469 -0.14159605040865292 -0.15911451890839048
Ni 2.625682762163037 9.018849422559034 8.403775195129084 -0.7419715213870448 0.7150294455805621 -2.2602547322039013
Ni 7.313614464166739 0.8749701455617358 12.913935854237113 -0.08792350058586149 0.18171760101988704 -1.8253498042589145
Ni 3.5767437569752816 1.4412544831742606 0.38157169301877497 0.7084265955520638 -0.46404658250594916 0.07638207560516523
Ni 8.86736915975769 5.79335518875557 12.392734617252529 -2.163608507033061 0.4497641044450061 -0.3523856290938318
Ni 2.627464334219383 3.804309272465703 7.0493989333684945 0.7470023989427329 -0.5628044547031533 -0.13658419901635832
Ni 0.7750043652357145 3.7909148354347457 5.240837459509332 0.28556060104948244 0.9377111477176366 0.03508527373890732
Ni 8.51763070817293 2.733575138999439 6.486585396605009 -1.2259819486094305 -0.37399292295096237 -0.40331815427764084
Ni 1.518561651776327 1.1540669332117823 13.37502908866516 -2.29244031579751 -0.4655493923037208 -0.8505232397462191
Ni 7.4651786753895895 7.435927314296915 5.818571429054655 0.9226835639605527 -0.38629179492297344 0.599372226524858
Ni 3.6179437767285787 0.9206576748244989 2.6201934681569656 -0.492110687732017 -0.40661122320661586 -0.6218884053495031
Ni 8.778337194952341 5.535418999885765 4.133218255155036 -0.16289301211421622 0.7645753748294898 0.06414336744712823
Ni 7.020149437796299 4.018657575370563 1.2042429047442504 -0.5468268483279743 0.13320576946242865 -0.011882096149566633
Ni 3.743344063249594 6.192716485051114 12.304283762076032 -1.7614460636264178 -0.7673719637380204 0.9223536914249598
Ni 3.0871752179733445 8.0500006899905 0.8051334537132162 -0.04411087427628532 1.05942922825544 -1.218040839385483
Ni 0.5047771946976013 3.40925732847399 8.327051934436586 0.9023309684461299 -1.1319322805211731 -0.6985545878539905
Ni 4.700626568855465 6.211651517901282 0.8893505101652355 0.11313728084732773 -0.8943273814153629 1.300724945949276
Ni 7.28579022623962 8.46584385970784 8.791283907068614 -0.25836784268477436 0.4291639116961512 -1.123516288543336
Ni 8.180801658294888 0.21925835280255923 4.426884757737085 -1.5169860892719873 0.9464438996049441 1.0555126668098531
Ni 9.04747583429163 3.4732726636713815 11.841990065220488 0.6555618863425484 0.011844558043411859 1.2795588533946223
Ni 3.5124765765133805 0.34712579015553047 10.337797584924791 2.4530807844321236 1.4637873937618209 -0.37183113941295315
Ni 5.321798249967267 8.858881041583475 4.805983703362471 0.12307150924190419 -0.12997877788469875 -1.6001016269462442
Ni 3.533948717213423 6.410086931130089 7.9512558928172306 -1.693985973101231 -1.031524274315056 -0.8111786765103256
Ni 1.0639716217340607 0.2780922048727249 1.9715510652485986 -0.10631871526359754 -0.49660471894762864 -0.27507692790933913
Ni 1.1149749515984548 1.5017253294637387 6.459391704599403 1.4989809109438184 -0.34964920399927524 -0.3908043380813463
Ni 4.250868236850828 3.28378242113386 9.991435725404942 -0.7010303030879926 -1.4161435666316127 0.9138178860398068
P 2.4283573336185493 2.081958163689141 8.498764699580443 -0.20350487209830756 -0.7245836649279005 0.4156859318143744
Ni 6.961124369877154 3.1244110067112123 8.165344888375671 -0.12190551395826102 0.7461670475256311 1.1349057613272004
P 8.521007300237837 0.21744133585713418 6.762080796972567 -1.3931838725116459 -0.19913836759949577 -1.8016406335674326
Ni 1.4141671258358917 4.774361265742451 11.29444021700676 2.0600442145861493 0.3844485710666476 -0.08264939667111572
P 7.920533568827772 1.913333767696362 2.5099001664655725 0.9536226767415705 0.6694910948291308 0.279577386882854
P 3.3076144452383827 5.36859483115411 10.144118316154263 2.211137920072592 -1.8741537131354948 0.667523943800431
P 0.7634082899454046 6.965144566506919 10.597197274609469 -2.2856598025405668 -0.22611412485739124 0.7651682712184822
Ni 3.260211569896237 7.96644402778764 5.953275066198705 -1.1162773475927357 0.5412164441197325 -0.0385367226226175
