# total energy = -340868.92111497844 ev
CRYSTAL
PRIMVEC
9.24548307007346 0.00000000000000 0.00000000000000

0.00000000000000 9.24548307007346 0.00000000000000

0.00000000000000 0.00000000000000 13.53169902080606

PRIMCOORD
 96 1
Ni 4.73120030330182 5.841259229604766 0.5863050833230269 0.37436753268156175 -0.8077519102169637 -0.7246808526273971
Ni 5.598232461297606 7.289064898395306 10.196257128085554 -1.0960337668523512 0.8947094473451301 -1.8025736869046631
Ni 1.6324194749823298 4.111595763560476 5.420474180811506 -0.9094992040597949 0.3416286476876439 1.0101848894073313
Ni 4.812976601166723 3.2741861333610887 8.495985052760599 -0.044657233698058574 0.31149377597547645 1.557887969692672
Ni 8.590607024820356 0.1154122898674244 2.0871835232004736 1.187186830119104 0.028700710368802188 2.4702259287528427
Ni 0.9098581601823336 0.6910998604184836 6.30172589178821 0.24922731383608693 1.0156590251480249 -0.13530301831108957
Ni 6.105550609001727 7.970873048315856 7.870009450627088 -0.08336699156343062 -1.6057012325212088 -0.6248050647756659
Ni 8.485633809901406 1.559102794137934 4.612982933867159 0.6343572272404753 0.06647381535251778 -0.49337927003179544
Ni 1.3861752785624517 1.569984727726062 10.530990767636553 2.383914252738791 1.0793671048299476 0.8609336364462656
Ni 4.380482148049449 4.467463652889811 2.6578017953773863 0.6969610181146255 0.6133472006477114 -1.2778981778627476
Ni 8.40409789459665 5.676865294914451 3.3733171275201927 1.9592595417669032 2.272360000107867 1.3299884708000838
Ni 3.0776548994759287 6.692758976021915 8.492332162394694 1.3043496871860567 0.8377942222153248 0.4605041165703295
Ni 3.185263077073397 1.3973715585753852 8.997105028606196 -0.5209643787389157 1.8122394921292015 -0.3609579441438751
Ni 5.411649367209239 8.217718201136098 12.851934311450576 -0.3514399773511109 -0.7269187408189803 -0.053763566874700956
Ni 7.413832692593934 3.784749445627175 3.626414076000836 -1.4343639462943814 -2.2319258033522207 0.10986632340553981
Ni 0.2250295109387243 6.649480869712633 5.161923321860483 -2.120746160451896 -2.8573093663391758 2.207057065134999
Ni 0.03627927561581445 5.20379241654799 7.308700455365965 0.3076713169055927 1.031827150267455 -0.264913357112776
Ni 3.056547461598532 8.007827244196694 12.754979704009099 0.00697206044245896 -0.22303085794637717 0.19394859586844015
Ni 3.9422370044548463 7.153646307685614 5.88953636861677 1.5557035604468434 -0.755550288512744 -0.38296324477037275
Ni 1.9034970389618608 7.923933730705895 5.298999627686872 1.3879784170513065 1.7714126879208267 1.3415460937306962
Ni 7.358295075717228 4.127211384486854 8.126082520111995 -2.248230454049515 0.11759968749405551 -0.4154599318464974
Ni 4.655526024271382 0.9937692400909907 11.027603570479423 0.498975018952018 0.28578428702451425 0.7943227812952514
Ni 8.841797554689384 1.656587167760041 0.025522156049300658 0.39071229258817225 -0.6803254664404735 0.07871792282719346
Ni 7.618999207678169 7.244686579599203 11.31909053836362 1.1285960170590885 0.031057126416120708 2.3364815131781245
P 5.170998688054286 5.339312707571591 4.57513469977224 -0.20630428922031566 0.34377294772415634 0.08428667516422259
P 3.2749812449061855 2.9785987937297933 10.643479635753284 1.8496302740728339 -1.5075023181512683 -0.701386657986147
P 5.192725573298212 8.757765358952344 3.9725141124534877 1.0081922844573348 -0.6691087717890476 -1.3120334289835598
P 2.013074504455906 6.137207143076281 6.684713556643506 0.24597306856484735 -0.0085471182390627 -0.41272093564877954
P 8.559024454610462 4.351164721194773 5.387307859349576 -0.13575604668810815 0.19092729254361313 -0.5870335024538471
P 6.7613512150111434 0.30072228093532793 12.096499757002366 0.7536283888996828 0.5300984798296999 -0.25537456438440537
P 9.106939518529936 5.505102710207367 12.539189204314736 -0.4398764130176489 -0.3082202474305272 0.7696597313309325
P 1.347039148674138 4.847129415673558 2.7683694521095696 -1.0447235466141491 -0.6965792092951746 0.1403963736735969
Ni 6.330863031722776 3.3210792235556377 1.3639546845219195 -1.0104270873251242 0.6311052959620808 -0.5307301998764279
Ni 3.747859968127914 0.8302194180061097 2.881696885541885 1.4743525708721772 0.8770829925126186 -0.6459518740566101
Ni 0.3124464780322735 3.521280914224559 9.034073092711658 -0.7584844314404035 0.4215243928730224 0.11590944427582618
Ni 1.6369127797604353 0.3951057195315572 3.712597695651177 -1.185281899786907 2.214580370095238 -0.3104730480204459
Ni 6.540291714508054 5.5397640262837395 6.277598879136061 0.09453072148973397 -0.36857278037665553 0.5499132005627819
Ni 4.952000930278599 3.1498528768673397 4.32287724115549 0.9326447889383228 -0.9999395575302393 1.266022252360768
Ni 6.91464132451935 2.016291932568623 9.634839960672366 0.6382529627504556 1.4508999962761917 0.6855021255454066
Ni 3.84178483076325 4.851465547239259 6.5722783123286534 1.3069992089937619 0.1655366203846504 -0.3724656876731585
Ni 0.8719378113193715 7.300381369688313 12.01379428808767 0.3474100302561114 -0.1877445239402573 -1.6972435608065801
Ni 1.3928874992803624 3.3952279978774604 12.958631808964416 -2.2698197501845168 -1.571350780065797 0.764803945900528
Ni 5.173827805877538 9.235155877918343 5.983690519232551 0.3818712972577746 -0.4236077577646124 -0.3123090727879202
Ni 9.13398255654631 1.0797337417922757 8.708582162598256 0.48590095937687927 -0.4087202991298187 -0.04668043477567445
Ni 6.542658558177179 1.319016089451015 3.4031143949468516 -1.441385371917537 -0.4423824672689542 -0.008198219540076204
Ni 5.1583323762312325 5.79023340847233 11.664919682161953 -0.9314337993493571 -0.6043036023882045 1.2256371636755021
Ni 0.8071010875582646 2.4886159268054002 2.05805008145914 1.107316281744706 0.12384952505850928 -0.0185394535650842
Ni 7.344214204982547 8.963236974978303 9.733878500000646 -0.8213641016837595 0.10035555570162717 -0.8083589476733434
Ni 8.92934303399778 0.40836004407866006 11.35133600971053 -1.1877103067227417 -0.41936698021038743 1.6797672583986878
Ni 7.454669991369432 4.626485961909181 10.239003619117591 0.462044721584572 -0.7794502350587931 2.4929519095954484
Ni 1.8777761050262858 8.99644675021072 1.2373165290956973 0.3499507944000941 0.015072835172722428 0.6918905455702535
Ni 3.3153192875952273 7.882541702945446 3.381381962413076 0.421779446306622 -0.3864074945652313 -0.8107549587093457
Ni 0.9275808267032191 6.6135991498693665 1.0139234686625793 0.08032151986888747 -0.32599248381228374 -0.5651307888434848
Ni 4.236465258073011 2.486480220213338 6.506297922310239 -1.5076563272306294 -1.4484127110779637 -0.8223709456817192
Ni 6.42412221957617 5.738615876422612 2.30996915539507 -1.0644652480174506 0.09654980880229178 0.09215013707269935
Ni 7.895688779888792 0.38572710149264733 6.734915605233289 -1.6886694459843241 -1.3450034561516773 0.05394945763326192
P 2.783445136823929 1.0929547826002814 5.348999200197149 0.9857936050471603 0.8178193217552947 -0.4561016166272597
P 0.2575782341307413 8.16826411212769 9.937856045960466 -0.3817651106972135 -0.8179141954619462 -1.1441938714973456
P 2.7639464130028912 6.278413406195631 11.023639107333636 1.0968349225974077 0.5947180155822984 -0.21723790541368396
P 7.901439470366119 7.298180944714673 1.8984166460080152 -0.05212577416096184 -0.15551677425480315 -1.0258994719291106
P 5.915278567163433 4.109857612740961 12.840905374681435 0.26432020361346736 0.4025900178623647 0.3495389036736561
P 8.023405883190744 2.2400233776825615 1.983665547318713 -0.7044604118154641 0.1508525360099144 0.8305352266600664
P 8.719017539353498 2.5048509950983076 10.608730487587627 -1.0412116768061488 0.6187092362905732 1.6043192645720177
P 1.4259863287157892 0.5119279455690661 12.836508222927389 0.5342623813994024 -0.04904944922848326 -0.7703061066656798
Ni 7.798971781362533 6.578623487368188 9.239282137018073 0.6281030188006473 0.46098105620674806 -2.7211182889961782
Ni 6.644590009161979 0.6607617322314975 0.9312910390642349 -1.068405206501805 0.07344047647833803 -1.422018280244835
Ni 2.507735585820055 8.489701822457716 10.316121118057211 -0.02257942796241273 -0.29035005201832575 -0.38478924223551797
Ni 0.9912544686925449 5.828241589424576 9.725746173081259 -1.5791435366373383 3.0928866934919963 -0.886517398452641
Ni 2.6147520525002412 3.987317979965221 1.1779327912566615 -0.43018078299643975 -0.0052566204132490114 1.9931885904141802
Ni 5.722029479772569 1.0277556359023396 8.10965514577097 -0.730171186318007 -0.04750730155234399 -0.38832296642038927
Ni 2.9302541626912886 5.719727354485021 3.919551362615263 -0.6286059265789948 -0.5980311391159313 1.3648143202300171
Ni 0.982554469111892 7.609846179426474 3.097757353342255 -0.5352784813687427 -2.2703977341751735 -1.3445576268635102
Ni 5.4505173780881595 3.464643084861032 10.829189031690353 -0.8056957990188834 -0.30184185470800917 0.5625931100232956
Ni 1.7091754755334234 4.219943579804545 10.959634477049956 0.042036508245759864 0.059352888037020365 0.024567662037035108
Ni 3.2086818857214237 9.175430057205256 7.157497051389483 -0.4523858583385693 -0.5353923812387876 0.5554107333422434
Ni 2.5396232569716712 2.7483030556272645 3.730567216570366 0.4547702994103458 0.36405432368101176 -0.2485655118823719
Ni 3.779849339593438 3.2569895348275986 12.798917013262164 1.2094124742865238 -0.008707812186643068 -0.5063697687541925
Ni 8.715716901893037 4.81490890713097 1.3821414742935474 -0.16279248198060997 -1.7503764360758178 -2.1306983865686013
Ni 2.2740190189769933 4.43434633248822 8.329883477344941 1.1280095484279993 -0.9132131625762725 -0.3973028013214964
Ni 8.810242720928738 8.377711285879133 0.016130594334075297 -1.0375895066725291 -0.018528654931806797 0.168231136497678
Ni 0.9456002732310536 8.133565814118988 7.769292856119331 -0.19107770207854835 -1.3972379879763615 0.9013266955513316
Ni 6.946519750187884 7.511622167157764 5.087810604922683 0.35621323037003816 0.9250767467830778 -0.3737450686062144
Ni 8.589303411705721 2.749893278717458 6.855293644064337 0.6278240541076479 -0.9674271867248306 -0.8263615548983511
Ni 8.096269535364096 3.5410754935042377 12.507877526759161 -0.4753604648568717 0.96217133764253 -0.27545590851531276
Ni 2.525828996212549 5.483634698489751 13.068143631528574 -0.007632576844593306 1.3524144039037675 -1.3042578988031988
Ni 4.093770472177374 0.8979213169744901 0.03352504620553129 -0.36024240613408925 0.09251034862559551 0.7096635532829585
Ni 5.296672539595002 7.980996852291217 1.8646142353100084 0.07523947736028977 0.18680067196974925 -0.0059096806162156285
Ni 6.962838027828535 6.565171309483119 13.433621275973882 0.814628582732139 -1.2835103818432025 1.1837430945448775
P 6.221017447219338 1.787031688571337 6.113581235607205 1.8407160023023394 1.7438676884230224 -1.0990491566399072
P 4.0865682408560895 2.538633990281842 1.6170109528769994 0.768764987430805 -0.6470757032484082 -0.41658298970734714
P 4.450054408245424 8.982375124959123 9.303908988313207 0.20378512234288773 -1.8754215241043253 -0.7784117664919498
P 8.914078741428536 8.559606920044661 4.421997140734895 -1.1390457516375028 2.4070631800514284 0.7557017264889436
P 1.5069675150355952 2.489762366707633 7.527562304540339 0.43080993194000644 -0.6224003119889152 -0.1492995897004977
P 8.178369425136887 7.26652441064012 7.131042950645465 -0.8667921521095718 0.4616014633995663 -0.41090290860343426
P 3.1416891153054727 6.8898541843751095 1.365023462366259 -0.6398714721904851 1.5517985689654823 0.29837806452912485
P 5.364950432159422 5.26946308288314 8.28345635949775 0.34651760034882906 1.3533633980805981 -0.22808770364399425
