# total energy = -381159.6982214582 ev
CRYSTAL
PRIMVEC
9.35740814497285 0.00000000000000 0.00000000000000
0.00000000000000 9.35740814497285 0.00000000000000
0.00000000000000 0.00000000000000 13.69551268148667
PRIMCOORD
 96 1
Ni 8.772121121438655 9.001349552453666 4.1397286588217925 1.9012677957434678 0.43463547633368377 -1.4960573095391203
Ni 6.816329213594955 0.005137217154232774 4.962213032808562 -3.6638088922062773 -2.3559105684370136 0.6559151559169091
Ni 4.575089565696843 8.47908452325659 5.446514120809939 -0.10124490028511596 0.907089823287354 1.2610962758140605
Ni 1.2684621963139018 6.935308660072312 1.8688625205192804 1.1245853532377985 1.2598222941976434 0.8708940900930873
Ni 8.88484046176632 4.49753536574369 2.894450377300836 0.8619589923869865 2.6012596302646167 0.22674224535969334
Ni 9.212415253967096 8.21989367087937 8.806871728625676 -1.1514276702416235 -1.3981802972849728 -0.7050430237918116
Ni 5.183002953022684 7.05012405985817 10.713753399049597 0.4048343338118512 -0.4206715579544239 -1.7476608369168676
Ni 3.5291933256915513 3.0752186622350792 3.653784409923724 0.17427734269175793 0.691693341957783 -0.600039942015844
Ni 0.5518335036700436 3.2657261377232856 10.37659662075422 0.9162617195946091 -0.5733182097502836 -0.6132119606214278
Ni 5.806692930734748 0.8362678364060496 6.9214522098683275 1.428518800367514 -0.7557593191997565 1.6651248258951645
Ni 4.694892464104207 5.304424683065169 12.236351575779487 -0.6997282964471174 -1.7523857531963627 2.838761685243975
Ni 5.621650181691117 6.505242174810858 1.420785831511466 -1.1588188204993721 -0.46927492078442407 0.220511176848317
Ni 1.9204396193032796 9.14042871194977 13.261899195705372 -0.6048692450836873 -0.7378657267487873 0.7013246943999599
Ni 2.5499686197917386 1.1639960901028732 4.4043121855997125 -0.3445872160953356 -2.109340746828432 -0.03249951528960209
Ni 8.654919582537444 6.0679798425701605 10.018377252126493 0.9682723083339454 1.5147343171233332 -0.30457468025814
Ni 9.125381999410596 6.816890658092684 4.655967517076561 -0.6913128186899127 -1.3854739054618979 -0.014431602044297727
Ni 1.7727048571338315 -0.23553532420618056 9.168474736093062 1.0806925085095904 0.7279888339547075 -1.3100002006036149
Ni 4.181180106089225 2.0271515035052294 6.089874306499985 -1.4260022045932472 0.9627884024012386 -0.18607279266478924
Ni 4.226666467813679 4.78067182594911 5.346002455344591 -1.9450655096547085 -1.463203496233893 0.9092865738283566
Ni 8.530466052207213 2.476456820222244 3.3084520640005657 0.13857654685603876 -1.6591842920410136 0.9698396528210652
Ni 5.166945640387596 1.9466871495721738 1.9833017524916592 1.857292418603782 1.0818924423549625 -0.4712888658906593
Ni 2.5659791453853495 1.8122492645906398 12.242980363816022 -0.8336807142675835 1.0041919050486898 1.159666770321964
Ni 4.031611291893857 5.320285490126052 8.640197572066125 0.6953054847890735 -0.32972649693341927 0.1350608203932964
Ni 5.345831214772783 2.7120670036947887 11.843276796991827 -1.8612156649175884 1.72585942477106 0.4071478124363762
P 8.95992430592946 8.24990287928306 12.823985587847305 -0.025300940658633846 0.7246206888134231 0.11531140568051108
Ni 8.396056239450566 1.3372952917356438 10.494254801180254 0.7116348180767162 -1.8038728653320613 -1.297031813368405
P 8.368901040577008 6.802162097435558 2.578413269528418 0.575574609884628 -1.3297159338649873 0.34940314942674017
Ni 3.2532994995068534 3.2072423358763733 8.383215068046644 0.006549628193059688 -1.3579949833153386 -0.5154102816899059
P 6.827511316508084 6.057574404545558 9.027027216557363 -2.41519995022595 1.3160073260296432 -0.3097971049993439
P 3.507905221819275 3.571966039010309 13.621324734262393 0.45479549622132637 -0.32626939162275426 -0.515896477297705
P 7.5514565666981985 3.5369880468017074 6.632654517644127 0.5268997703867442 -0.6935064839071218 1.3073524785681225
Ni 2.9832446960985513 6.276837195725854 11.153803303221526 -0.2195282441097574 1.33053328755996 -0.3231336742072499
Ni 1.865577134466728 5.310450854007476 3.857683272423629 0.3166863759200095 0.028217085864164305 1.8373347445349324
Ni 6.760259623088283 5.5281509580024215 -0.34243061361072247 -0.8605194317269825 -4.201876506284383 3.7705484970573773
Ni 3.097816803268726 1.4369423326744866 1.4883463194050193 -2.6993886106285703 0.8739639872676626 0.5637087116849776
Ni 3.113752469595973 8.825336702415198 11.037871564626014 0.697335884955541 -0.154646712945024 0.8055587592203868
Ni 8.37597524124841 8.206709082591003 6.590911119237875 0.22363866673370517 0.7123827519863345 -0.16759478846525974
Ni 5.974695839272262 1.5691063674402128 9.501919430517608 1.1267543358646595 -0.4880424311999143 0.02520709539324691
Ni 1.3227632366527229 6.256943345689607 8.612259158118231 0.0585987834798152 -1.1371511057179513 0.0656340930600418
Ni 4.622353834997444 0.18671772512852597 3.4512283355142253 0.010795290843291085 -0.5140555674342243 -0.8259830885130098
Ni 3.874266471404925 1.7122466421365676 10.3871976286122 -0.1480862861186869 -1.2767404101092206 -1.6649132241049907
Ni 7.016156667745484 3.895058632637539 1.8502365993070757 -0.5568001574906024 -0.3637568470452509 -2.3491084579135153
Ni 5.004744324993295 7.457611118902569 12.926372477935073 -0.16729885449139575 1.011854049579638 1.7183119514411052
Ni 6.328284226534546 8.88761025462179 0.9519413105326057 -1.5995169580873678 0.534239498581267 -0.97292420528366
Ni 7.111040787861914 0.7992274714091189 2.9235126159850187 -1.444386877748022 0.36411037372992777 -0.7655333678673848
Ni 3.702586101407277 0.44329973207295853 8.116850826470088 0.3536434127603329 0.5551531088054826 -0.5533713343147115
Ni 3.2123327659891285 3.8240546184912394 10.71020600556477 -0.6112646070870698 1.2544975395506202 0.17779126938228737
Ni 7.311560690226312 6.791008066747316 11.989764216635484 0.639309686149744 2.3898486159453554 -1.974093521455942
Ni 1.0433416675406193 3.742093079230903 7.597804745726668 -0.5098286738370703 0.9948135491575835 0.052523266709696634
Ni 1.8365130243008867 7.621066327008467 4.686549398867934 1.7132602479498105 0.6546329467703759 0.09353339057347118
Ni 3.5209962360246876 8.479196812156136 1.5007682789173031 0.728295823672165 -1.4517530883051062 -0.49756682575058186
Ni 0.8606167485317857 2.4805460076473804 0.6172576952497326 0.3357318225872347 0.5779191988574047 1.1343462892793044
Ni 7.753716947005559 8.46825800185869 10.754470289765832 -0.20283227151131522 1.278502644215966 -0.6679530609180496
Ni 7.724849342413923 3.204154391138856 11.234580194591652 -3.0004946156118195 0.021124954904073293 0.7753058738731163
Ni 4.189545629105407 4.3983000507698495 1.8243521364800472 0.7482956638328596 -0.09380644172919973 -0.37979358879313946
Ni 6.540893900416736 7.825703489022887 3.0239279001449226 0.6602400085445082 0.4529404452904587 0.7611316392552634
P 1.1952124041766812 2.050900605759224 2.773848356225037 0.8541870617510516 0.21289814038774948 0.12642551331580162
Ni 3.3219735189875714 7.442835771203964 8.81273414492281 0.3823628921822125 0.8419293274296209 1.5948357505616146
P 6.463685924570517 7.362998363626708 6.1542841550204415 -0.7766148224925271 1.663852129830328 -0.9119623208883068
Ni 5.592969725265392 4.649705539445208 10.451730994922157 1.3591838614171174 -0.9264337750316045 -2.5773270307084193
P 1.7766911130677172 5.2916892503749855 6.0660026221973204 0.4678507867433878 0.23701251693744987 0.667997798113056
P 8.007265282180589 3.523485306631293 -0.27487761164380586 0.04696094213057074 -0.6742584343107871 1.2523465546458883
P 1.5872971691666764 1.2911726262470946 10.365736412686458 -0.7228723386637486 2.1265038888712797 1.876199282810614
Ni 5.495081877086103 8.255994552083434 8.72717842513617 1.2977496653710359 0.2909185229272861 -0.40781244260356864
Ni 9.273069974538567 5.5113169804788065 0.8905576478549162 -3.5461315573967505 -0.336340145595195 -2.53957809409442
Ni 8.804507111549402 4.963309721060795 11.995763251093733 0.6977292637392177 0.8174387984874244 1.5840108920319687
Ni 1.671682277175549 8.256293989148888 7.183351096206267 -0.02118460449741513 -0.7416994986725807 -1.8246607486116897
Ni 1.5591220127889078 -0.1946228636565694 2.6506571402738714 -0.36482719729129426 0.823580135498472 0.03059972716372794
Ni 8.29829003757912 4.688875650570195 5.045413492927223 -0.3623085446344986 -0.7483031200320274 0.42148402655339023
Ni 6.1968032825743915 5.382119244142755 6.600196475489506 -1.050215937187288 -0.8296265988028679 0.3627723716447946
Ni 3.692845039371655 6.828297338804906 6.695928376797509 -0.6343765105141849 -1.5156668562399316 -0.533087901475327
Ni 3.141609474091694 6.269136048698653 0.20856633775770284 0.6046373315785393 -0.5912398272257108 0.9877640985099698
Ni 6.043313714303206 4.163541391452196 3.8368939184135034 -0.18757508824192856 -0.5076216388834226 0.7790054342118907
Ni 5.4018072311965 9.189265025844016 11.54485126737238 -0.45731980530507693 -0.3227863181701602 -1.9178796932685354
Ni 5.776777296414015 3.2486956546254646 7.815851073828549 -0.9018278035574662 -0.09359304016681301 -0.08880178942575674
Ni 1.8975888282456541 3.0625206591780776 5.4230391906190025 -0.25400185240659484 2.7518473426489187 -0.3717462930086307
Ni 1.6598919427232115 4.302732839847847 12.74716688018618 0.4874083971603412 -0.6683011882860878 0.8067594643967074
Ni 8.42053521955161 5.476937862401117 7.407848421587068 1.4235390877647354 1.48208079275437 -0.4688666296024119
Ni 1.5300204729898843 1.4780774995415307 6.899306031655353 0.7251266819155641 -0.21134030898232634 2.2769165091302983
Ni 5.287019903635528 6.492095016155672 4.445152594105448 0.19072777493829735 0.17382380009410708 -0.9170083679526465
Ni 8.540394262408746 8.633285254558233 1.5332263210719246 1.5566263293714289 0.15388438085770273 -0.7573606022486054
Ni 7.653686252326601 4.1630548062208295 9.106174047402412 0.16716669978890564 -2.7241123386274957 -0.10268266117290703
Ni 0.016394179333726448 1.3979312974905223 12.609978852906597 -0.5352162606722395 -1.2023342272835034 -1.112705056860445
Ni 4.309357884921066 0.7611297192747959 13.434887731382732 1.2211765568009871 -0.4093512478455983 -0.54410687829365
Ni 1.1264728828378943 6.664701769574576 12.925989759935787 -0.5123879499238143 0.8329893446275137 -0.8058441516712895
Ni 7.837110169735109 1.462843638836447 0.8996839281655231 -0.08067787476704169 1.6604215068822243 -0.8307787101294402
Ni 8.675243873355281 2.0090074888202434 8.272431775495319 -0.4633577839690407 -0.0723618987021786 -0.9394425285864466
Ni 7.9522905084444915 1.5725498936929592 5.762208747438742 2.080271340266301 2.298962176076428 0.7232407777467609
P 7.471085786848097 9.310611896620136 8.647565595358005 -0.8508027186598509 1.78989840542984 -0.35605279353277386
Ni 0.8316218831873309 8.08728048051546 10.875921963514863 -0.2902456652299776 -0.8669093944137264 2.193960122741725
P 0.9157880278420889 0.09939064795154613 5.561405315602991 -0.5360202446307736 -0.9393517686448531 -0.9908393950011838
Ni 1.5774531756398043 4.535124074866737 1.8397179366420973 2.580483059838898 -2.0834831623353796 -1.2138090606923224
P 5.3711710764370135 2.0398401491539357 4.285805288241277 0.7622557255573776 -0.01315864886914508 -0.16146553563907032
P 1.2534061263664327 5.2471854165215595 10.787887466270742 0.03247971779526019 0.5015947159630523 -0.8765124647211293
P 3.4202543783152706 6.312947434338211 2.584192404891722 0.018094909828497867 0.7862412898386976 -0.41808862771859606
Ni 6.714586113197918 1.2132534873704166 12.421925825614302 3.0942714896546644 -0.35143817757889795 1.6707115759543225
