# total energy = -340870.9100849588 ev
CRYSTAL
PRIMVEC
9.21342661343666 0.00000000000000 0.00000000000000

0.00000000000000 9.21342661343666 0.00000000000000

0.00000000000000 0.00000000000000 13.48478115619926

PRIMCOORD
 96 1
Ni 5.304326313578351 6.667259294958669 0.30413060487716115 0.9353282493077568 1.0819366653293367 -0.5031348067566626
Ni 3.932391814423909 0.8739073317834579 8.007573314071353 0.2963931728886121 -0.24952890423690574 -0.21645731849391753
Ni 3.009040628868862 5.6926998844408905 13.041995059852708 -0.0006710579250956186 2.9891262258738776 1.6767171587184542
Ni 7.413325726153718 0.6497953368021796 2.7004627029788346 -1.9576824270877702 -0.41513185908311734 -0.655939067176309
Ni 3.644186617399947 7.321781119599257 7.531897919597019 -2.1291685801876366 1.8955869433086066 1.013663591984551
Ni 3.5634770005101446 2.885202962131894 5.01408679196429 0.848977492525654 -0.4337057654305628 1.4942361971699816
Ni 2.7375209473914106 7.583976813372088 4.745793652477113 0.4932710265887053 -0.29110004281047286 0.9615267620799955
Ni 8.415396428456079 8.85731843463409 6.712898924893066 1.0270271577756505 -0.1636059790208408 -0.4705195918248025
Ni 3.621936192195738 5.7953743103107485 6.0101402053636 -1.3419710970832566 -1.4118505956832137 -3.344166004761105
Ni 9.35522122074617 5.767494481462741 3.622901759301908 -1.4051824396344186 0.12904366766493905 -0.8828618039779246
Ni 7.421783651759294 3.693275754247991 5.518579020770386 -0.704358081909645 0.2951772982036401 0.5887821097138376
Ni 2.3139060198389747 0.19600090912597284 10.118831858845507 1.0101758905462668 1.9418614008951136 -1.4387404780955222
Ni 2.2095823906102954 0.28289181391205015 6.22307815658187 -0.5327996808109469 0.7505299524800171 0.5753372970628413
Ni 4.645851928932543 3.866829070840823 9.914982031611267 -0.2857022688336692 0.05980154553866475 0.23644610291101859
Ni 7.7464555912090365 0.9596520863022873 4.998107024894236 -0.8692994919124577 0.10275465206142304 -1.1918523539155732
Ni 2.8954206522153183 0.9874213540312673 1.7494611028977611 0.28643323346242283 1.1476401781747332 -1.6887519783958014
Ni 9.018774522120037 4.426415747943453 11.098582113901609 -0.579979423820543 1.2712901856279268 -0.2623967613385094
Ni 6.679807981968247 5.965997757249362 10.16902200017053 1.5183660003386497 -0.39455583470397854 -1.194157605009982
Ni 2.113440284189623 2.6327827139663786 7.452877123800356 0.26808455575190604 -0.44689681019954003 -0.5353293892113361
Ni 3.844781341021497 3.2596366185704295 2.7384358406513596 -0.6665304695389102 -0.5909127829035952 -2.5121644779681573
Ni 5.402937618323963 7.95283634672634 9.003518930379611 -1.7009482633516768 -0.6810348338026723 1.1682827941257492
Ni 6.183075301032538 3.0285823066569066 8.202482432146931 0.036062035829879824 -0.12847802496945615 -1.4275009006259607
Ni 0.42000234298822403 7.0492018940644625 0.15801487265622782 1.317924083436382 -2.015753877309206 0.33111489264051364
Ni 3.0222711094457746 7.279316436466256 10.38160891983589 0.7115872526682325 -0.6673797049130828 0.4655581340544692
P 1.4423895722544786 5.998318457711624 11.49661227716851 -0.4648073719313737 0.42438063137489496 0.1587252538897718
P 1.7148582366702465 8.57960733049112 8.123744488546448 1.881759807617527 1.5537127552690597 1.0673132589892071
P 2.7488626755182763 2.504209345964416 10.0513131047983 2.1033691026260293 -0.6754545115014173 -0.3213529281577433
P 8.077033337100143 4.483640340466577 8.885647878699475 0.13421132790880758 -0.17645043908367677 -0.7931830112638533
P 7.853183924776555 1.8902081714472692 6.963959271294548 -1.3240816183973454 -0.24452168083030149 1.7034633164640467
P 6.931260820342275 4.322617284030152 11.753065242150537 -1.2510049530163294 0.22057571153766528 -0.9258005123229797
P 1.3333763088937316 5.376320028918182 1.4658902594463528 0.3094965430397896 0.7100936988418416 2.0988778996238953
P 4.439415892855726 5.978583297965283 9.15020589504885 0.2244529351048844 -0.1790012305299885 0.8941422619877504
Ni 3.683205478989937 1.3010095412985405 12.161667812424406 -0.04138781891816743 0.7524806484484847 -0.5700246266006763
Ni 5.454072135874009 0.1403748461154498 0.5934128514689793 1.6891888088229037 -0.8271426560387497 -0.28958489171752705
Ni 6.146848107697984 4.409776299529871 1.7463598635090503 -0.7821038706315563 1.7027153825544288 0.9083967150242356
Ni 1.5232005368367225 7.48224215701396 2.7572874327881434 1.503394466630482 -0.5442099795304176 -0.5839605199554782
Ni 5.813322065299485 8.793229839304699 4.459795071120401 -1.6404496917459876 0.34089254085256776 -1.112913316216509
Ni 0.9233511855550474 4.33569113635511 13.222178358216533 -0.2334847062898495 0.059038185010078965 -0.4237540535344895
Ni 5.865295004668821 7.612943826557196 6.774134122008899 0.46606284160502964 1.0743498541210144 -0.9393376275774661
Ni 6.083358385096656 6.7982005135931285 2.88038986808358 0.46324388409899575 -0.5397576001860188 0.381184298493079
Ni 1.2953801376547427 3.0673892594354277 2.0948199490601382 1.665489922544067 0.020368536354022984 -0.33136968896379704
Ni 8.639853926934318 2.7375946548040946 3.6515573586684225 -0.5363999965676954 0.04676965205537107 -0.9199101149804738
Ni 2.8807528770910524 3.9210869400033856 11.885944965738608 -0.1713977071511177 -3.0679143398173747 -1.7816076261759575
Ni 5.458549861194607 5.2128277741568185 7.101193260286969 1.001484790530172 -1.5152279689303 1.5941700919531576
Ni 5.131777260483349 4.244828323367983 12.954626899569496 -0.2278403635198786 -1.7314973397831277 1.3472351736956734
Ni 0.859714969471009 1.9624782895846675 10.953337050493014 -1.4849442303450942 -0.6810206927352852 0.8045038355933113
Ni 2.9119034723769457 5.527853255971444 3.3716405602008606 -0.1712598960216728 -0.2536989764541953 -0.903270963761896
Ni 1.0404354106047744 3.568415397160023 9.394577293749192 -0.07800444169993663 -0.10991517436560426 -2.14854287094919
Ni 0.33649645112969384 4.42698698039176 6.874366068490916 0.3520264459822002 0.5521577736225846 0.7740948842841506
Ni 1.4231611509703441 8.772085025290762 12.099220128369911 -0.18840555456302388 -0.648948751901405 0.211073685584501
Ni 8.223830862888413 7.437750520032128 11.897217593166081 0.20833031851140896 0.11448942399984799 -0.7173069287608291
Ni 7.550909825356392 2.5442508979054073 9.989202632156834 1.20898104317606 -0.11330568810439196 0.493326562416989
Ni 1.4539063554864708 5.787819300510562 9.297351688362054 -0.9552951793479869 0.5905340594079379 0.3121560921498237
Ni 8.172484436526897 2.9362729856958416 12.844968696347758 2.1942234037054402 0.219409459143706 1.525728868461624
Ni 7.0973604748273615 8.596311272890802 10.238967570780382 0.4464471242566311 0.47602098125900594 0.518409730637862
Ni 0.7401292991032933 7.024896874731666 7.283791397758878 -0.09608675312294421 -1.8602201337735382 -1.6372620380466256
P 1.6451310242704718 8.602364494157536 0.9564633193610133 0.23484302008995683 1.0689659641012816 -0.9282399750024078
P 7.7120710831916 7.585543095891639 8.20327755086127 -0.5826621128590288 -0.6056266920750022 1.4783580924871442
P 8.276881773168261 0.6678702370777977 11.444291070274238 0.55500784147687 0.23095834032357 -0.40906148451932134
P 7.351522060617555 4.784219169394992 3.5891363935510237 -0.4402947315019901 -0.821066625047999 -0.0023998676907442543
P 1.4607242911598104 5.991214905814132 5.169188379134153 0.3277053527383324 -0.5565625875584996 2.7091888845484435
P 1.8855001104620306 1.764435685127327 4.300971259609958 -1.409354311623921 -0.7554867822646602 -1.1887117514040626
P 5.714802894819729 6.2039989928084225 5.126415046210534 0.46814389250377436 1.9305542034124108 0.7926677621903315
P 7.29808418642111 7.665036540472142 0.40791616999324193 -0.5814210413630762 0.6489322968411727 0.5031288932193916
Ni 6.472257121274574 1.9180787868686906 11.993350486160168 -2.0506082659842297 -1.357279959526185 0.021654859265614317
Ni 1.4774005932797354 3.856288910826904 4.4846335478525035 -0.29372128248340384 0.8365806615231979 0.07530375493932194
Ni 5.674254604416531 1.4569283594065456 6.0113803325820205 -0.6813796187366007 1.1249813031246367 0.9882945170921431
Ni 3.0468525315761394 4.7689248812629055 7.973335299536627 0.05243713475379357 -0.19956028562826275 0.7087464407853278
Ni 0.26087633108577357 2.2207490636320353 5.766577745517474 2.2849697184520776 -0.037185093690729504 0.974972088951624
Ni 0.7033299519777728 8.968782469466605 4.548794007909262 -1.0661804309363445 -0.19603761718698495 0.14516217049335642
Ni 7.61333079047379 5.604628739709199 13.387933430547317 -0.08396271616590056 -1.2701280469990253 0.1726655181199478
Ni 0.3319588385362889 7.9288261570442815 9.609579052522633 -0.8722128089045107 0.016130587013275445 0.8114699824984992
Ni 5.982627992236358 2.3757188988017246 0.8591225461415554 0.4265760963643169 -0.54296325160751 0.42988304925036297
Ni 8.629986347061147 7.872467626620204 2.155838630651209 -2.110853326818216 -0.5279302685337876 0.602341336455511
Ni 1.405766201576743 1.8388525316591688 13.15931238459505 0.5513676736211214 0.22983991044841062 1.4955523448782435
Ni 3.566148894219967 8.413175992648952 13.373774236570576 -1.4084433697738774 -0.808222422095479 -0.8163069988758264
Ni 0.4758965167123878 1.1031604187994974 8.575579220387898 -0.7147324831654336 0.6454271119013917 -0.5933987825502425
Ni 8.601673487163618 4.330559257746934 1.8698400492944967 -0.7413683405854071 -0.22752386072072425 -1.5989171197198397
Ni 8.80247090617005 0.21610552727839724 0.02214078542784065 -1.182146696592035 0.06477945836923037 0.6313102128840353
Ni 7.686061579940468 6.038175741120904 6.530018856567638 0.47144030386685903 -0.06934213803924831 -0.1623710781724752
Ni 5.304372380711279 1.4925566800130372 10.030573681554127 -1.1960057139623144 -1.110783928578332 -0.07050042001340762
Ni 4.963991548933099 4.589373623962852 4.210177547322223 1.2921379756112135 -0.5236046445752401 -0.3815331971920655
Ni 4.873727608674036 5.865488486627117 11.502950193316739 -1.004284464762496 1.6022356425701114 -1.4100428530505136
Ni 0.4946670306952183 0.7643412628275755 2.4110920074917948 1.9346656544776226 0.05176633393901407 -0.1711287697604472
Ni 5.931382913567285 2.3733049810362985 3.7138972456318675 1.5304972363845448 2.3164171383280814 1.7656030232175848
Ni 6.687261644075993 0.525334842428026 8.254438787348414 0.4605120869901295 1.0521013271354591 -0.7036255746189947
Ni 3.379355883623637 0.2559517545757736 3.8155462171227494 0.4295390356473829 1.9671947374535796 1.2139707830811672
Ni 4.020149702651691 8.052774384900276 2.112390874901524 0.32667639725318576 -1.6411911978977027 0.7804393384449397
P 5.144270666933414 1.0190234072198543 2.5754180773591546 -1.5989775406441302 -2.5437239979419934 -1.678282189212729
P 4.240111048956159 3.1532215415068205 7.112466809057102 0.6034224853348318 -0.5353620422214844 -0.2085321501095699
P 8.352662206834772 1.9881929631850601 1.3135241386297527 0.042195659531443455 1.9676842754954884 0.09597053926005408
P 7.694888042609467 8.016888088349388 4.268364942923541 2.6456031893769985 -0.3369314993222907 -0.31796807084591044
P 4.113942385293037 5.531833456256421 1.5079891695439072 0.10047691177083988 -0.46910265687261793 1.7032869387871827
P 4.574973038209569 8.580777435667489 11.489356703732355 0.38156353620936867 0.13986955463584944 -1.3290410192851498
P 3.4276710926384912 2.769896928413187 0.34138048856271724 -0.1860267699182022 0.051167524012750584 0.23268997830269603
P 4.23446321845919 8.987365950889748 5.898338037775394 0.3043093424118953 -0.2744860884028757 1.0560873083664006
