# total energy = -381172.355450266 ev
CRYSTAL
PRIMVEC
9.16970357687561 0.00000000000000 0.00000000000000

0.00000000000000 9.16970357687561 0.00000000000000

0.00000000000000 0.00000000000000 13.42078807259638

PRIMCOORD
 96 1
Ni 8.548941913184002 0.7526318259669955 11.018855603339883 -0.03031150649934779 -0.9800117082580605 -0.2936081539443073
Ni 5.432407337129236 6.454150699124683 9.675609605404286 1.936551558646426 0.6920255284862211 1.246201103869783
Ni 6.772825398561328 8.1242837827892 4.808373264445106 -0.2165035983508207 -0.13021737625806606 0.31225276562868803
Ni 0.2789011112915522 1.2939093261993742 2.3525570761714762 -0.22774780380607226 -0.5590210764013211 1.613177486293596
Ni 7.910308755846084 2.035316518333883 9.030257806444718 -0.11967945284121967 0.5283115631326063 -0.8340476106886991
Ni 7.5886905816441175 1.785322896754702 6.639867451350396 0.23581515419523902 -1.4027625173390164 1.2822505412941723
Ni 1.407998774891307 8.995809065016825 5.831735079076312 1.5424798626677176 -0.48224150824742107 1.1047634334158651
Ni 3.5442553873580303 6.750332116320426 8.448331928370637 -1.4015628406039604 1.5862919747566615 0.010239418339821076
Ni 4.4010908048690105 3.2672203106918447 9.937610036509044 -0.1977486863408207 -0.15039925052257969 0.03506084825887511
Ni 6.348625753332465 2.1827194991828485 10.693751107936126 -1.9497168923837906 -1.889257401546153 -1.1282702582885535
Ni 6.216756249905469 8.712171801961135 10.28685927772141 0.3352322572429969 0.44138359369079466 -0.018002350114691576
Ni 8.564071923659945 7.656913174335645 9.827760658631702 -0.9874843624860219 -0.09250546352958906 0.4659306869025395
Ni 6.050940504792447 5.695632840597379 0.20459442044803186 3.016981043302617 -3.180536885811813 -1.2585606538764003
Ni 5.412078104871559 7.160777206571159 12.163407884913065 -0.15755000263474803 1.3342511027311796 -0.28606068061435247
Ni 5.751476333808588 4.378698389364614 3.660425441732989 0.33246009381449837 0.3971799025903869 -0.6957939943897178
Ni 2.951094788777812 6.788542270049672 13.171282070638897 0.9833597987946872 0.7317315888265914 -1.0143025111201305
Ni 7.6159154307974966 6.121253789840649 8.270748702988657 -0.026861343167218256 -0.806496697653624 -0.27446911912201116
Ni 4.723598440292896 6.367231081366216 1.519743530444635 -3.2493074676183067 1.171315410304486 2.225468734872967
Ni 4.898767282791048 6.9615745716745545 3.823206932017836 -0.3483348560632259 0.8531498787357888 1.0582192671077388
Ni 3.482864223638975 5.144166883007534 3.353573240785212 -0.5968931688567461 -0.25022593030393037 -0.6474117464315883
Ni 3.5252007438616606 5.424548901385064 10.524072166814912 -0.5028357874590049 1.466498364935081 0.4420564513881031
Ni 5.410179976284578 3.764740903657463 5.876050421275185 0.23869967483188567 -1.2452485101485262 -0.09741395657479998
Ni 3.306191549796548 1.9861027206221322 0.10140774900209681 0.981732290493593 1.6442441257914133 -1.5478524398335407
Ni 2.227467651378366 3.6643509917237473 11.66285212014894 0.9602869761356237 -1.9770263788320208 -1.752036083166428
P 5.241127325900035 4.784778700835621 11.543729421305343 2.1893707035988292 -0.21268036794998857 0.07328235363391895
Ni 5.771979790429322 7.522998827068567 7.236729859160396 0.6919705068785695 0.37028950595744614 0.5965265295459469
P 1.7017777298175372 5.921886100284307 11.534147081337245 -0.2645552024424089 -1.4984648905393485 -0.41606234131718667
Ni 0.9726762795367955 2.2717939972212213 13.382887646244447 -1.0800245359082883 -1.1730300790027475 0.10499151181174177
P 0.13857255655300546 5.059833121584957 1.887110271474195 -0.6916583749547895 0.8342281021306214 -0.10699774360849315
P 7.281661405422288 3.850807739007285 7.062555012501997 -0.07974739253297233 1.8380587671851503 1.57227637720386
P 3.7173702163127813 3.465478466146618 1.8898217527455505 0.1033506337742091 -0.28136816023468963 0.35379407940558427
Ni 3.822455016345698 8.096508751436696 10.830763897954611 -0.1295620020622543 -1.23873719139257 -1.3359850547031509
Ni 0.8860207492339095 7.653942190460368 12.28928131933993 -2.611927651501424 0.5691172842950586 2.8340385687366934
Ni 6.565764327920552 0.33484913912059583 2.879953479519925 0.9902482983844042 0.5092182939465811 1.077734711432847
Ni 2.5273077801982926 1.3993884234749974 2.152815262719729 1.1880013556005993 0.2787687749386296 1.9064632239014778
Ni 3.46759666761325 0.3437089064671756 4.370077034304322 -0.7210820795325451 -0.41566741987161315 -0.1666401378614743
Ni -0.02586131426988097 7.4280190400929165 4.8674509120168405 0.6290849230979424 -1.1496921756077554 -0.3939027745010119
Ni 5.2952469148873185 0.9459374246593097 1.1345508861634177 -0.43391042524220114 0.01936657745206987 -1.6186302818780511
Ni 2.1931179427463148 9.123598050466976 0.30380877641628284 -1.332002673016635 -0.9221050657492637 0.6508300280845178
Ni 8.043159417528187 5.547578810812783 3.713974675173847 -0.49506977036034094 0.5187028363982487 -0.16538415396718614
Ni 8.385216860427656 6.546562969171082 0.5247316875640193 1.168766161520071 -0.8055016807302063 0.7636888584594783
Ni 8.247552104503207 8.196972020996961 6.8098554114734515 -0.6858068012700189 -0.08168189055152385 1.6749019598865866
Ni 4.205629408926458 1.079457474683682 11.042584044617822 0.38542713292983305 2.748595668480841 0.23621367518523834
Ni 9.08597475775013 4.912769419758785 10.218158026516644 0.3695055766035701 0.5098523279861542 1.2712968704961463
Ni 8.465946928445963 8.046038704370275 2.6839694104882033 0.03871078630663656 -0.45905709971115777 0.3937104559845478
Ni 1.838617212443298 6.5145423651819945 6.626406326878466 0.567126736227591 0.5492159173854413 -2.851887938213289
Ni 5.63160997202584 2.838976826299411 12.839197597068905 -0.4477447600221321 0.925482981082561 -1.1301577051192535
Ni 8.047074880845296 2.982464343831268 11.701423560188946 1.491133904095574 1.0609742041450567 0.444591301994815
Ni 0.3663103912072397 0.43372238212538916 8.507504023886554 0.6339725902075469 -1.1521882025567316 -0.4163983845003667
Ni 1.4749559485248462 3.4882835183003578 2.0200838071807694 0.8751682919884088 0.08758591474078464 0.18634173005545973
Ni 3.1805024264063917 1.7201996637849133 6.566979313610287 0.0038101177747095673 -1.0626490207443184 -0.7339437659865619
Ni 0.21452704308290585 3.980146404318305 8.153315980466706 -2.555252310296567 -0.7108316054491306 -1.7741002620553188
Ni 4.35062992750591 0.6398215508880284 8.771598815229314 0.4896426858074987 -1.7410327900773885 -0.9823519263554629
Ni 8.188700948603445 3.267587098824595 2.968047736273524 -0.30483564722901046 -0.04267388471944263 -1.3198261855551012
Ni 5.848033309755065 3.086384591542704 1.6598565971551908 1.006599743159234 1.2402217463578964 0.2273611098906149
Ni 1.6308775837569338 7.8531723344669295 10.361411716613874 1.1417158422704983 0.1523437758434602 -3.8315744019214457
P 6.629796366195409 1.8670249533247971 4.728344678730683 -0.1452668143920208 -0.4811019953263391 -1.014125619222634
Ni 3.912208072429659 4.6032185751242976 13.264006110598135 -0.9638443544695787 -0.6598985660446893 0.4666984183064995
P 7.94491521617106 2.0417903288769232 1.1145279219965871 -1.1347298978709683 -0.2971400783569657 -1.124701824211005
Ni 5.15992960301247 0.7104126779467899 6.249993673524956 1.9351798751098803 -0.9801186661495701 -1.244793939109611
P 6.548956261737277 0.29123803013660343 8.215239903948582 0.49228757962951347 -0.21113102118499769 -0.6810404902296271
P 0.4595781945732789 2.561492434170606 10.322813684434244 1.5808116683683808 0.3947283557261008 -0.6264266595394888
P 2.4550780271564694 8.613927600604008 7.9197682217897105 -0.4554536986306156 0.47077284548618925 -0.012043561428095387
Ni 1.3248203960868925 2.2584245697824787 4.363540869778714 -0.09933971284260311 -0.19475078005476137 -0.7648353133590957
Ni 8.371223893163236 3.502019733871851 5.178464324330667 -0.33437865099344993 -1.458862445656378 0.3873600882864877
Ni 6.4239181872827515 5.819212932224222 5.5099582690069315 0.4345303182143871 0.45512948252197744 0.8966994811919654
Ni 5.542929771230174 2.404149494924112 7.77730587708889 0.08714188522483057 1.4341356323336591 1.7106688330735509
Ni 8.583740937278671 0.5293385465113611 5.009537298881591 -0.28536416876796017 1.2158798271784221 -1.9125675370270028
Ni 4.874513417512944 1.9294706329255094 3.45386687083408 -0.2964417667383604 0.16000386349187928 -0.02535699070754988
Ni 1.1052701895259736 6.385203699870973 8.516133631679832 -2.3571521541535985 -0.4206044521619144 2.705043752031819
Ni 8.910008151063247 -0.02348085928833252 0.5150228056901229 0.009071366173648893 0.4516176127139771 -0.5091686716555682
Ni 8.913556826247603 5.416424544244648 6.183842516813135 -0.18564316132653835 1.2059587114099681 0.8834487868296462
Ni 2.168203858829261 4.129273289391196 6.4640420580946225 -0.6644609886043911 0.2398877816027159 0.6081502298278042
Ni 2.1725044496857566 6.418902359567393 1.8162623927225086 -1.2438495729184706 0.06498308973960422 0.9509137624508399
Ni 0.9652396501452861 4.761643539362405 4.194559743080058 1.7155248756142714 0.29352896396693967 -0.26165834051058806
Ni 2.1041718205544044 4.252303198818914 9.132054350867529 0.2742374627271793 0.9389036253638411 1.6675270075787538
Ni 7.534910271679627 6.042972032608449 11.820895624728987 0.12478309261637217 -0.22119740428206422 -1.5356340433904778
Ni 0.9693843560453629 2.0155191288686938 6.566214560353503 -2.0617696819176876 0.26398107510649377 1.140137442039785
Ni 3.781594818357332 7.893546538179402 6.136426897922191 -0.4523231234214339 1.1553645434021844 0.2513867833812509
Ni 6.67628676202149 0.7458774225024015 12.617647478214167 -0.46524625924100516 0.5686274891428336 0.4135665714785265
Ni 4.933676343325542 5.146486817947178 7.889503615986164 1.2063073529986386 -2.1180177057771394 -0.7800184488574372
Ni 0.7738459345949321 4.486772512679446 12.995281536049735 -1.2607700028228932 2.84444099501694 1.5834413926817439
Ni 3.9216803759579317 5.623577311918613 5.795538592195864 -0.15038665211708938 -0.2871384870595635 -0.744821332131014
Ni 6.641368531783676 4.2441146537552665 9.624624221011354 0.41600757681985123 0.5708941736898232 0.11962931632957463
Ni 6.711911059414848 8.071961455652392 0.9345926677133478 -1.6271326629221072 0.251766792428489 -0.32207977902143886
Ni 7.701202841365225 4.0101129947639915 0.23247215247770675 0.34987751795999744 0.6108177493576382 1.4207206444793337
Ni 2.3451607934745695 1.4383596625797006 9.399865622965383 -1.003984417023574 1.1336225237394026 0.06291669412887874
Ni 3.3882053762794806 3.312821245296007 4.675842625408827 -0.05665657215177985 -0.4178996516362416 -0.18645948658024664
P 3.2895760473829663 3.073161879357061 8.08304487605377 2.0765093021207077 -0.5062052181518701 -0.7915943266204948
Ni 1.732496235935362 0.6963711112547823 11.592245404594538 0.4347375491291868 1.1759431388844845 -0.12642628464675
P 4.045480540464425 9.152381749184544 12.749238222660273 1.3137637814111054 -1.248780691671501 1.4999335046650748
Ni 2.349232141748096 7.032639772394895 4.424699123033474 -0.05320923703312772 0.6622598671880142 -1.4827775617110786
P 7.857133646300631 8.2626087573526 12.300125410484688 -0.22425778837494278 -2.688185799934215 -1.2771286466865746
P 6.602892456658186 6.56724981985819 2.552606991654734 0.05171953986147867 0.6318177486480732 0.15649944988304662
P 1.4059172522379502 8.49429048140423 2.281091159416106 0.7491047899977165 -0.18554108853103532 0.46764895514522686
Ni 3.887779982788499 8.6266368094038 2.0063274182619755 -0.41142175722138175 -1.7835868613895156 0.9592767897035543
