# total energy = -340894.8155734451 ev
CRYSTAL
PRIMVEC
9.02338627229683 0.00000000000000 0.00000000000000
0.00000000000000 9.02338627229683 0.00000000000000
0.00000000000000 0.00000000000000 13.20663790737546
PRIMCOORD
 96 1
Ni 6.484593436594502 1.9000454402954843 11.46358613443506 -0.5296063706846299 0.020402989136384213 0.2956421536552005
Ni 4.803022226600887 0.5767577110465016 6.234880242749552 -0.15224375993048617 -0.8324476131914309 -0.6502152773186544
Ni 2.940766728338453 1.6500795916327393 4.856384728796459 -0.6350632521685644 -1.1061436015928432 -0.31183136182055327
Ni 3.400282678203094 4.223540355215373 4.8510230326273955 -0.44174766189843273 0.7056590601092556 -0.6533756773245071
Ni 5.110981379333932 4.503075840946483 2.6176482865377086 -0.4804486780130564 0.1486778969560988 0.3070555376984647
Ni 7.182453113503318 6.06441945121508 2.8035977207416476 -0.0749034341771097 -0.012820805913752113 -1.4818954162164415
Ni 5.078352814292979 4.228467124162376 11.542258333003245 -0.2817186015955729 0.7966018071374151 0.061400257484352315
Ni 5.647764586512091 7.798858681832298 12.419086952435778 -0.7223707164369817 0.8523489801010483 -0.6258746436907607
Ni 1.6701746730337912 6.596357099923386 0.3725377241614449 0.8792049239516276 0.1438046280241975 -0.9427772493866343
Ni 2.76587545410622 1.5267750171624337 0.3639709211609248 0.07740460333240862 -0.09645827752975002 0.33060375733205
Ni 0.350643379522239 9.035297219802887 4.6899411488649285 0.6662443057570591 0.45630396244605287 -0.1769839429896436
Ni 8.670499756452319 2.351377178740837 1.3163225773255558 0.42796423496109515 -0.005205198350023294 0.8250670044566436
Ni 6.94317997766511 0.8163529817773969 4.925574250649618 -0.8505728620372318 -0.7411150869240204 -0.680872340082879
Ni 0.8388374558838813 7.68933281831817 2.431856761594892 -0.3391344205108805 -1.2966883139860572 0.9821356965795986
Ni 7.66555619528639 4.0380105084767015 3.9675513961641236 0.24836805115958516 -0.9902459843915591 -1.1294390817856743
Ni 7.5600908556296815 3.6688727962918697 12.750863333439176 0.329030242197343 0.5615803524880651 -0.683961263420848
Ni 7.840420399359575 8.836024755653437 7.021282800554623 -0.1551251952433393 0.41374474892760355 0.35422088253035766
Ni 6.988748078731707 0.5161990582369471 0.44523914798195374 -1.02909329627606 0.7438422560471963 -0.598332215296118
Ni 2.2100619251162885 6.671404604194848 9.049175188008913 -2.0973905164450914 -0.8813420248992885 -0.6115253169476242
Ni 0.1316205273303008 4.902875019948007 1.3610361637048243 -1.042067854158857 -0.803601635494016 -0.30496214550454576
Ni 6.381907299933537 2.1367739811830413 7.123977058263302 0.37681907954584776 -0.32923515911929746 -0.08985928415599362
Ni 3.228567635965998 4.389796248710828 0.3309633738932791 0.6225604917158633 -0.31976295796280413 -0.28427504946883947
Ni 5.912014455766602 5.652574051436545 5.0672811192417475 -0.6125537582121385 -0.20770348356068744 -1.4271247482334646
Ni 5.593714502276662 2.9320140435791266 9.336524926318965 -1.2207255853064978 0.22167871479385692 0.07200451536275987
P 0.16625679583408917 5.515996075645653 12.319217916993228 0.7968997979938082 -0.27557855013610605 1.129314640392668
P 3.9039049405456603 6.200040948052893 12.556475228320885 0.7442322923967635 -0.28233566635428153 -0.019506188353727697
P 2.4962025296554664 8.487487434505246 1.3807405324769286 -0.02106633375199598 0.7006397525177933 -0.4567611045881294
P 6.384894040815327 7.7294147004840745 5.800566610959962 -0.3890729572125364 -0.07454733638927162 0.9861381328707727
P 4.858479959106887 1.0518020064805496 12.67172913748988 -0.32361858426346846 -0.8781993655052489 -0.4879208180203855
P 3.8936543736522635 6.002049804765118 7.860762721546611 1.564530928930486 1.4017369042879795 0.6768930437201568
P 4.902793809470859 0.9151247734398088 3.8803746559612318 -0.15959017299322836 -0.30567176997706064 1.14747768445494
P 0.22351469391687911 5.7150068615909575 3.457431393311051 0.6823851771829796 -0.3534050714972817 0.2866846873515966
Ni 1.5459677599285033 1.0262297295651563 2.671213814926152 -0.31132485449778 1.1991375747230768 -0.17009287229676512
Ni 1.9049541624697868 6.3593578574453336 4.833431038599784 -0.3142731384928265 0.40818833788574865 -1.223425500736164
Ni 5.822493439790027 5.622165239437648 9.229247690683213 -0.1851795914265585 -0.16463133496156163 -0.2728076722591882
Ni 8.527262521535258 2.331516705384881 10.135553006304708 0.9022975441050332 0.5056285197127938 0.6117137788093466
Ni 2.302172652975263 4.975206484928173 6.9278320998227 0.6288992894496975 1.2744847813058244 0.8379135214020085
Ni 0.34022497764273546 -0.07617001353338003 9.245240740649635 0.04697893985269974 0.6520039937879609 -0.8554427885350234
Ni 1.410535754204038 0.8813267775279189 11.493657471784475 0.09428620957909568 1.3560414591333936 -1.0248082957474607
Ni 4.081250575865044 6.957888097415319 1.607168877846165 0.729027559631867 -1.0297234736608911 -0.6674604375523472
Ni 5.660216859674844 7.786514689305743 7.902376774714717 -0.9919218294320852 -0.19469113046141953 -0.16034196355758837
Ni 5.278572734009159 2.9896283654227345 4.821096069459578 0.9382649633385778 -0.9451030693063337 -0.05944981862620085
Ni 0.5345769892156277 7.302518292274038 6.7823083388045955 1.207514228822546 0.15951046879522848 0.7016422256403787
Ni 5.057499768438542 4.295944007286339 7.1228942519013225 0.9361954824040587 0.9605332878184747 0.15851236654801734
Ni 8.044060182502339 6.95185145194729 9.165935100359693 -0.21691394641536194 0.5845079078185159 -0.14869923711233743
Ni 4.601169073955388 0.23845561703491294 10.356711694045648 -0.963392868754457 1.2607437775706483 0.35195085554925837
Ni 8.229806590513405 7.0427079291036385 4.86721369475488 -0.4969988690622537 -0.2638622901404424 -0.4616577705587985
Ni 7.267724114509128 5.937054352887356 7.055408345391011 0.19621810862890723 0.10344165082611863 -0.2798450387219439
Ni 2.233811477989018 5.416395937116327 2.345023812411928 0.7183608239466402 -0.3417518035290695 1.5863017449486745
Ni 2.2829167465047444 5.377451001630499 11.308065363679988 1.0485154095564135 -0.3258518444693614 0.8635687600762677
Ni 1.1636919972183313 3.5238038139457952 3.7006450419682246 -0.24022459611684435 -0.6497421943369778 -0.5640025887763126
Ni 3.806614788921889 2.342398909322765 2.740416871858835 -0.8175331579734437 1.8045254113143954 -0.9079210609393976
Ni 0.9746700999622785 3.3572772188598465 8.016482006801379 -0.6190694478434693 -0.1502485838773283 0.8138425964957339
Ni 3.5394864594217847 2.6903406869718673 6.935122995993355 -0.39778848270866335 -0.6633446156117608 0.31646140439339693
Ni 3.979430684293663 7.014690314487443 5.7481623923947405 1.1489038753785052 0.5574868991449818 1.4799236372020512
Ni 0.679692893170721 7.369165023853816 11.159622537177716 0.7846466916580681 -0.17095470607642815 0.16424926903179454
P 0.27764237927491614 5.5376341561125235 7.946816952487585 0.21622823320224696 -0.2782787226760885 0.2233231923758154
P 8.491024601954377 1.6606098835029808 8.03024357332349 -0.6021706152056017 -0.3460841123558362 0.24359042726528374
P 1.7879930286034054 3.335016524734838 10.299949179873462 0.44618410040323153 -0.3525344959668703 -0.09044241035297328
P 3.9873802876678557 6.092689720649071 3.7532080721332024 0.021580297273937028 -0.3542581635261963 -0.4164942866482827
P 6.94321607121051 4.1162252213569515 10.495909158893893 0.8861404747291963 0.07764577280893724 0.6281631826146215
P 6.087943419429065 7.656974954867711 10.085500282222247 1.4742996061470544 0.19043312651601396 0.9332744521025217
P 2.233937805397915 8.3738288600429 5.7447551617090475 0.17553666902015574 0.41540336757694907 -0.30742243411958026
P 6.931449575410343 3.8807419077856697 1.6603518146533758 0.044369270143994555 0.6123403566497518 -0.39326848335112274
Ni 5.161367968711333 2.8522021913149587 0.5709520642690267 0.4365908002878417 0.23875906731491134 0.1581110173445406
Ni 1.3093204295180947 0.9768176659135359 6.815404315258469 -0.35709871829878503 0.8474286599812954 0.3178120048840204
Ni 6.691418475118752 0.7103877465169075 9.305832779988684 0.8021078245573089 -0.43318974502609264 -0.9876710245755312
Ni 2.4805830478839255 1.6993111875573634 8.952304623850408 0.3092972825447899 -0.46813077987765184 1.4730307667369598
Ni 6.4318336966070975 1.8818091764824958 2.6748330951910653 0.6059388239987823 0.8211453008047342 -0.51544653424448
Ni 4.010588437359596 6.966460314447649 10.434815419273795 0.5725551063320139 -0.8376034463607573 0.344270199075549
Ni 8.275103989989507 7.18990643062827 0.2973016311152714 -1.1538625049353612 -0.48168357886142205 0.3608391591778237
Ni 7.582829789231231 3.8776739564267304 8.37082948642022 0.6067836884975808 0.29616408759694157 -0.3082305318431724
Ni 3.0163285656318553 8.279796150891414 12.306486821192266 0.5636117810957971 0.19650221552822933 0.37552530043508875
Ni 0.3931787204366608 5.044289530822404 10.1305874367964 -1.6456160664382755 -0.9565141393567528 -1.136383117203675
Ni 8.468872188465566 2.3471722807018205 5.828235020524418 1.0816075641246923 0.9517061764451481 -0.0717638601068635
Ni 3.540876060919657 2.46775179249448 11.425181699791587 -0.2668278005266695 -0.010445363703040075 -0.4788898181663688
Ni 1.0584432188340178 3.364974167416244 12.451944711490016 0.17079606901137684 -0.07255421721864279 0.11683606985515362
Ni 3.0925039931970453 8.623388656319904 7.831127213757894 0.5992043334884262 -0.5403867491295855 0.2158094004972735
Ni 5.790108506180519 7.821263750138904 3.7550172610963415 -1.003731934693136 0.4147235679011051 -0.8305180002688858
Ni 3.1758349661376433 8.218734895462175 3.6019517537670565 -0.08137824326817597 0.5155136400369895 0.5225453500727903
Ni 3.576734998273846 4.333102312274902 9.32376766269759 -0.3899949548061735 -0.22429532648109757 -0.07370555721426661
Ni 7.377908685226793 6.142101784300691 11.429711439739195 -0.7290879805561573 -0.3395982475211764 -1.1102473393485717
Ni 0.5078993474723815 0.07871099912948966 0.3276039671552407 0.9994376781931561 -0.2888554697506703 1.1795241713675235
Ni 4.548012304968592 0.34825037746226645 1.7569715286713554 0.9413361460647337 -0.6234503505199844 -1.068708596674837
Ni 6.084496485843433 5.613511811928169 0.08488389773140229 -0.86756862526428 -0.1938354673293436 2.2449142451920885
Ni 7.904811284351898 8.805282078359596 11.327280664911932 -0.7703690986931314 -0.15178584645746115 -0.09819017261919219
Ni 0.3886318360549859 4.810944759816029 5.67026981440718 -2.6903676380768826 0.25342489685720226 0.04108674273798085
Ni 7.817491974644678 8.765904020328978 2.5012312628682216 0.09922812696540331 0.20253505198587052 1.012155639980457
P 8.515261417689997 1.7247481136775094 3.5361035918792365 0.19764018578741446 -0.2931319856388371 0.34530661075986335
P 1.9188411540621617 3.180942202811642 1.5920998226419638 -0.4155267805286908 0.10835862851176177 0.17323990256617908
P 4.6221394238323725 1.3339903677985054 8.328317606310307 -0.18993818915746644 -1.0875002754600431 -0.3061440816277889
P 8.591563172664083 1.5823590770773317 12.38696820872359 -1.27165656782841 0.9667653847711157 -0.2621825884451742
P 6.301220179193437 7.584210367342753 1.3547107698735996 0.11748861583748799 -0.17346590253405608 0.38566161753814227
P 1.6547988226936958 3.1474834862265055 5.911687809180738 0.5889805988778889 -1.663140191364968 -0.7197803300019862
P 6.939507459420734 3.966518218427069 5.957051981715829 -0.1289873605057069 0.12389554780509629 1.1328730471678876
P 2.3149768382056584 8.61292152815411 10.058400345997832 0.9242205694303696 -0.3628654455792331 -0.1796738311169809
