# total energy = -340866.2302231336 ev
CRYSTAL
PRIMVEC
9.27772436591772 0.00000000000000 0.00000000000000

0.00000000000000 9.27772436591772 0.00000000000000

0.00000000000000 0.00000000000000 13.57888741627152

PRIMCOORD
 96 1
Ni 5.210778165572344 7.284572203577543 7.913286465936218 -1.937863335479314 0.807650608752409 1.8873671265019751
Ni 8.329058401026701 6.823367252774603 12.178021582889336 -2.0527255694375484 1.7070705741993313 -0.11144523785688547
Ni 7.277437633619838 5.6179496502716795 10.365932663102525 0.12667131077802055 -0.020688124476970823 0.7222755856200141
Ni 2.7930125005425612 4.985181022410382 11.24361743935716 -0.18226730287576998 -0.0303277044492639 -0.9475276195874262
Ni 1.237407195759317 8.732351796984396 9.788788631055818 0.06468407044194666 1.1195084529355237 -1.4220339639741186
Ni 6.869811540431651 5.174465152809721 5.6329572970383675 2.483594893860581 -0.36271195072050433 1.4131795989072824
Ni 5.641617124864793 7.4509310773247535 12.453157134749823 0.10426131851393655 -0.418786168006253 -1.4743014059192674
Ni 2.251870677495688 4.2363666194763 13.339436794761047 -0.8162936291393877 -0.17658979287501847 1.4178052706047517
Ni 1.7961766949045503 1.2074679795648915 3.265464836468682 0.36576205040073784 0.5122483390221565 0.3617159053558222
Ni 3.1680923370186185 2.69626439193535 11.729863895716463 0.615293782851121 -0.10774799151095636 -0.18840401190112716
Ni 1.0663723489839108 5.482068100726108 7.145523238968825 -0.3941727403329469 1.8794596987294403 2.377151994314293
Ni 0.2724450118244202 4.538959596291047 5.4584822701065026 -2.0809215722557903 -0.6670763147400511 -0.4457776089934323
Ni 8.97295102027849 2.2207253571471637 7.552549991169669 0.1373465311036796 -0.5494653143920859 -0.7424901128946761
Ni 6.786562520626079 5.086094829211364 2.0577853247906104 -0.31866689668514797 2.251229645887155 -0.03108180900646905
Ni 3.533875893783856 1.0575214000376816 10.042129880851745 -0.3171928832427827 1.7659478081515134 -0.16539315282825062
Ni 4.714800304234322 3.479118765187792 9.303235220698909 -0.3504015087842675 0.9822742790399921 0.858544824499115
Ni 2.707833714090432 3.3697158406868106 3.8805334219823733 1.1277583516491416 0.5188491321681258 0.5577872039942201
Ni 4.922055386529727 3.579485186257298 5.609411360633088 0.270931795392714 -0.8192776514683761 0.3674381525515801
Ni 6.148589089453635 2.820224065803872 2.29480520206431 -1.9838619136966158 -0.9269598227384036 -0.16033553579968515
Ni 2.0161329817150375 0.31207202769353404 7.524360553771112 -0.8660563023848118 -0.5144803136764687 -1.1442080125647327
Ni -0.42384355519867917 7.423199959504753 5.889964175690328 1.3624332215923505 -1.7317590780849463 1.0453840630162836
Ni 0.42359862327815456 3.0480756959615722 3.822511462218407 -0.26209054295200024 -0.2815643354058957 -1.2885538578043807
Ni 5.501746153886436 9.026103102577178 10.06989903734122 1.7272874154668383 -2.607494555430735 -1.242846071354621
Ni 5.147021644441853 7.176867102616562 1.7839672097753705 -0.38190369315760675 -1.1138103741094816 -1.048928328724116
P 1.4091471495786572 2.5432004970560094 5.920612210018394 0.1265088170582273 -0.33557678506660915 0.17108069013133118
P 3.5072673805995946 5.830251814565773 0.5281669256660538 -0.3987819569701842 0.9379024377928363 -0.23549993694766538
P 0.2257567200192737 5.043927572439233 11.85986800694187 0.1841678623325925 -2.091124480930721 -1.7722305558364317
P 1.0013911682507974 5.9129998372611805 4.040764358854337 -0.1343735645182847 1.1081151234969175 -0.48884230139339035
P 4.618627414531373 1.3877527174298052 3.584214970086216 0.27863842000835237 1.1505025873241927 -1.4544362915642242
P 8.155119626557196 3.5901081805376256 2.240163117249098 -0.4911292976553542 -1.0726686097638496 1.4770326888075016
P 7.280749781181478 6.850912816109357 0.7623997745713602 -0.009382983876796744 -1.130692494576801 -0.26106261590811813
P 3.6230441016687727 8.745405555021446 8.81166613393033 -0.6874731332288483 -3.486191429397693 0.05961745455231668
Ni 8.057323135108346 3.139387058151078 11.786501619020493 3.524326545706517 1.4384728262564324 0.4339914149917817
Ni 0.8259781633960145 2.189570759074378 12.968299063324041 0.2469788841215424 -0.034372821052915004 0.013527345062473477
Ni 4.859050361064483 6.330070653748384 5.638537848182137 -0.7669397612966082 0.7770866199226231 2.0847044363369904
Ni 0.8293366995789653 9.02247551239062 12.238651510943432 -0.2675597935966876 0.5100970970071086 -0.618524888193909
Ni 6.687838256750999 9.347585525989958 7.2330799061493805 -0.18415115016204414 -1.9630748017479351 2.3722507003579336
Ni 6.503916650975266 6.9187515359152565 4.0403839721595824 0.7278301968896562 0.6596414557285607 -1.3094435567691964
Ni 1.4003425892537393 1.8056492513763533 9.377294654622679 -0.7922342741973388 0.6649371569098612 -0.5347637465158532
Ni 8.641680597768989 4.537131884611375 0.31818419243753393 0.9331145294858897 0.20455388218811224 0.11015197296675867
Ni 3.1897743786196013 6.053585193007735 4.236286831047644 -1.3482214488683426 0.3494553428209143 -1.690972640196204
Ni 0.9356770473009629 6.445893763438874 -0.4176061411771383 3.066942719932724 0.7498311266407796 3.289829338991754
Ni 0.12223772824543992 0.7675164395020159 5.094947633702445 1.5932882035688365 2.3027033882864147 1.1411221745505573
Ni 5.285667955817588 8.933845412512916 5.053681243956183 -2.0694454532953905 -0.0765949629469197 1.2628281709035025
Ni 3.053549553276326 2.4444205668353556 1.8218926910147792 0.46346757007402767 0.564091548945693 -1.3818296238410912
Ni 2.819092183443872 7.226206040243447 6.779925236688834 -0.19823848149304568 0.019018450084031763 0.06705488466696839
Ni 1.197577925501285 8.436076950392271 3.852900648039554 -0.11424876874395162 -2.902679052723227 0.009491741540519136
Ni 6.002891707638556 9.005831275064063 2.889261467584461 1.232937296881341 1.6412050818547734 -1.2882208999449942
Ni 8.292123780738505 0.4417467797076296 9.226514007684287 -0.6389756998490932 -0.5156658493441377 0.6954008727163572
Ni 3.2906789076963205 7.759610241255565 12.701528307658439 0.09235479688433772 0.08142143780128558 0.9338310959369401
Ni 6.528734563376904 5.186888025596935 13.000277523311318 0.25095355249857426 0.2985991794009954 -0.5981275554844795
Ni 1.8059646940012715 4.984271805432677 2.265067312486376 0.03357140819754218 -1.1612014617989357 -0.8128846034578388
Ni 4.462334871608753 0.7620769097670324 7.418756857355541 1.142673321087761 -0.5995982264927351 -0.39106221972842325
Ni 6.318325054832319 5.08620616190251 7.992248249360183 -0.21751481322415445 -0.035309216824255314 0.11506637954924055
Ni 6.1482179804831425 2.6073374048812537 7.498519308383342 0.21329357605395524 0.9665332141556515 -0.5581700412549354
Ni 7.438424705019179 0.822042552763949 12.037506737847176 0.17161265137540122 -0.9552015911929163 -0.41972822020454803
P 5.884786277779542 1.6114757602907839 9.293797919579301 0.46967806976011367 0.7365593492325379 0.9741169400401806
P 8.15359807977818 8.673224860260792 3.1035091706563573 1.5145139735824111 -0.7421864656113283 -1.1756659739636979
P 2.360540661779948 3.7157656779461474 9.406502786145234 0.901785380355305 0.5939772807615319 0.7831955610338383
P 8.499304641239812 4.3208681320572815 7.640282935111208 -1.0376044190708646 1.0313772072142302 -0.9691626813586988
P 9.268826924727335 1.5354262545127528 10.895834523205627 -0.4916373476400243 -0.23461547746018305 0.8730152502011482
P 7.437830930666393 7.887819112836219 10.487545072732686 -0.5998735916413088 0.46467496011856746 0.28966022504015276
P 6.732835219423129 7.047888179922139 6.626402094458509 2.2992653091391433 1.3730030266883968 -1.2612263736340212
P 5.406751535164799 4.89647670073858 11.10008826170218 -1.3910537135425203 0.17556649381682665 0.2626780400243541
Ni 7.552123215853603 3.499557591737627 9.425539748559038 -1.1729861131386894 -2.018393886035214 -0.0530490573061796
Ni 7.994030500190971 6.9375853161677155 8.576180792249614 0.711736119541271 0.7528927962852388 -1.3544540600416155
Ni 1.7069435429497983 7.165622500810661 11.139127997625492 0.17589610924210353 -2.0323657748342745 0.07549350235262482
Ni 6.009005727927407 2.8235454910897735 11.611089541938137 -3.5869609327082865 -0.2613881175683369 -0.1657201971503662
Ni 4.200842213275973 6.651952019304443 10.326431824283377 0.6386843938609195 0.8878456303457612 0.0027757629729242518
Ni 3.4286665006494323 1.5417351070111134 5.371998107850668 -0.547430029129612 1.0503290657263846 0.1947042430875421
Ni 2.761607403914693 4.359621186300887 6.001813636079277 -0.5939942500423964 0.03446666631830193 -0.0027539085960533215
Ni 9.138205844838486 8.43279263600342 0.6299175831954943 -2.050916284142952 0.47702139749906225 -0.23056753264305455
Ni 2.2026801834570002 6.07083248241134 9.050342084984848 1.124542158704689 0.42554405555537683 -0.15825448490094035
Ni 3.119940948097308 2.5088914727340432 7.71462719516983 -0.821027287169631 1.4776358696091392 -0.479165954645891
Ni 4.799877035719566 0.6166216765551994 11.91661427961977 -0.23182223098576205 0.46662539897671895 3.2746821989376698
Ni 4.226912618453021 0.5609970807406106 0.7829360172259499 0.6368064601119162 -0.7267585610920322 0.02373205350961719
Ni 3.706098289264836 8.741314078621773 3.045228362385474 -1.0077670239944578 0.2939364838180034 0.5266622004546414
Ni 4.78542234131891 3.88266265970057 0.19729266198255302 -0.3457730088733207 -1.5563931303147003 -1.4323039784415592
Ni 7.894025910367694 1.63494840267439 3.3527904883151063 0.5636606320558615 -3.611382813196077 -1.672947921484009
Ni 6.658715480291655 8.79126534604997 0.37579978787881135 -0.2748822954000298 1.8933518833305005 0.6852902666449167
Ni 0.35260176613336924 4.546353942528096 9.475442771821069 0.32191394286753594 0.5960436763722574 1.39657130092664
Ni 4.437275738376295 4.7229832570336665 2.1682635375335915 -1.16033448581295 0.36738390227487694 2.372365371558927
Ni 9.128427123466027 6.7452488144860805 2.040594629505004 -0.13073802464822645 -1.1286901194347916 1.6836701929975197
Ni 1.7373002567360272 0.21804322006760174 1.083652110422435 1.1954259301994445 0.6264392579449791 0.08742496368288814
Ni 7.512525888702128 8.945451845565048 5.074280575135756 -1.245457797945855 -0.17934010192664596 -0.365274569241358
Ni 7.340238549151313 3.1915185907809134 4.651434375295275 -1.0372444646282846 1.5226931669590937 0.99195139711844
Ni 8.152614641006377 1.5364282487330807 0.7978286202117856 -0.125726430366248 0.3817118888617749 0.3614577665984291
Ni 2.3808310447415866 7.231763397076561 1.9259748406513344 -0.03147287379730064 -0.15709003227919396 -0.9835050661232998
P 0.7473336781418195 2.9618485266678034 1.5049619191250816 2.844480332895307 -0.6185189746566381 -0.744643411792253
P 3.123271651107472 8.759674694936855 5.241545882543392 -1.1971881643061897 -1.9340053951858047 0.053429580574049916
P 5.460441725470699 4.940610835054317 4.114498144656499 -0.15357533425771613 -0.2904752647422804 -2.4547640856718176
P 6.019526667240851 1.8427787038740575 13.857118964238282 -0.4810865687073714 -0.1459206459259358 -1.4109710212917377
P 3.9077867370028643 5.262965364547752 7.534299779773309 0.7528647712607808 0.4747076617642212 0.9779609963766189
P 0.8095083472855886 7.6751922281929446 7.8530508411632685 -0.024061668934894045 -0.4111764739797951 -0.1550694023047394
P 2.6161976315517452 0.8612121768269317 12.722127638838014 1.2343097517488355 -0.6002366314076824 0.39439462653576596
P 7.228043029647381 1.5794212229645552 6.056523448281603 1.9494543827510233 1.2654347552884142 -2.2322376781656845
