# total energy = -340864.79959428683 ev
CRYSTAL
PRIMVEC
9.31875461474520 0.00000000000000 0.00000000000000
0.00000000000000 9.31875461474520 0.00000000000000
0.00000000000000 0.00000000000000 13.63893933283372
PRIMCOORD
 96 1
Ni 7.097936919106011 9.283790579263979 0.6028535284879216 0.5948655969037562 -1.1736024065664499 -0.636718271273484
Ni 3.103210495206976 7.371144164895072 10.82716270722579 -0.9496917171182805 -0.6937769639596891 3.049041928392904
Ni 0.56204297482776 0.25757130753578855 10.162127925276629 -0.444303338440751 -0.1789338676271628 -0.7145208813752597
Ni 4.013792595700808 1.6633044989729742 2.9230976073356687 -0.03422241151797977 -0.3492244577570308 -0.36554299241139626
Ni 4.3534891551778765 4.907358650393058 5.329920370922382 0.4045093463722646 -0.1376846311693887 1.025086489109512
Ni 0.5498149051120765 3.7953796266441184 8.022833558458448 -0.5966273167898692 0.114275508216829 -1.4414668758877498
Ni 3.413935046799529 0.5576091114146201 0.5351555723352578 0.5919718202957288 1.3166855830435904 2.0384317785226957
Ni 2.932388405618352 0.40333153864753524 10.2997454286658 0.7398873851645064 0.3101622016482465 -3.712865797633928
Ni 0.6577708127803051 6.98086540574057 2.3581723417267315 -0.1618090350214181 -0.1378566379708787 1.7506769980353718
Ni 0.9455553863061781 1.2857644772832935 6.464693068291624 0.8423160213450783 1.4748331100530212 0.18017365357153486
Ni 6.319522714342659 7.2017198884883955 2.314050834576262 0.3452017097508829 -0.035250595672178 -0.5781189735730367
Ni 6.55863263724673 1.9224311066425437 9.625408665928497 4.800705715821578 1.3362730182572147 3.0542473838532436
Ni 3.0110107377256683 7.7286768205738 8.716005387884774 -0.1882309766583726 -0.5593730604241011 -2.872528240171459
Ni 6.122170130560657 3.551778064048721 2.2946426644826374 0.1778349781360292 -0.1793491007877105 -0.10796139307334311
Ni 2.995383186351487 7.302977475388729 1.5756252693220871 0.9899009423473144 -1.5251534555741282 1.3283103117667123
Ni 4.920209212912435 8.021024788201006 0.06200512900031584 0.339611360147299 0.34094216314358056 1.816561002322691
Ni 7.023153913871779 4.509550337565127 10.471541328104513 -0.8050013440550201 -0.40007779296347223 1.9893301359000384
Ni 7.93687643464772 5.223255110758819 13.331135350708818 -0.2667275275033793 -0.49746526717571093 0.9409641074372955
Ni 8.572573913534153 8.542716623967738 12.03186333871063 0.9301683023733723 -0.4838134807202313 2.3113047568021807
Ni 6.482917756557866 6.723127292498402 9.039370830019413 0.39997777705049825 -0.20319222595389522 1.2249121125840194
Ni 6.209104791723292 0.5186063961364449 11.809439577697205 0.7029367760820862 -0.66512253344779 -0.10361031519349899
Ni 7.537493252301463 1.5927708458118643 5.762465273197182 -0.14402934244049387 1.181663072087397 0.23026028581528088
Ni 0.7431334000509764 0.5440540510515405 4.045241528543736 -0.633448856493593 0.47306292707194664 0.7543333853865073
Ni 4.426827753457428 8.04016551003915 6.575059737760986 -1.0517308311699178 -0.20932096455945243 -0.6669657573041158
P 8.933703608467761 2.2397346989448 9.65195034262733 0.9439995518295096 1.2259402967382176 -0.9737752404300455
P 0.7686220574860758 0.1665419856254989 13.365069595389249 -0.9319516195260401 0.8943700617278403 1.4392984074815214
P 6.622466105889034 2.6522759627104655 11.941887036064076 -1.7387452795947926 1.4274880451101544 0.4867136850861618
P 1.3107573769765286 7.585540750742297 4.301462548545762 -1.0478281536814018 1.1433796031261663 1.3557851201482134
P 4.662629518497555 6.08633951933005 10.271757481261377 1.2788577135625396 -0.897948523107718 -0.47164599211976194
P 7.205643084152397 9.244577260133056 4.553686754722871 0.48255749682594307 -0.6065065235767941 -0.8043930210470598
P 2.951063189729181 2.9194353367989643 0.9732702942023936 -2.071889029739877 -3.60453416570536 3.4853499073330036
P 2.084707898312191 5.2429922328879295 2.0858028519713843 0.9041022014139396 -0.19019555658391113 -1.8944908820309503
Ni 0.2547598392891633 4.37625487253454 10.270939294612209 0.2665678619970635 -1.652345671852625 -0.6186750406185281
Ni 5.651600982235046 2.6407207070730263 4.50016821548789 -0.8131800232110704 0.36977631376645353 -0.1283121888155532
Ni 0.6663673638492869 3.7312759141199714 0.7469429069095128 0.13281547600254545 0.08013974287538456 0.6257455743120642
Ni 5.024057413576645 4.146668716776811 8.902053390526634 -0.47720163183066844 1.2027512602162642 0.9394836662370272
Ni 7.659848499494667 6.271083828210879 6.086062752320024 -0.7305239416717355 2.227923624171363 0.9915541616800213
Ni 2.4212733562616946 8.060657451286513 13.179047685260118 -1.033750335432097 -0.6166646950567186 -1.4497465993980387
Ni 2.6817698208495737 5.058760455507147 9.223264336610164 0.03747948500269674 -0.49644685321352566 0.4787615201186206
Ni 7.365394493339991 4.194408696317617 8.352731447530058 0.7805380688063331 0.11836870444959614 -2.0250270750810153
Ni 8.887622367236201 8.864120468270377 6.053942869149763 0.5439302435064697 -1.563690949527694 -0.806076836507386
Ni 6.6700569853571 1.252943823771148 2.6106155386356793 -0.6630509956307419 -0.5628476492362628 0.5198017258893822
Ni 7.667350096904457 2.5719110235029863 0.2758258158165783 -0.6977472614613467 1.8038957481501963 -0.6157414119115008
Ni 1.6855390473204979 7.15359784001119 6.7224013615192435 0.44900074391642025 0.9005682201187523 -0.18357110928885803
Ni 3.7600242718953742 5.946465013589759 13.070113308364528 -0.0380600400965151 -0.30668144218849763 -0.576700238848639
Ni 5.5461033620161375 1.6010272623399056 0.4189190193771677 -0.8938725532661316 0.834549232915466 -0.42423690670817904
Ni 4.1426057397946145 4.547664043659584 3.0720346018722564 0.11355714199356572 -0.6863436476100954 -1.59748990035501
Ni 8.245606772767362 5.99024452244838 3.7004075396852807 -1.7262430333627237 0.3781596527341423 0.008311090968856655
Ni 5.4554225615258805 6.1966735731585 7.077804681784137 -0.011622157619960629 -1.668182895995198 -0.05524452229560163
Ni 8.092956254544065 1.2202256765590125 7.9687959645952375 0.7265634143620906 -0.28614218458456525 -0.22538316022863764
Ni 8.500437434591078 8.130296504011175 8.396035699906815 0.1349536053914708 0.18354694091914195 0.019037476247425276
Ni 4.610901112010923 1.7657362489461432 9.10284645848714 -6.045106276147512 1.1928995642331648 1.905492889568409
Ni 2.025738819543067 3.9133923342187376 5.009159520683441 0.5143314468034303 -2.5856532911859276 0.2404310557006956
Ni 3.583452510751669 0.6327890955925257 7.374083300078983 -1.191601928467664 0.35560747846523916 -1.0756323203778637
Ni 4.766151562752643 4.104519989963798 11.640712344130593 0.7817248900255827 0.28235160719388147 -1.2766275386804402
Ni 8.500670403454734 8.942938494223167 2.625741741015269 -1.7668309820874153 -2.762814383183384 2.159651836378158
P 1.115576063003819 6.899167884632967 11.774946207743994 1.0407182821094978 0.6160448020845325 0.8016036312273808
P 4.595236285618556 8.670709717661468 2.3518709999025087 -0.33865876642604253 1.3756661753428565 -0.34416452673562015
P 9.041465686041427 5.98140102438392 7.895009134222007 -1.037616760366039 -0.926234771646921 -0.6276173374134804
P 4.178128832125193 9.255619984270448 12.054667262960935 0.14324772707946298 -0.7815300004059572 -0.032632184212724444
P 5.851581454799112 0.9557035100071225 7.881956354728973 2.489399930578132 -2.5941749555036937 -3.927011180165218
P 0.4946879488424008 4.149389793104336 12.358706540041958 -0.039104936421261685 0.2668177732243404 -0.24274350588395616
P 8.142075409757727 4.073535131097278 2.0297738402616243 0.45719664946365124 -0.02987878983730338 -0.5054485424915037
P 3.2060709078892757 5.554890947553319 7.1805607244155185 0.6932879401384124 0.5132438701662064 -0.44192275402371634
Ni 1.9350859753164487 2.0377972879260073 8.697660487684885 -0.592650077309676 -0.7927970886793443 1.2964774835268318
Ni 4.848976653160351 8.61643729118369 9.74461324220959 2.614785175554877 0.06085646916574035 0.158201777286134
Ni 4.548605237868762 3.886843202516267 0.4815475730566325 4.156074360348604 2.031143472391399 0.11930587155188487
Ni 8.512738190592222 1.7560261067088756 11.660460648765158 1.021093308789719 -0.1443425028055385 0.9174724520732587
Ni 7.036125620200258 4.169546259188031 5.713187699156233 0.44668906506410816 -0.6989672499113769 -0.47827172496639564
Ni 2.9727572503130175 3.242805438310876 7.021748645686193 -0.031671877181984165 1.3732552519085188 1.8965387656989143
Ni 2.8145620731346592 3.504802222380713 12.726630538915288 -2.8263872228390228 0.36708179765342586 -3.26750367891136
Ni 4.488676327381366 7.238631475246377 3.9880802881565973 -0.6040225808126759 0.3277477759404936 0.6654611477341313
Ni 5.043049035342049 0.30753474191134744 4.807958291273807 0.7476567446972802 -0.17298973422858596 -0.16758604671451138
Ni 1.5933299710846438 9.064855759952694 1.9891710948278456 -0.242239312554028 1.267751833457365 -0.8769140710349221
Ni 8.401807736472808 2.6021876570239857 3.707227004262279 -0.06390888283881897 -0.4308253585589742 -0.04189226935841172
Ni 2.749088503692202 9.051930647396945 4.8352491958381645 0.5927804322399534 0.537336649449352 0.7845772718727132
Ni 1.529710833796905 2.1747177484751132 2.4600831733207613 0.6083770011266296 0.5278001707138265 0.6552530968528779
Ni 2.290149161040401 0.9552189347707137 12.177854674935126 -1.7147337471715436 2.6498028292806426 1.4627152437435647
Ni 0.7597440800297951 6.732380815762899 9.591979497744477 1.9207590716988596 0.7565172804117035 -0.7084769891740249
Ni 0.5579101071864663 4.450236464877789 3.326592224187765 -0.1399777980789396 -0.5032415075378559 -0.17208444880549717
Ni 0.41247044123111304 5.483136537546641 5.808347093081452 0.5649394987682851 -0.3182480639801745 -0.7945007016340124
Ni 2.519772591816316 5.836736678806821 4.024387087744522 -0.7912045473812438 2.0819937222740466 1.090440846145606
Ni 8.923359790921344 1.308026981894456 1.488949669535839 2.1106514952200555 1.115809921038014 -1.1128636939254963
Ni 0.8652314496187029 6.245457253208494 13.967910077620806 0.4478681729738738 -0.7831050582025609 -2.368002466604541
Ni 5.954693473854163 7.2292008956455 11.822669413526617 0.8387666134309232 -0.9392718073365373 -1.5731400107557358
Ni 6.713845812970266 8.529726280130166 6.800170095710118 -0.9976875282712687 0.32287579256017296 -0.07591362060917893
Ni 5.372979540054572 2.9160619476531955 6.934663952575361 0.4930931062499443 -0.5503829411103489 -0.44412567521230606
Ni 8.607454011801035 6.147349405344818 11.19480062033455 -2.654889756885247 0.9804637081938148 0.8767451495572255
P 3.2538388436937216 2.9035468602974857 10.25417765080974 -0.7288966904809576 0.94158477174043 1.3317080245943518
P 3.5097970748175413 2.098126904858894 5.406952923504097 1.0449418332725424 -1.2641759431806487 -1.7405707628393057
P 7.471479195095319 8.52488052776608 10.351177498757858 -1.5128340147768267 -0.7013542620863147 -1.781090577330223
P 5.867264918700571 5.967907467800846 0.13710310813821378 -0.6017247859174347 0.0675361951787611 -0.018513228312839084
P 6.09839798771299 5.826924030269544 4.172464893111939 0.20724711274955918 -0.7902000173761294 0.4300936225992722
P 9.20294106482009 3.399640077325472 5.711074205625126 -0.2175101852384641 -1.3225281578672963 -0.2809364720139097
P 1.4418536159341833 9.019380237766644 8.068373380050867 -0.6295263815107353 0.9464675537540281 -0.08514079563440176
P 8.172007249360512 7.386371009823762 1.0578333323329907 0.32983294060429647 -0.6369668969491803 -0.3235113692616428
