# total energy = -340864.4192455362 ev
CRYSTAL
PRIMVEC
9.22606006106372 0.00000000000000 0.00000000000000

0.00000000000000 9.22606006106372 0.00000000000000

0.00000000000000 0.00000000000000 13.50327148381012

PRIMCOORD
 96 1
Ni 1.054381833524258 2.1314874532281776 1.9498051086947845 -0.5998761627444701 1.3261909514308643 0.8404974800791009
Ni 4.265604333602601 6.929315519411424 1.956056687060736 -0.69783005098314 0.2270086116472026 -0.1930839338752997
Ni 5.629289834066831 6.267631710633861 12.620076747127401 -0.16520340541494774 0.2109101634234432 2.9329764181551874
Ni 1.1421954741487068 7.13844262510951 7.538728161733652 -2.648712167319625 -1.5265601061136678 0.25339378650895067
Ni 3.133603655933198 8.508420298604404 3.868593125730047 -0.03401029550717369 -1.1256773007503968 0.4758001234974515
Ni 2.347700173130884 0.5776593110617572 8.736697937381306 1.2260526539463659 1.803528594618765 -0.8888481034683466
Ni 0.7383154644853456 3.011718175129501 11.417934024468355 0.22088578657891633 0.6740594309261037 -0.7599347907336848
Ni 0.744472937037642 8.444723579244119 9.316649924393387 -1.4567446279824268 -0.5882146672461419 1.8234266190942727
Ni 0.835348707029947 2.7283766414861463 4.615931677054089 0.20154234905529808 -0.9010888685089127 -0.22666176983074512
Ni 3.931316495743213 4.330721866227876 2.25102213390253 0.9360872389609686 -0.6896688553285863 0.40992434674024886
Ni 5.817344618354301 2.5290752898608733 2.1484108153838224 -1.5386268074702145 1.684129134911809 0.4395172299060172
Ni 0.6777408438839712 7.4460394709194615 4.451583254353562 0.08148340138747256 0.6491004469879208 0.6153333778398048
Ni 1.025495039156203 9.1264279385738 2.6295729179964056 -0.08204852986232321 -0.8174683661737792 2.2517842328390443
Ni 5.825998662786507 6.581806737339509 7.432525137993775 -0.2056077773739233 1.1659518319997275 -2.1734812860620827
Ni 5.164803835197543 0.4738467595099226 4.37145492184428 -0.8487754038171768 -0.9477718743877483 1.2186023683159077
Ni 2.6034373347687385 6.669592699783471 10.726567212330732 -0.8308141913530659 0.7377685390492907 2.2313833005851893
Ni 5.823968929550808 3.0615758042463868 12.550088777342467 -0.5643692280871119 -0.27502910539053926 0.85204070483201
Ni 2.8222056733363923 5.827308763329548 6.522512693888657 0.7222902409080335 -2.9382651773579522 -0.40194569941014646
Ni 2.711123908982708 7.937530147883702 6.360635010099584 0.883040238537318 4.228023082772763 -2.4568556780935236
Ni 8.767266642516942 3.7668711994109816 6.5140053438130305 -0.4138257386771841 -2.543375356353323 -0.8853012666573529
Ni 7.948905880063776 4.447025580633402 0.9416319974932365 -0.8579421579181095 -0.8255552569469717 -0.15354396679914847
Ni 1.6720388832074875 0.5998996516889159 11.242310433643521 0.4714469887350784 -0.12143088831468764 0.09937339429401595
Ni 4.862225966115863 5.627702951718921 4.81411852061176 -1.8294265454314491 1.3706998324765167 0.476334912954999
Ni 4.995431822738662 3.4341425657190165 4.24834514285705 0.5692437825705938 -0.7327415181483445 0.3621961874263504
P 0.2204031964284076 4.551178573805224 2.5065987620935606 0.4569318258380389 0.42739190739739297 0.09466081930969504
P 2.1161998715393024 7.870807280790194 1.3159166513680804 1.4195289381640777 -0.5670434324851653 -0.4153378044463363
P 1.9345571990646075 4.865990198662069 12.005745692132667 0.31502055818181235 0.3730737535708027 -0.8161861570272461
P 6.541276655046673 5.843915671621628 10.906254882657043 1.1511376498050303 -1.5204167122200911 -1.4662325128682039
P 6.112587769606979 8.235531891124898 8.903422993179634 -1.4904175947548397 0.4850270414123582 0.35787904810823523
P 5.671185373263681 4.650045034504068 0.6191775043979708 -0.2812280351123995 0.09437619818974069 1.3204633049184678
P 4.141901318946937 1.8247486310133163 0.27477974981277165 0.431080926213206 -0.2693302552335491 0.16313778113517066
P 4.734242059544908 7.753534830067629 5.721754331619078 -0.446706805675921 0.44075187364406676 -0.5716927583317186
Ni 9.187329161704918 1.2080603176471247 7.166280416437115 0.8145720184625906 -0.026437111145606082 2.5118711150974544
Ni 5.717998402527019 3.6447458410430653 9.872795908368772 1.3439490467452337 -0.2555527418334824 0.9726051313813443
Ni 7.593693337756369 1.662416102458244 5.665567625230877 1.2142690310478765 -0.3720537969467205 2.3999450809494087
Ni 2.370866810198334 5.303914370324191 8.989573175156826 -1.5346475111074924 -1.4039747924795627 -1.338336842764779
Ni 7.3977871762708105 5.552981090464727 9.029138211556688 0.040594633592910725 1.163599272607151 1.3184017944037487
Ni 5.278321279434065 1.7725844868558636 6.310119562893129 0.29225163991641284 1.4476403516883134 -0.15566769801037061
Ni 7.660176327285659 8.411445180238825 12.693561393713834 -2.1518624222407263 0.32353425207977826 1.6613818139129644
Ni 3.1994684994316156 9.022062746018246 13.207671602377903 0.3249419310605823 0.12461494246962411 -0.26083918704340237
Ni 1.5988577740003929 3.225126172742878 7.807726862248749 0.6941484883664949 -0.6833282578225393 0.013485178970628387
Ni 4.904425965298068 7.297029373238702 10.597151421222593 0.16272409063651974 0.957022703562055 -0.5186904951030744
Ni 8.1363609704407 3.2359667934335405 9.148493906663893 2.592559531387457 -0.5179091368523596 1.7802901929161143
Ni 5.311129149371084 0.04292978054104045 2.1750261537399274 0.033900252291870644 0.3871492578272623 -2.383452996831656
Ni 6.844140531993383 7.093198026073757 1.1849130553060152 2.5992798808304265 -1.8356164762922453 1.8925916081257081
Ni 1.9479534384202177 2.2097705737050055 13.24498086706809 -0.9675719398328112 -2.3655064396555647 0.27522888010617114
Ni 8.775311766978438 0.9015133974836385 11.594705337177372 -0.3805654339621575 0.3986063506242683 0.8635787873785966
Ni 7.876675055053395 6.311483174585111 4.177263884942887 -0.5742039547893465 -0.518501776131036 -0.3548636583206792
Ni 2.1414977285042363 5.633413882959363 2.3272081709044747 -0.5221630270327071 0.6816511272304325 0.06650981079677577
Ni 7.673360367257537 0.5221184288849151 9.427930049040558 -0.038416652104985446 2.002877792677486 -0.8249587610135535
Ni 0.29812260462932105 8.924690907065688 0.5576461413577695 -0.14190509700863946 1.2125577047837246 -2.6342759372896376
Ni 0.20007172764882178 6.939012108641965 1.81551519000292 -1.377490373035789 -1.1467472340468186 1.2198832919108604
Ni 7.96679521071841 7.638301338640925 8.045370797302382 0.567498517744713 1.7716721122298003 1.3237342623602557
Ni 3.1800015124892345 6.465290823550251 13.443073604812106 -0.48965811242646634 -0.6202254158247835 -1.0439689278363118
Ni 4.2698390952170815 4.655562218481103 11.523111110318187 -1.0231579046282313 0.8341609963381118 -1.1885783111499917
Ni 2.936359715724111 3.6030071448689736 5.287448620752595 -0.8354766298257419 0.12213717035309289 0.08464945782028002
P 6.53592554015256 1.9704557991559848 4.067995964017104 -0.3551415945724142 0.34313531414015747 -2.4721259739890327
P 3.474847943154935 9.124582726541346 10.628141757307644 1.7666774872286863 -0.7237655399019793 -0.9270582959894808
P 6.850192827459829 1.6107870697902027 11.324775727191906 0.36940556069059605 1.5745641447967722 -1.1623294047557917
P 0.6219434772346183 7.573165353895327 11.64580202617405 -0.1493137307678848 1.0769070733252293 -0.30660199510081393
P 7.8796919767264555 8.235679508087493 2.9777957971248807 0.6646797894834164 -0.12090484060788856 -0.2782044177947273
P 6.826491078902968 2.042326807820038 8.002835892136286 -1.1814931221684362 -2.093451072181369 -1.2249555642274452
P 8.667763583666902 8.473767216634934 6.212017942581737 6.571961052228934 1.1553899973234814 0.6430547550144732
P 2.7865377247490715 1.7006396697105124 6.398552272154466 0.05104385395069273 -0.2597953191599203 0.858181013401793
Ni 6.122598044883037 5.239451887970438 2.8864596467304784 0.4896059190322922 -1.3848054186399634 -1.8812119055338568
Ni 3.60897640579396 2.256140752080555 11.55244075557403 0.07411153440343367 -0.3366494493054976 -0.9611338975169511
Ni 6.886903320845486 8.187436439499004 5.760063701230855 -4.565163098561434 -0.5268519478679443 -1.6714924199844052
Ni 1.148579907780995 0.5768123587388612 5.250247300966306 0.8417143832053375 -1.0302940014523805 -0.05005166524075251
Ni 4.925369121866414 1.3824420807741165 9.47199186716351 0.3923547132876017 0.08322095290386958 0.5411619367327132
Ni 7.985551791028297 3.624199405061699 3.7351132551204294 -1.0588283614466474 -0.24888407156405526 0.2580947915290458
Ni 4.63425924556643 5.5731953882802525 8.892728144239536 0.10643930000186184 -1.1493558753142594 1.5568075921442994
Ni 7.888355247218824 4.150619945800279 11.787694218439622 -0.5556395615235978 0.6572690988416423 -0.12155070172200358
Ni 3.0169401251813435 0.8166576317472121 2.0841485385355902 1.29705803862065 0.22029366152087224 -1.1729598878864445
Ni 8.727779105022444 6.338884573267041 13.11814468238132 0.4474951059051713 -0.13540869065101843 -0.8581396186408963
Ni 1.2745802114170632 4.297452693282744 0.5381570118709985 -3.4616517923851164 1.0494338076056249 0.4456719366535034
Ni 7.857447945675233 7.791250964010973 10.598866545806759 -0.46601167665212007 -1.704347775951529 -1.159716649723293
Ni 0.5025148962521321 4.920691509364144 4.712952003114463 1.874807801779726 1.869097124548194 -0.41435564303872513
Ni 5.345533127716174 0.37541023321464057 11.858181318079337 -1.189014884466778 -1.3965196217530982 1.2677510621264168
Ni 8.206663548877167 5.945568402489475 6.6221126263703995 1.91947197745632 3.066063145541249 -0.8882984016124637
Ni 3.266468148329992 7.418831819500939 8.548313782746044 0.4884507223819265 1.4620205316693853 0.7656966329181264
Ni 4.4270234822016095 0.19790175829865678 7.566625922452312 -0.2845396159841358 -2.324695319176474 -0.6801994823855706
Ni 5.876446759753777 7.439442837903442 3.43461124957526 0.22899735994245726 1.0293504065921886 2.485733280359822
Ni 4.294731005534875 3.767738449066235 7.241764350260712 -0.5885951905140121 0.31916286248496 0.42058594021915313
Ni 0.2387612109392847 5.860679422936465 10.091048510173355 0.5022727158666833 -0.15495550243469441 1.1158811405955813
Ni 8.641773772189799 1.0457001109115656 3.6349459199387066 -1.6885061809335822 0.2697251766791226 -0.5400774454192828
Ni 7.045259417470622 1.5035710246445082 0.7721428140702943 0.5178528296931275 -1.8962865404787923 -1.7238308243768055
Ni 3.304138151972525 3.9634693154087106 0.05074794392254475 3.7678899763886076 -0.1334541380278089 -0.3956457253340476
Ni 6.6314152628320135 4.063858076034328 7.711246260707866 -2.0784916226580594 0.28657490124660967 -3.2965180638658387
P 2.5296288534706095 6.378012294415212 4.283899610904375 0.8626562755643272 -0.5534633798078856 1.4644242560148717
P 3.226546986007867 2.458403669017915 3.3549285357718164 -0.4216092392773449 1.2620270151584458 0.24022099657241855
P 5.519877986602517 8.130936047065287 0.21253428971601082 -2.6533640642693403 2.868930752628188 -1.6491143093995213
P 0.6036648068411367 1.8174046871241523 9.426012873738841 0.4699902016838938 -0.9211506722557942 0.7674395837511622
P 3.6068636380168004 3.5162360490428606 9.353311519660183 -0.06750688460272244 -0.5171815146577158 0.3718990165364111
P 6.623093356565649 5.153142095152439 5.811065361807862 -1.8288470187788957 -2.0427239781401463 -1.7824000401702658
P 8.86907621640755 2.2494610845230745 0.24453118896476594 1.7477801361035512 0.19068766572898127 -1.1851412604439848
P 0.17129195557864885 5.05763392035266 8.029761226113845 2.403824104288841 -0.3186332152337351 2.110367131210417
