# total energy = -381160.78278517677 ev
CRYSTAL
PRIMVEC
9.30255225988668 0.00000000000000 0.00000000000000

0.00000000000000 9.30255225988668 0.00000000000000

0.00000000000000 0.00000000000000 13.61522554874124

PRIMCOORD
 96 1
Ni 0.33030013938282327 7.069474543292944 2.617581905796838 -0.42779351371118585 0.40546322564510173 0.37731196002186634
Ni 2.299637416244137 5.643579342298217 2.3616286938400974 -0.45747047195032825 -0.7813865328495576 1.410615951945164
Ni 4.205228023909623 7.0436878685985445 3.2214849894227227 -1.3061191203816538 -0.7959968265635646 -0.2560363663381204
Ni 4.847932052755687 2.3945699614304057 7.058077986594492 0.43011316298329794 -0.08151014086034994 -0.022239271014174604
Ni 3.677643078520695 8.770306674516004 4.904599479728414 -0.9593356679659478 0.3349399228135586 0.04261474934673306
Ni 1.1062315997957324 4.156817542268335 10.804552509342745 -0.7423065361289602 0.24096275983444954 -0.37486915490832856
Ni 6.838473567098391 5.620350869458421 12.619122295021455 0.7491130175278324 0.6588773238690265 -0.7601039693216973
Ni 6.204113927574432 3.9499845966856326 0.9542083615117037 0.3836818681039521 0.10407285665221432 0.4925390335186872
Ni 4.951906678678952 8.808940173796609 1.5499028730775826 -0.8155413243543955 -1.2321888487510908 -0.6567024277048948
Ni 7.659507521590781 6.444929096338462 10.25471585909487 -0.824193857823071 2.373029744615803 2.157476940214026
Ni 9.111635919785437 1.060128151099687 5.461502348626311 -0.6860438569814895 0.20490303799741483 -0.1637021382790729
Ni 2.9154663717885714 3.252516443046667 11.484292789256923 1.3818350231577299 1.1486724760939895 -1.5825785304608164
Ni 7.747528270493521 2.3092190450086503 1.8360949612109507 1.678437740953987 0.2932327728827595 -0.5223738574919325
Ni 5.898236708733698 4.926920023473629 6.547384615487703 0.04485675130337436 -0.8027313170739208 -0.5631523249608753
Ni 1.5267255642748792 0.002875418884573786 6.390918478273643 2.8231975122571313 0.6373523053130572 0.9821938035110439
Ni 1.295631562558341 2.8972519745837975 2.2216103991683056 0.8207303247545027 0.893313338328552 -0.4504631873945597
Ni 1.6958180555880393 5.026010809492652 0.13893640785109954 -1.4609118719862386 -1.7745949423035503 0.5221535139510104
Ni 3.6504517184443146 0.3744212142053565 8.44137214979593 -1.5654369856845234 2.6767346206744804 1.5142830885185277
Ni 2.210472453420974 8.328733126754928 11.018979128285132 -0.10811360238049122 1.9870045730906556 -1.115382603692608
Ni 3.0103151940050528 5.748577248963323 9.48954000953393 0.8461837318306007 -1.1348977909074003 0.8565121103398022
Ni 2.6044820517908303 1.280933530084622 12.38525334198409 0.07665666942279055 -0.5977544884157769 0.08540870458380775
Ni 4.055540656482652 3.6032040558278466 5.046211301591817 -0.4610964987386898 -0.1575471744212706 -0.3309621691127332
Ni 0.7371947028029004 6.442417407244851 9.606861937351685 0.5093134247635487 0.36518972283703555 0.4389940104126956
Ni 8.193018192730188 9.172279257567824 2.096390604533977 -0.7644504192158512 -0.7814888627553768 -0.8044683543696854
P 7.823623147477712 8.279764491981727 4.079815666444785 0.5408721734064362 -1.1855071284238357 0.02813738166616445
Ni 9.257788317376955 5.5222461539724454 12.23161890165927 0.036737464630349624 0.6895269304340835 -0.3113096849891284
P 4.715938139610371 6.656859840525973 5.657275489900152 -0.009125873560668154 0.883954265711155 0.17886341940054357
Ni 1.1207900939864732 3.0671630904904306 12.900235189654413 -1.491284313630509 -0.022848365353083232 0.6421281294351457
P 3.9729898082726627 7.7288394431266205 9.675156624317388 2.6198535912167205 -0.13002557196223413 3.627596961062095
P 1.039597418397473 4.338068469305009 4.267324420345426 0.13076142168699414 0.22127633714911568 0.001960980381112752
P 1.9904391862685191 8.190664647023954 1.631062989733888 0.4257949952239183 0.6723887280919001 1.44549013811453
Ni 0.3917304730812104 1.4425839796389366 0.6685167506866181 -1.5715204728744419 -1.7452427143936782 -0.7338473496180137
Ni 0.01264030792739845 7.647804910924997 11.577693204096088 -0.6518304443245742 1.9450477690428951 -0.5515311957821791
Ni 1.0833566239394823 8.964553266974061 8.986511941438753 0.5035035029499909 1.0507982920533192 -0.25148448530137985
Ni 4.347882661874486 9.164399995855648 11.345268007159936 0.7084505068114637 0.3687154766021069 -1.8799700627069558
Ni 0.9995034184216948 2.824710672539455 6.556057384902417 0.15225995788040228 0.32613620847899966 0.3605949043775015
Ni 2.569439337658869 1.1265483737973796 1.2594371924641978 1.0723755040034628 -0.707505112179059 0.0761524760928624
Ni 7.227087685193084 7.834860630533568 0.40731038750335263 -0.8470383665214122 -0.3047615994579655 0.04940863234011491
Ni 7.215040880095954 2.2809206812206417 6.83067709810078 0.018666208950935594 -0.24510352147570044 -0.5079934204005444
Ni 7.546769891496476 1.24659780991975 3.814591530966963 -0.10770016899215645 1.8549881959506374 -1.34245369314663
Ni 6.493674469858897 3.768389475217613 3.5310543912310632 -1.359858775996955 -0.10298090913961618 -0.4208240243718881
Ni 1.0846589812472802 4.144798644827801 8.561295071208399 0.44084957556419563 0.6103158700205553 -0.7585121993545453
Ni 5.329646113253533 6.047765932773294 0.5391563900687125 -0.9633152214389862 0.7467627721281009 2.2178829521059096
Ni 8.217939730070123 8.66348546761998 9.508260465578308 -0.6990166150920736 -0.1479466752170291 -0.6169452024116149
Ni 5.323180839475536 1.853375382174989 4.718887048657313 1.5638038209564746 -0.31745513576523393 0.4595538368419182
Ni 2.121447028880789 6.3102467456077616 11.722640921177893 -0.80895621493771 -0.9785978586296694 -0.2053064440834206
Ni 0.3611911244685696 7.870545220767231 0.32337252876055833 0.037214918487400425 -0.4865859012590459 -0.6230379455729141
Ni 9.206884751746456 6.09096698518339 6.0084673010104925 1.1096585567246373 -2.0061222677567128 -1.1050601387206775
Ni 8.36120833648009 6.1963835066974315 8.102570407958845 -0.7321509357521971 -0.0920866308246156 -0.9489162724048366
Ni 0.18949298828459404 1.3948525843081436 11.400777266383942 -0.24117693272778462 -0.5466013625807296 -0.5433147214096579
Ni 1.4083412849960504 7.660112187483687 4.733619500574166 -0.17688135597350826 -0.23848421638696995 -0.16718084085629273
Ni 2.8877540687890715 7.653163180991364 8.101358285407372 -2.1745544645216035 -0.43250146070981643 -4.5509816648547305
Ni 6.749950480376927 0.7326234286525298 10.888068962470944 0.851586905124043 1.719636840900116 1.3507285315609125
Ni 6.7037074933979035 0.3170058620358663 5.553392028988432 0.7427947886192884 -0.9264705418068109 1.4003814187013497
Ni 8.312193188945894 4.511579672912483 9.94010819501579 0.928914375361613 -2.2091643412859887 -1.9460430430766293
Ni 8.27150382562941 3.3277089724675983 5.075633413685411 1.0156921923788056 1.2574373389052342 -0.2688407171916402
P 7.254716265222797 9.27045839347139 7.540343688437713 0.47664807332004355 0.5000399698814227 0.9465642272328922
Ni 7.027743294130219 3.455181845244417 11.330263920718883 0.3079687935413535 -1.8511091726112057 0.2941578558001902
P 2.1717180209617877 1.2815474985297266 10.222596937118915 -0.2660508131513289 -0.24128774727403604 -0.32302491654352755
Ni 3.34883506851052 4.655871560064291 7.322962578917067 0.18611881541137623 0.09516501263962321 -0.6221540003060639
P 4.437661593142754 4.770199926584549 2.629263120592565 1.9960209176566528 2.0725631729887657 2.7242995149376372
P 5.175967950933382 3.8421587141521654 8.669794458521043 -0.8730623013889997 0.9648884794633771 0.3928928451792588
P 8.202432375555128 4.017642058825733 13.073611506255007 -0.21125803368116522 -2.4813449214841397 1.696769706493955
Ni 1.6543844880956688 2.1912254729221607 4.390488350943874 1.6606657616825464 0.8770351699938187 1.5323422600130834
Ni 6.464157471732878 2.236621927651116 9.076603438460893 1.0425987869616626 -0.7069939768705954 -0.6037011929175151
Ni 5.63260233070392 1.7093997817979316 1.7049661854200997 -1.2961465825499743 0.1618745981520309 0.24495388327171358
Ni 4.606372679815773 6.916335929000308 12.12832057128084 0.02408686574587465 0.9016647956170407 -0.9549118278666393
Ni 8.856485518083431 8.254582483180235 6.483910511071293 -0.45076606334695923 0.13501814008081908 0.11079577719834466
Ni 6.696181728669271 7.974426821168511 11.710795981463471 0.01970956261378541 -0.2811298189716384 -0.11316993385747608
Ni 4.9128266568928165 2.260613209771193 10.597179085477308 -0.9617764161969565 -0.28293473339086106 1.174302517957268
Ni 3.243455757205273 2.75334149207213 8.911437554430744 -1.1434564791106887 0.34825952274060024 0.1132789486315146
Ni 5.667440388687513 8.754278377077892 3.673442045947827 0.03222209325849935 2.489903866797744 0.9912430581975057
Ni 4.928166565468237 8.946078398307728 6.837307957307912 0.3307981327310432 -1.2252116461023093 -0.9273064074445448
Ni 2.9239968121546474 8.550301315020146 13.285764581440064 0.20495034629558254 2.2199863716021575 -0.3718951598816692
Ni 7.927997783145515 5.803034389533672 3.980016025948232 -0.24249205199478233 1.2222343086415401 1.043623371571435
Ni 4.5648646919058145 2.9002660014961306 12.954369531663472 1.4786622539911245 -0.16920507037517313 -0.03608543286864753
Ni 3.0163339452775184 6.6214078140972745 0.3738295718855283 1.964082159966527 -0.21293439294232364 1.8767155603254
Ni 6.9012843995430435 2.0381612790471135 13.188402209619534 2.045490742252006 0.2667905195308308 -0.007871175217960637
Ni 8.792800245732113 2.1637178260710295 8.599076456707616 0.9597303323012052 -0.8700291709896306 1.042698031543688
Ni 8.290881041859002 5.5571586323736275 1.09033167757796 -0.32144677342313027 0.920536692820879 -0.9223786311256243
Ni 5.266946911435263 0.6051459045996121 13.198831300889335 -0.650608398992015 -0.8979816903384987 0.1959309164057916
Ni 3.139425315968817 5.6350209942755445 4.844583133964207 -2.3799598960767336 0.3331265237539037 -0.16263718734966828
Ni 8.757208681020437 4.158798985886628 2.7330656493001566 0.7224918153958784 -0.32652727326983116 0.5202205585943557
Ni 5.792531808101502 8.97035805954596 9.020332300211825 0.1112176952271117 -0.5879706695561357 1.5596244927678042
Ni 0.7565030801462241 0.6426658883820497 3.1435649516971744 0.5738792244600762 -1.2278693954401303 -0.662037466764563
Ni 6.680423205244916 7.254483701417834 6.023851861836465 0.8288719800250306 -0.5232706582745892 -0.05322723475525672
Ni 6.374657617030566 6.986737644038982 2.639815005551388 1.7529480534577357 -1.57841488600143 -1.684296256617293
Ni 3.6668521179703695 3.66833122376994 1.2398162493670026 -1.9897042314100055 -1.6642048851840567 -1.131775957448967
P 8.380622762918476 4.019967696875373 7.5930752055752295 -0.2300324860751909 0.23601107225612902 -0.8705745019701394
Ni 5.381172949881337 4.833568912161115 11.058599628354001 -2.0981268803904833 0.25129962298408337 -1.4646240307305034
P 2.960565144847173 1.739037713102532 6.434677683815652 -0.8145285668191649 -0.1944713011411296 -0.43678131903209294
Ni 6.1082232195117125 5.737823498621792 8.814034251380539 -1.238728963862454 0.36732039602679323 -0.02683820323876668
P 3.6132322070978904 5.084142458181431 12.4556708713615 1.0412057632688776 -2.2675957459500045 0.8591459484182237
P 1.6380026936740109 6.074287509091379 7.52521680830764 -0.9826681720443011 -0.9361564016360071 -0.4293166352239316
P 8.366910800977804 9.26258843431141 12.7555870147534 -0.537926460514551 0.8644635039763949 0.05159407002720792
Ni 3.7984460213711486 1.55990776796713 3.2609417645728995 -1.3023149161442151 -0.4061833916405779 -0.9489419834364495
