# total energy = -381165.2325429141 ev
CRYSTAL
PRIMVEC
9.26136866168387 0.00000000000000 0.00000000000000

0.00000000000000 9.26136866168387 0.00000000000000

0.00000000000000 0.00000000000000 13.55494918986993

PRIMCOORD
 96 1
Ni 2.3764115768647702 3.5296834834919144 6.313678624610883 0.4255347995839962 1.1301217096749956 0.5162196649650787
Ni 5.706503308823084 4.841491495299894 11.707531100371826 1.338793213575907 0.3890030232065494 -0.6580046914560862
Ni 8.560153202078112 2.7516822265859657 0.6489468659219916 -4.225142675901175 1.9629089655940326 1.6886277941131114
Ni 3.401450575889751 7.396101062571513 8.723518184770414 -0.44964249126547723 0.5800588709082267 -0.10142873416114791
Ni 7.063599412366914 5.955800824844682 9.874522908400229 -0.06908142817869392 0.6747993944159217 0.41738980187935854
Ni 6.080514412434653 2.6849448055126457 1.7438036171678066 -0.8855866591082556 2.8348631215205176 -1.8627945793689338
Ni 4.5557968012574594 8.887570361001938 2.6180295661650255 0.635974194018608 0.2618951391117425 -0.5988999148741299
Ni 5.71976558844798 0.8391411068861917 0.5042778077260419 -4.572375300039157 -1.7509983859305327 2.7855053970229964
Ni 4.805038749068339 6.233493696543604 -0.03914502604088297 1.826682921248041 -0.04348043978113802 0.3641895637072954
Ni 0.9759722689602499 3.9188832313666317 0.12338272894325483 1.9013541848096867 2.011352920028033 -2.1465145276652517
Ni 8.633438410647802 8.152662251508445 9.326469390406734 -1.1890855898037136 -1.4166374755488955 -1.104983005625839
Ni 7.0468548582036385 7.815326166971308 6.26128798940832 -0.1353834938400378 -2.254296714848253 -1.1984217796029746
Ni 1.3250610300644214 5.933777290663118 5.716365740088833 1.6385355054424102 -1.6951403984206486 1.135360846586748
Ni 0.9202558763461651 5.984761123997648 12.228733132809136 1.8247216837566123 -0.05484111620959587 -0.08028603864526172
Ni 4.067630070092498 3.5799449300871005 2.9846639898036686 0.8455694952853695 0.8535761676399299 -0.6769982018394534
Ni 2.612168972207879 0.0423902095468629 1.3143039506061003 -0.5065980827149147 0.8866798921724343 0.5970057831752106
Ni 2.8251248784193588 5.499363542000176 10.34569317617999 -1.0435184705624545 0.45368220855248964 1.646906503114925
Ni 3.774128042444068 4.382127620024196 12.509360932170857 -3.2318015975240595 -0.9396451315155561 0.2284121768629486
Ni 4.314000993682904 2.9570438106658723 8.173729086328802 -0.7574482768664051 0.1219296823279771 -0.3038203185906187
Ni 0.1597576796798039 8.587992875648249 2.407304723613906 -0.10483056075384527 -1.0217826215472596 -0.9985213370264737
Ni 7.541337842653641 0.8589511740074562 10.091049072150396 -0.2753839176267967 2.7742167114830543 -0.13653226273250035
Ni 0.0919978035292571 2.1450348087999966 7.830991771709792 -1.1198812628939099 1.4648582582284966 0.3902988591998375
Ni 2.959618471095845 5.258419780323309 3.8869898568245564 -0.2515341075923926 0.17349726999262377 0.9279862071203888
Ni 5.880394762899224 2.100719160751726 3.863621571943596 -0.28790596135320734 -0.8558834756168681 2.317337593259822
P 0.03810404822675014 1.8966078614129938 2.954518235488701 -0.08389741014560391 -0.8971185710072549 0.21695174163183284
Ni 7.6295431158013365 5.368935690074618 1.1814246144509968 -0.5844161194356581 -2.08263238429931 -3.0908308394042314
P 9.265258227889404 7.651344377140027 6.922363543456544 1.1576859924465095 0.5349645496727495 0.33037055827532136
Ni 6.156290929118237 4.5602978263256855 4.2835403528405305 0.7142205765260216 -0.3497430492646622 -0.7333128172707822
P 6.476891720860553 0.3522246604624044 5.355966995829688 -1.3441421365926465 2.016495897681553 -0.31829640071960663
P 2.962535802158584 1.2223431925506556 8.762637278979627 -0.25695245039448655 -0.21542219236118382 -1.0495428223796632
P 3.8664546245534113 1.962354316061828 1.6821284600909723 0.5737457842060054 -1.7028441948228092 -0.33667593166805887
Ni 2.4670248058102833 7.411474934203724 3.1648503960174064 -0.20355475149963653 -0.14564528077736208 -0.04917928993812821
Ni 7.229840976100761 1.1724614620620486 12.810145173833991 3.9288867999213752 0.15430501333488908 -2.2793184337035712
Ni 7.208234203499587 0.8488433164777003 2.24209672859943 2.1244999710673738 -0.914128218191374 0.3274184176255329
Ni 3.9456300634592973 6.410802595578952 5.840841310509558 0.041786854128799 -0.594283499148041 0.6328243355357166
Ni 6.459841541538324 8.845801589278281 8.308438468890245 2.073970337748938 -0.6981992613971008 1.7212738622829067
Ni 0.5928831719909141 1.9658828974424742 10.03554198646335 0.46298780222413166 0.7125717280686888 0.2033243806563853
Ni 6.387769572235995 7.60173122633656 1.4986626033079777 -0.25345035077849903 -0.14877765575875668 -0.23143733684251752
Ni 1.2802637908565877 8.148420544756908 13.222147336977182 -0.1260915270151506 1.0926311689287054 -0.3682323663181013
Ni 6.432344538600955 4.132635615265081 7.862385032355398 0.442350071369122 0.5013692302158075 0.17112902687076334
Ni 0.12775965167420836 1.968540910188525 12.127870347396533 -0.1340578330500788 0.9740153814653095 -0.1652175464823348
Ni 3.1927363764298087 1.5915476459350455 13.113627252127525 -0.4897637847663952 1.2244832525767169 0.09932788576806119
Ni 1.1792685678751058 6.266880929817171 8.350092399645083 -0.4748727265871758 -0.1538733251141092 -0.23827055771426706
Ni 1.3473346211942208 7.574067518767034 10.241983446104893 0.7454245129326518 -0.08793095678502921 1.8155765269222341
Ni 2.3284839951197753 7.932862194010096 6.7896064573650206 -1.0843596729485323 0.4941369741334264 -1.122830318219905
Ni 7.958775502941979 3.7159666485583545 10.868344612780215 -0.6328109657992779 -1.4133454350611854 -0.055128051322395386
Ni 3.968913143750489 8.677346558484134 4.847412288151985 -0.4520133054904989 0.11634370359976737 0.13905605759561857
Ni 1.3542899089025284 0.05350477782747512 4.092754310432174 5.8387567355115575 1.0008209316939278 1.1179048558938294
Ni 5.173326326975867 6.554103749654374 3.7483768074601147 -0.6740316630119616 1.545431231986558 0.392331316248834
Ni 6.574182396460779 8.073347892075763 12.770605613497004 0.8461148262658783 -0.7850398133314287 -0.8820781317343647
Ni 4.645039347671909 7.140848486634548 10.533103449787177 2.1390300463627483 0.5063857095937925 1.1454601398042787
Ni 4.822635349129303 5.063301269752575 9.458819902423164 0.801652225077129 -1.2334980544808176 -0.732712464682622
Ni 0.5202314410234192 2.2820474936957362 5.664545605182984 -0.9988391253772088 -0.3812760868759369 -2.4431948927769795
Ni 6.924336214937062 8.26045531893453 3.637565460055151 -1.0115205774996192 0.4183099997007828 1.3968726342171427
Ni 4.739301555787957 0.05118943571419035 12.088249287017158 -0.5774977950492699 -0.3559921154981675 -0.8236076463022977
Ni 0.3973256725555011 6.515381968151799 0.9433176099313269 -0.634536947351449 0.14910212897771094 -0.6078272992707467
P 6.194160664723123 5.6547322591700375 6.132705928215474 -0.026864685601327928 -0.9242280256295373 -0.9093886466238597
Ni 8.664862233809302 0.2616558860854667 4.432142714218528 -4.009109332318554 2.7804914887481726 -0.4165166552457859
P 3.4104618873946553 7.370410026482505 1.180608687890275 0.8615460732192839 1.0271775673105858 -0.16595262487614645
Ni 3.0971405312565072 2.0442062904506715 4.185998694155224 -0.9272920092668417 -1.3709988517741745 1.037409529451239
P 3.133148731802312 5.36678705259349 8.067688269814049 0.4910243966463737 -1.3432862163502541 -1.3159795581155014
P 1.9157881554794447 3.0682728457880724 11.606614599022198 0.4813884162185064 0.5031949705706366 0.8466563005916451
P 8.293740677155112 8.61358203668427 0.6563337334002153 -0.664004874903579 -0.28191426254614677 -1.805660296249787
Ni 2.716081526252099 5.452102778783807 1.244332459668944 -0.4350882476003862 -1.3150282499458255 0.24620163963588565
Ni -0.024855660654534675 7.331308528873352 4.771667260121143 -0.8480228419218686 0.291448170178511 -1.464973186539806
Ni 1.1714427115322033 3.6066547167059535 3.890500841605142 0.7556485046535051 -1.178745898440602 0.8256339327037072
Ni 4.647604746733427 8.904435312955105 7.122719357887528 -2.039839200393184 -0.9255655134940383 0.06403126734929618
Ni 1.0220383156461637 0.3172120570253121 8.70878334756147 1.2467819160739173 -2.388942559191318 -0.9864770042674301
Ni 5.5980526842368254 6.798048194710057 7.727066251749737 -0.7506813904562168 -1.2389878739507953 2.0368369232317503
Ni 7.951847999339031 3.609757275137755 2.947442549990503 0.07342916362442838 -0.3562481973730316 -0.03238870074335067
Ni 3.3131897345313353 7.36292684077237 12.393357661611063 -1.6559907248043806 0.4122985033993802 -0.7302807153126777
Ni 8.155283218780683 6.0353652412256 7.797091458623922 -0.5626306481294503 -0.7779834207052795 -0.9285958156799297
Ni 5.3629621074223435 2.3530914510997665 12.212751715406398 -0.11595443858114868 1.3876320894554812 -1.039086917153662
Ni 7.643694486797734 6.244607338687372 3.0493620575436076 0.41807680064405417 -0.061497188073532806 2.536503054713522
Ni 0.5769925159990181 1.1447607090187095 0.5170538655071473 1.253163394120229 -4.193435574605881 0.7782281897262339
Ni 2.1788017581801418 1.1084005764716856 6.591161263245919 1.4379413792329945 -0.7550594649192545 0.6238930944843577
Ni 5.28727820442329 5.229264992432828 1.9504349348626382 0.7419656078497738 -0.30148267159637754 -0.33639825252663996
Ni 1.5728582043966108 3.92976533929907 9.109576476465826 -0.26953362949360676 -0.28475995952505795 -0.3740217193063688
Ni 2.279056071685372 0.27509876239519804 11.306522181582512 -0.03443529885973424 0.22439894193849738 -0.49945144436780436
Ni 4.570235274675904 1.5806840607395132 6.092081861632624 -1.6659979725287373 -1.3002683180278318 -2.6789488547169795
Ni 7.897983880415573 5.819788367741882 12.183486717231323 -0.8256313616005458 0.03979373495817018 0.934664390471513
Ni 4.626859281398396 0.29492179543229696 9.710724493664321 0.26170487747780735 0.01910792447404451 -0.03489681187718506
Ni 4.79383249324004 3.6643715649059168 5.895440782088194 0.09319889005218789 2.4493537132895233 -0.38193403217490995
Ni 3.608368069869784 2.538605922584595 10.34355102165678 0.04888104197141904 0.5243808606196324 1.5556621656859466
Ni 8.354226674522565 0.36513130353869905 6.608715261011999 0.5363028088681989 1.1563377059487312 2.331096594717127
Ni 1.7310053321024137 2.63388688123049 1.8171629166851213 1.7151332966028074 0.05922973219559476 0.800418609780344
Ni 0.6907443478878535 5.39525649921844 2.799720018615553 0.050974691275654155 1.1876748254991158 0.4570562672310451
Ni 6.180203782464242 1.6647587635571097 7.468587015043697 1.5987947352093625 0.08526240881393059 2.667982585513463
P -0.006947878613544942 5.369695122287775 10.41966187374152 0.505297104515304 0.7836714722289922 -1.418535463902557
Ni 8.864842962817935 8.90495394958848 11.622324658329257 0.3518636951520908 -0.5634500587069522 0.7147419962471303
P 6.162384909560403 2.724592723860534 9.814555547666153 -0.8881418214299414 0.2591581997965537 -0.48351497564320606
Ni 7.366974058786392 2.8249118669449365 6.020268284510139 0.7718045455880773 0.6585600497389239 -1.4204478504339215
P 6.6745571077559 8.247776505522184 10.491666235054142 -0.5414280459099062 -1.129798522007622 0.6009385425707134
P 6.864183626833923 3.740314786221657 13.20365886713418 0.13546242670708927 0.3973691357830576 0.18687909061616848
P 9.189416881626647 4.091922639545083 6.873890467109659 0.127867902189283 0.4312243937696057 0.025747541277749204
Ni 8.644607621002288 4.8625425857938795 4.834114815326968 -0.9038741445635338 0.19156184080381847 0.8227057033133186
