# total energy = -340862.73706118745 ev
CRYSTAL
PRIMVEC
9.37700085967834 0.00000000000000 0.00000000000000
0.00000000000000 9.37700085967834 0.00000000000000
0.00000000000000 0.00000000000000 13.72418859991109
PRIMCOORD
 96 1
Ni 8.668005540695935 8.301008493073441 5.34363660993292 -0.18684078117906533 1.1966502895248488 1.1018691425872056
Ni 3.3723163476879496 7.137107053499449 3.024728753509009 0.8469609763162574 0.20170612832667198 -0.7497550219872054
Ni 6.297349769023174 1.8291152357666263 6.010824264741849 -0.7647784919792313 0.03683645210205914 -1.3661937170760472
Ni 0.291214004557558 2.0821348416738714 11.986253165498299 0.36704734487106466 0.47304544357044986 0.8646655926848722
Ni 0.028237899463702268 5.055328537846572 4.78305794980511 0.6760677196053841 1.6724889795697195 0.07133808542335456
Ni 2.1246970471815243 4.059341047165626 6.778842806491469 -2.544883565467733 1.292707217851122 -2.6538489743255584
Ni 7.2771806877522165 3.826547631450054 5.35125354748169 0.9786557084507984 0.9967822428481801 -0.24104940601098485
Ni 7.498309114780519 9.625491067108447 3.1134689359373455 -0.2531654725482285 1.4742206732800032 0.5005459629835637
Ni 2.089514541108664 1.8109988706992581 2.355976077307872 0.6615888092629186 -0.6462683768557644 0.1598776223266601
Ni 0.8770739958748774 0.1468907136544119 3.854794907914309 0.23703925641032722 0.27760303676530257 -1.2518238493731988
Ni 5.043794827167035 5.451197370170115 11.120997941119752 -0.6818352182167806 0.44149363690609766 -1.7871792067264642
Ni 8.639218148999857 6.955952779826319 0.49171959427081646 0.9649902951485639 1.4273885434178126 1.4447910551649763
Ni 8.55852905924587 7.6040723040118054 3.1898577332379716 -0.1753042412943755 -0.999809202599962 -1.7366403174366478
Ni 0.010716973931415727 5.422710042491717 2.3774550347733556 2.8554453165472435 -0.3860565389837158 0.22602182225390105
Ni 7.649400724682436 2.1057930140677485 1.1294897229465437 -0.78161150437617 1.1821883484632478 0.22847131223565814
Ni 9.054506749467564 0.4657743714421927 7.87709398979752 -1.0909977470903405 1.2148642414297142 -0.42063504828953363
Ni 2.5213441705509223 1.3863895316824004 10.277111025600169 0.4059892733519008 -0.10093842478829067 0.29292938270972774
Ni 7.532694575806419 1.6149539201488088 9.982411589937259 -1.6095134071784474 0.3126536006115325 -1.107258431923577
Ni 7.841497958000296 4.9092254922385665 0.9412258074545324 -1.2557113573530632 -1.9689988805418541 -0.2108523136023143
Ni 1.508496832876639 4.0086489821789835 10.456321447058773 0.5620799178323029 -0.5200760625966915 0.6378896658737658
Ni 4.783245489816159 1.061485839539935 8.994393612025856 -1.78531592826548 -0.1938015287676146 1.0624780423840927
Ni 0.09415446254733162 8.461177039510147 12.540751778467888 -0.5008727501953633 0.5032471639648107 -1.404727354374871
Ni 0.41105582241832067 7.799085784501484 8.434858612059536 1.738148269440742 -0.0633488965702909 0.9669577032875799
Ni 5.468347904180579 9.258784706503079 13.224050995626069 2.4703197740182294 -0.8875548385782198 0.9024091299822329
P 1.4024054486260156 6.856866014988389 6.60908909009003 -1.7888668788415318 -0.7122025176547283 0.7756804836037157
P 6.14137274183342 3.9878507949536095 7.159291161406479 -0.6048517615821906 0.17998467748918034 0.4802756427703018
P 1.8719681282914054 0.22243745630542594 8.570961086578333 -0.6677787401237144 0.3002089470902765 -0.6168680693167763
P 6.701292198822392 2.2054423989388265 3.814761679455657 -0.04923379732514747 -0.21727364374762584 -0.0799476814692365
P 6.106058957752826 3.742557837501598 1.2785512122288518 -1.1087866956426453 0.7584548637540486 0.4222772118786469
P 9.402505993970758 1.052990277039399 1.889641898932697 -0.7057801590681522 0.7721932963860636 1.2796262162974479
P 2.8233586043448127 5.707639581279011 10.708530880118284 -0.32572097531845196 2.035999772042435 -0.7478300370503508
P 2.0176867168767587 0.3183341655554061 12.084065595961148 -1.4520549358162411 0.23344433997021732 0.973452052762672
Ni 3.8606799134610377 0.0896881971841911 6.066626795029587 -1.4397982299360752 0.9057086266691112 2.2966867497786896
Ni 1.153164773941415 9.088507753470813 0.8198911711058168 1.758471554379126 -1.138098300122569 -0.4586315821379649
Ni 3.9562221720901345 7.295381445824558 0.32191336666628323 -0.3248881950045115 -0.13233030883601082 0.8589577436668175
Ni 3.7987635788130913 7.668145348786819 10.07329347929178 2.3425714281259458 -0.6677771974618177 0.15693062388319423
Ni 0.14460553861977546 0.6004102830745841 10.326161177790075 0.044360271282930054 -1.1912301469505422 -0.8664543091541788
Ni 2.5861767523706862 5.195205255087737 0.7897366127291902 -0.8410289271025387 0.8575294958607231 0.4448491836418919
Ni 7.279871886910775 7.2296674259528615 11.459188843045066 -0.23305636050317927 1.4193201645873814 -0.05820797579929975
Ni 5.400045832156402 9.307301307361548 4.621126527264539 1.6445925102697676 0.4556570728906733 -3.75715356380771
Ni 3.9453917364520343 3.6480564259338255 2.2680591955280422 -0.7977341209696455 -0.1661904519185654 -1.6863927341350053
Ni 2.9359201189766395 2.206952096027774 13.140305941392032 -1.0405496177421176 -0.738652998536773 -0.11393843659238441
Ni 6.353405478325828 6.453720630236131 9.131045578777028 -0.43177898072149506 0.450601769854953 -0.17658696466154106
Ni 3.105156224947583 7.318308212175341 5.501820983052724 1.8180036483064883 0.3561548663282769 0.6019597847463762
Ni 5.929752593365322 6.274085430652501 6.751559485684007 -0.6743389098397353 -0.7236657810993214 -0.08494847711793756
Ni 6.015955359444161 8.916261630322525 10.486762003952249 -1.9457764196788034 -0.30789628843220523 -0.9032712208722121
Ni 5.645320035607308 7.029393448153249 4.510371960639173 -0.25403990473338184 -0.7336457751301687 -0.7845477041863586
Ni 2.79431803363382 4.001559969761318 4.4839391337818215 -1.0376154748144581 -0.8664535378232304 -1.6373525408779026
Ni 8.164976346058786 2.7775238256443497 7.524093990899694 -0.26660951386827636 0.46118005959143155 0.48699367822042583
Ni 0.5576924193577607 5.304662982536698 8.456693895546012 0.059283468251665646 -0.6114481838527855 -0.9289277450980519
Ni 7.512065174590989 0.3025986209283095 11.881359224218224 1.3851494322429436 1.1666475725151713 1.8393358341253612
Ni 8.782489340441018 1.4122231682044495 5.459907665983303 -0.4011944230664187 -0.9563264488259787 -0.046747283457867876
Ni 0.4768945563973645 3.110585508267462 0.8565543055659117 -0.20551444632916865 0.22227238251379783 0.07247965522696549
Ni 1.3321810914885825 7.088037209608385 4.101583496954439 -1.373959734174711 -0.11162572929880775 0.06814657506925038
Ni 8.228833719821093 6.738396990008509 7.318642971095065 -0.9983950958612547 -0.34450185547038087 -0.5789746367051125
Ni 6.162649156086971 3.961576439405594 9.339392216352259 0.64975067897741 -0.6367149288393744 -0.030989763513295014
P 7.597930368649939 5.334697515306252 10.563055155847241 -0.4398350182567522 -1.0008255596796183 -1.3441624483076204
P 1.8054289323710921 3.9626454174685755 2.37350262904049 -0.41783460272626105 0.1774958496290556 1.105791103349431
P 3.645693421794603 0.14480245563137728 0.3893940134420642 -2.423838342627238 0.8599561030243448 0.4297262119575244
P 6.5110891196161305 8.134801158280945 1.776005780037558 -0.9790066640323141 -1.676004963142778 1.0318119807588038
P 5.003098644769325 3.569777225321822 12.37315195909335 1.9108119877884766 -2.208626723614964 0.059974837891735425
P 3.274354822916316 -0.07197598084063421 3.8536424745464104 -2.224688662173833 -0.018898122456083584 1.5305507153302993
P 4.0452005303325045 5.509184741586577 4.884520846583035 1.7015036216345145 1.1130076757025285 -0.2795380490044863
P 1.430001961251929 6.951826899583233 1.6882951922698823 0.04402782764417579 0.3876357105453776 -0.0276540142718427
Ni 8.844640100102776 2.9876811620262633 3.519938467385454 0.35992153245956077 -0.1707618733393317 -1.020653650149139
Ni 7.860683301130646 9.218960585156747 0.6635615686952906 0.7267608750848773 0.16557801514554707 -1.4227119638777497
Ni 1.3106514982201158 9.173397739472305 6.064732640917988 0.7671302800408596 -0.7234564933019927 1.9355503710754212
Ni 7.6485474176321615 3.5034630774147675 12.451900947433034 -0.8820375083044163 -1.6334367507632643 -0.14566584960265236
Ni 6.267577792269088 8.794838850168617 6.447307699558298 1.2705142266938505 -1.222789409814062 3.1911668547218333
Ni 5.009418743141689 1.9308463147603523 0.5958108643035985 0.41678687818803706 1.0631640127075237 -0.01881250472081276
Ni 1.8789258627013368 6.940668268925796 12.637768101583834 0.4502423296330052 -0.9140096903356388 0.4114850063591494
Ni 4.867722887793344 1.3307464104040547 11.659342795237604 -0.1295548029734027 2.043880460342093 -1.1606468748470462
Ni 5.41253599689229 6.034990670565671 2.1668297860638734 0.547993872052882 0.17060323627428037 -1.117851891168707
Ni 7.396174824763037 5.433146644106614 3.4282614083840848 -0.6699960594900075 -0.2964530795922701 -0.558348990034961
Ni 1.1976867725645335 2.5609338668834427 8.52714048759654 -0.6124840813164678 -0.39267635829307856 -0.16242558555949446
Ni 2.191723847130566 1.9136864037493355 5.3004461453882525 -1.1317152794143608 -0.5166305272502522 -0.17368136097897183
Ni 8.68007374040696 3.647578198905649 10.026809812153084 0.09858483695444956 -0.342126670369985 -0.4856119673815507
Ni 6.156826038743887 5.527151074645106 13.026175654567778 -0.38895957156312366 -0.4015278951464375 2.326249551037471
Ni 1.772506283431377 8.234806869173015 10.535483023422763 -0.14206579095621985 1.61658882596799 -0.16754902282898887
Ni 8.41065376053345 5.5926588005046485 12.451242681994248 3.6646671264415147 -0.6534846920985455 0.5595052151265912
Ni 4.396106645006963 1.8867556581626475 3.9451685638388856 -0.371134884676877 0.8723269658848719 0.2863928671427906
Ni 3.1838480135838947 4.496871892943784 12.440592284766756 -0.6549301662958205 1.0893949213795948 -0.6675203442560051
Ni 5.501411208128581 4.085934220732425 3.706463886975038 0.6334943650195477 0.3062497539677177 1.1767455801811217
Ni 4.6421122545009625 0.0499878522451519 2.302712838769743 1.357119779799237 -0.47283589866280495 -1.4471281879385853
Ni 3.9198581639476635 3.308665267937797 10.13706927314928 1.3949862158277073 -0.17643218425123164 2.351392625962002
Ni 4.106141656922993 2.8034512321719234 6.292183041718764 0.8975037222608157 0.5468438176088388 1.1705042272571002
Ni 2.892392082412083 6.249245756189013 8.253863747395796 -0.11654090721223799 -0.46442324911907756 -0.12327334084006511
Ni 9.992881948754144 6.414374735917976 10.501185706202055 -1.5463228905628916 -1.5186768467108491 0.8213633303528113
P 6.464147854850475 1.2268586212832615 7.93672514941083 2.532562067787903 -0.6210106307302401 1.1360555586609273
P 7.662706688466389 6.514839919837118 5.177024188716557 -0.6461575623095129 -0.6376335839989018 0.8071723835644099
P 0.19258014884631244 3.3012199294991373 5.794448101593539 1.0534025624453858 -1.2120180302301709 1.3447327189887937
P 1.0875632780763487 4.043840865252396 12.755795469837693 -0.6453222108924113 0.40177652082213383 -0.6056580595335698
P 3.1670819365960816 3.7495812109153968 8.377230379764232 0.5219254571006043 -0.2471969136696194 0.011362219090354626
P 7.6406144751647735 8.246190547843712 9.252298635220937 1.5733752666949934 0.2096824616639292 -0.6542927898221376
P 4.566092911022104 7.760668213238022 8.004605256410146 0.500496597802867 0.1760460045564065 -0.7760813185865603
P 5.176629416993298 7.4235556663762425 12.31916106531235 0.13228171498626248 -0.9346420218740098 -2.058427504918332
