# total energy = -340895.9037674344 ev
CRYSTAL
PRIMVEC
9.04813960360939 0.00000000000000 0.00000000000000

0.00000000000000 9.04813960360939 0.00000000000000

0.00000000000000 0.00000000000000 13.24286690985551

PRIMCOORD
 96 1
Ni 6.405802395514328 1.8747202512203158 11.246133667149183 0.2973897324739265 0.20296931130981175 1.1460270680513422
Ni 4.711402519819219 0.37380669908728065 5.919548131024137 -0.597196559029778 -0.5143656424754754 0.6051710925948224
Ni 2.6438392677675155 1.3953045706942948 4.782754339645436 0.6431167186006601 -0.31478710201476756 0.8566504356898794
Ni 3.362831590531302 4.385542817668345 4.88265846902092 -0.11025893085826818 0.003273528544949201 0.1647802018346001
Ni 5.165781997872551 4.272993008287139 2.7279507741593227 0.24027936061417976 1.1509216771394823 -0.3197912400975783
Ni 7.108218526398835 6.083561949232292 2.7199522186891896 0.9329481791113544 -0.7822565941593367 -1.1028212220878297
Ni 5.0120722011229795 4.486465767570906 11.370166470588247 0.9575202120237638 -0.5034579944240362 -0.1627472305649713
Ni 5.563990624841508 7.962371959584395 12.590324392021838 0.10303413097505483 0.0028310416908918987 -0.0020450554544868002
Ni 1.8446442349502679 6.387425623840301 0.31877591360159113 -0.6569073446268493 0.4677847093921428 0.3753568931780245
Ni 2.6834882158106415 1.4927077942644111 0.4917383419454491 0.34485023994873515 -0.29106121915273747 -0.6712944665864568
Ni 0.4034800731419204 9.053568555899533 4.802578813667 0.7775617597868286 0.4905711111590389 -0.1854323308673129
Ni 8.703188395237277 2.3064160431157013 1.2340857228308504 0.11971570539579382 -0.2799142013969824 0.26516198278847236
Ni 6.840556458618883 0.65068520193723 4.682214126051004 0.15900524702403585 0.29333844522268837 0.10327684311348019
Ni 0.6599921184039482 7.435100668332657 2.4436663689877625 0.34835902443294203 -0.7260653916797495 0.2167725357414912
Ni 7.658128263110158 3.8645237909300243 3.8629837975578334 0.34976696052406214 -0.1435608874445076 -0.48615369881763376
Ni 7.565258157515761 3.913094204689837 12.53258549833229 0.6947043608699649 -1.1091695329033606 0.009763507144667057
Ni 7.889742542436479 8.796655678050033 6.776573443741621 -0.7254071892704603 0.9026940082125035 0.5473528960347734
Ni 6.85932230029881 0.8076143267821334 0.4358081713763532 -0.11896597171396286 -0.42346043355347074 -1.18331989096453
Ni 1.8733811265488458 6.637814792986221 9.013333288405656 0.30867533269007486 -0.15052420613621817 0.926582641904643
Ni 9.019755657944911 4.706634150212024 1.4140070753965177 1.0009901102819405 0.9294401659580961 0.279841439177518
Ni 6.4119098897929945 1.946354373004302 7.049217417225029 0.10795265132259471 0.34467437649250315 -0.26389494315059064
Ni 3.363202564257858 4.397413976918134 0.4948391394110765 -0.23906117193636248 -0.36483979569678454 0.43218752901382335
Ni 6.006363221549967 5.443026045565252 4.769749448494733 -0.28776532201028504 0.8900809474341832 0.5343408000458216
Ni 5.369093696304554 2.8514578806834368 9.18636538742499 -0.7133083491243973 0.27966351883875706 0.0927368628141048
P 0.10743670565250397 5.483018822915918 12.441647170557887 0.4826719109166203 0.585283866752592 0.0905550246714376
P 4.060171715059762 6.115067571570531 12.5955958381948 -0.7290244743080735 0.3322459209211633 0.08801246075524197
P 2.3154370383687817 8.503296893601327 1.4505307959969016 1.2100164264191096 -0.9106173768246382 0.1475011030391782
P 6.264470453836185 7.662326599918011 5.812334009607566 -0.055499575729201195 0.2820420463732627 -0.007140724809839316
P 4.683452816372115 1.2555651015984397 12.747941175481822 0.4659839087379781 -1.2012723616778926 -0.6354993112647185
P 4.016849222309765 6.218659722676361 8.289187145284643 0.3177068467647238 -0.46668299168753175 -0.5571346580118856
P 4.797830349967082 1.0713087853158714 3.796703460017827 -0.19991458364388795 0.5370952228625072 -0.14285177719262496
P 0.09431328387209555 5.6283319460497845 3.6035826812985055 1.0954303289403973 -0.5553063465538952 -0.10657813957257127
Ni 1.4858945450913226 1.0356862594268281 2.699823727174644 -0.7483396296969177 -0.21187021334386738 -0.4295449491846537
Ni 1.86213428893643 6.629861478214449 4.803267377096045 -0.006000954778441278 -0.13945072193087596 -0.2884253241917872
Ni 6.197867097709884 5.922676977722748 9.09835322802054 -0.42651156167496873 -1.853499527220253 0.4259469474207503
Ni 8.561503576111923 2.421906497890338 10.071809097224595 0.7577326408760433 -0.3737679514243498 0.5825983495006289
Ni 2.46041538033478 5.280105242629487 7.035127654127641 -0.6012681579959903 -0.3469032658230219 -0.059018901736369325
Ni 0.6108679584962031 9.256880254331536 9.125076908542079 0.3331218957682134 -1.7806120950319075 1.2309925144501446
Ni 1.4721051802310479 1.176638179238744 11.315579948760455 -0.9250176114103682 -0.23285504312565058 1.0812167564441766
Ni 4.033995446988388 6.636077550169179 1.4916898785513002 0.17847543993350554 1.3957372350611188 1.0898384366749165
Ni 5.67721904469812 7.826143168681313 7.934013280224111 -0.743375600823423 1.25426973981053 -0.33135889033051963
Ni 5.29315266003665 3.0311358382919247 5.048962371380083 0.1530004355908526 -1.2694235647328334 -0.6343939940156816
Ni 0.6598545866809323 7.488140863090486 6.8692073928905755 0.6041933020625853 -1.1318926855324893 0.7725689345579275
Ni 5.251838854293858 4.587886365155433 7.016892033432499 -0.710200656733351 0.11615061375235479 0.8396616144413669
Ni 8.27826061181662 7.234557700640315 9.24358763233926 0.028745447563808556 0.12850682132486255 -0.24496339635341036
Ni 4.616044175814997 0.39661253513079936 10.674770791275318 -0.5048168224447757 -0.5841286701022262 -0.9995603198139495
Ni 8.10729601271236 7.164543195857634 4.730471474178162 -0.09963667525773162 0.10050622234687852 0.04710081014254469
Ni 7.445279825463765 6.219148322218654 7.010005494328065 -0.1141451532865518 -0.9275689170773121 -0.23944246653518117
Ni 2.1857862450073138 5.149006746920484 2.6807140561871767 -0.003876966456903001 0.2754451098820353 -0.24442372179985647
Ni 2.3836781077757316 5.313918140584111 11.3877533396689 -0.06422127187291521 -1.2059635965059745 -0.2259089508251206
Ni 1.1315874918113766 3.1858952192434593 3.8165016944343404 -0.6072323459992252 1.2887312639225095 -0.03295434343883357
Ni 3.4602710066601072 2.7719066366863663 2.8812769297867975 1.258309971318175 -0.8313484665899811 0.5693923923333162
Ni 1.1352429402389035 3.3098909253098667 8.226389436704427 -0.8339977312873701 0.9322059016286912 -0.4702262289540998
Ni 3.4570227245178247 2.8798780873934913 7.2370676545853545 0.6777358513364263 -0.5383627767210212 -0.8928289424929656
Ni 4.209158382900499 6.709693214541354 5.941108038234808 -0.19661431562606138 0.9236564693967835 0.23756196168301666
Ni 0.9614824659759665 7.207793303490254 11.22673355087824 -0.910265135691542 0.7549638198816546 0.5375716482782935
P 0.22759238124207368 5.493478472376861 8.054060378137615 0.6832171861659717 0.772068083662109 -0.5339659332049063
P 8.61721297207302 1.550489214210418 7.94440959270735 -2.1200339648762196 1.0660143376721254 0.16935702257200513
P 1.6775522396256661 3.232493138554755 10.405026746556816 0.37598321390811373 0.4596350837018149 0.33917735793367393
P 3.9898133809695415 6.146211268321887 3.7286089704735645 -0.47232964845034786 -0.5896416295006555 -0.20477345439808603
P 6.912045810168116 3.850761570488766 10.337633487837143 -0.659246020062355 1.5617209702855168 0.9621016607468593
P 6.320333668171707 7.777391792128059 10.363801612582812 -0.011626271385018688 0.796977445309279 -0.7732649321836876
P 2.365400865638097 8.431590386699964 6.00099224584061 0.5704069496407597 0.6196492316063393 -1.4964080080103197
P 6.991361802533711 4.119057008045765 1.510865600958374 -0.9611230988836736 -1.4572477928710903 0.5529733275453445
Ni 5.268731731061662 3.0832621709428714 0.40083349228783227 0.737035260427692 -0.2236039568410278 0.22373996819825986
Ni 1.4296875014482606 1.166205674196817 7.068499002866266 1.1429168045571347 -0.36273354798705915 -1.4189082738609435
Ni 6.920161991453986 0.6660263227512693 9.059948399182328 -0.5104904757907853 -0.66881772291119 0.9015480675335183
Ni 2.640500504228512 1.6123965858469007 9.242474711159593 1.343467736233441 -0.36488736110526837 0.13413368059333672
Ni 6.4579196800256025 1.9582526766731088 2.4834211802650517 0.24218737627017 1.1098763291623983 0.8798356155570911
Ni 4.380285848518857 6.600455024280135 10.503619800493814 -0.8369637558942294 1.7257730357048409 -0.47303284516495947
Ni 7.96511354590504 7.1230122347627125 0.2640138578641628 1.0001804698964516 0.4784599297178018 0.1938416379769307
Ni 7.59999396571694 3.9652295854804556 8.341681737220245 0.47999847784951527 -0.2980289087198222 -1.5457644469562604
Ni 3.085334194927781 8.338095959468193 12.517740215572282 0.2278802156188785 -0.05683372115959244 -0.04394580945333077
Ni 9.143778508430334 4.971563679811004 10.17967287506962 -0.019038247578373666 -0.6233948146917005 0.693151157450232
Ni 8.560119210742092 2.3612025288302445 5.833125729760077 0.430247374568317 0.22256574538450055 0.2428270667366979
Ni 3.493179090647521 2.8085696986377005 11.6303891579298 -0.1791351850046915 -0.6751220678626632 -0.14290371347648292
Ni 1.2864554504389765 3.414415034801923 12.752033649055509 -1.0564927713349352 0.08775020823279081 -0.3617606425508285
Ni 3.1730649571884273 8.451849171425787 8.054867472196367 0.2555748533206695 -0.08054057785822905 0.16596085240626257
Ni 5.634548018004514 7.722216236407616 3.7107307512954697 -0.594609515028892 0.5727921620434845 -0.3958357298576667
Ni 3.22526367495675 8.332241813100348 3.5892404751042655 -0.10418289986751733 -0.061341636332275 -0.3380751260084307
Ni 3.3460653877189075 4.23255687209254 9.23667485362978 0.13256505055463622 0.6246261159956403 0.5059424514087867
Ni 7.0243332234988305 6.031562290536755 11.461145514991173 1.0572576745254179 0.024119518756022976 -0.7478007264743122
Ni 0.6392700689269133 8.90575814621617 0.21066240710161435 -0.8905560872983889 0.37965757743590745 -0.4638444937974721
Ni 4.710090539566766 0.42389991475390726 1.6179738591407806 -0.6160985381406034 -1.0565472787219545 0.19017370220704022
Ni 5.991669042722482 5.630657317945513 0.2949964977293549 -0.46199047130786886 0.009788961065963787 0.8195681861256016
Ni 8.047795446228657 8.683065332606535 11.27928062202394 0.1334942472371249 0.9695650590034399 0.64788714340611
Ni 0.28647676941410904 4.900345772451934 5.812016419905076 -0.4503711419013857 -0.48516202432832567 -0.1014421038975866
Ni 8.03762533723722 8.999008273676793 2.418611165421761 -0.2971192524213593 0.31955804104084967 0.4122275409521288
P 8.531744244730397 1.8133105272657986 3.6853968650275672 -0.8569476552153241 -2.002243758637913 -1.0884053037728159
P 1.8442099242460073 3.039333452834844 1.677937690375697 -1.6960048033034727 1.5026444758383348 -1.020611998277926
P 4.605738344728479 1.095612088475122 8.184330064252654 0.7643853703058707 -0.1999968589450491 -0.38495919215447894
P 8.410824906152502 1.6894414951548005 12.313641328988806 0.6343559416888946 -0.8027711691729207 0.22779871164866575
P 6.320397005149411 7.723519168520398 1.5477204834707565 -0.4105743216194219 0.8539672324307616 -0.7648114020996958
P 1.7453318539093392 3.1062987345480284 5.875952384456043 0.706645592392241 0.4761207400616639 1.1954554978857992
P 7.102744401897216 4.01091364268487 6.056664544429051 -0.532726147260534 0.10344473614991216 0.04006292945915681
P 2.5216712859148718 8.459232453398219 10.328072318645638 -0.20030461999345503 0.5720467992370277 -0.5740175498101533
