# total energy = -340855.979079582 ev
CRYSTAL
PRIMVEC
9.38013981845758 0.00000000000000 0.00000000000000

0.00000000000000 9.38013981845758 0.00000000000000

0.00000000000000 0.00000000000000 13.72878278337426

PRIMCOORD
 96 1
Ni 3.2444026958013272 5.16021179431283 4.3859206643050905 2.9924133812655818 1.183800173035058 -0.22181986835741155
Ni 6.251159554034346 4.51361062908306 2.111788355835943 3.584809690693239 0.7062211032603127 4.257958951100248
Ni 4.436205716842537 6.270454501256687 7.274209173032031 -1.5647692701935374 4.087806686320456 -1.885610291711869
Ni 2.019759805909648 3.8191519914525203 2.0338637838598244 -1.2803294130120597 -0.9935441955268567 -1.2419202171062418
Ni 6.125015436267675 8.694207540962644 8.378497367337705 -0.22173630750466974 -1.9591101606732324 1.9557522999445929
Ni 9.326250729484064 8.432698628171371 3.3407479859861153 -1.3694173662196674 -1.3927588691590853 -0.5155676332033766
Ni 4.950950259269948 1.7221092151175594 5.118982328575798 -0.4561931478998014 1.3196752617995338 1.4749567801150791
Ni 0.7019758815313589 7.895882617190644 12.256150475631047 0.7036839386607558 -0.20562757486826522 -0.47822518799917635
Ni 8.437979646784001 6.371609927044594 13.796739918666384 -0.6004405198883723 1.9788534047384307 -1.373987502088853
Ni 6.057028184217344 3.155694715304643 11.983936947492117 0.33687750615590367 0.19768055210704663 -1.4137575828979394
Ni 3.1235864973454435 8.601972627964452 7.906364923229033 1.6557549546444905 -1.3687097986296815 1.2664035469595867
Ni 0.3634447661965346 6.08737293592579 7.855732805525215 0.2913332418672015 1.3285967326588795 0.2677711382765453
Ni 1.0901973485509813 4.388423285558819 9.32302396145077 0.9092719185403373 1.407838389200027 0.8726766359148068
Ni 2.497715440701659 6.850925682083197 0.19392500674510418 -0.2906290167113253 -0.13860354343923226 -0.6683186717875844
Ni 6.957324605925208 0.5278073248784739 0.4769472697816069 0.3368397109394328 -2.4936553634203764 -1.161397894080458
Ni 2.7198559074588213 6.854368193328019 11.607823364709052 0.655089060471188 -0.025915691424497306 -1.6387257670763455
Ni 7.107172336541104 9.11359358389452 5.244669633542406 0.7950131224940565 1.7169965750637914 -0.9967686160014252
Ni 8.763085906277981 4.840358413012583 6.310984208577198 -0.38693791314740456 -1.1391871623113736 -1.6230993733929981
Ni 5.94306886783221 4.909733925728401 6.692026116722741 1.525223389580115 -1.5857404731285658 -0.6186722124050507
Ni 9.01056213018028 9.054161019188271 7.537321151686356 -2.4198330781225876 -0.6918308959769118 1.8820968792419714
Ni 2.8499772044293197 8.03628454719745 2.2215087871215267 -0.5502834394180071 2.754279092018863 1.8450254283109706
Ni 2.6321985026008834 7.435833668955487 5.569300319957061 1.075073619660916 0.37832934554278713 1.1752833938132985
Ni 7.2098754853682365 2.6817631604146173 4.417648048595244 -0.22465939468873566 0.3194168874772951 -0.029923527032309754
Ni 3.0534793337383563 2.544916303328213 9.64429092979351 -0.22604547640298492 0.7379711419784 -1.913070959025983
P 5.178249802824528 3.9916621394185263 4.744968959056263 -1.1088365750439741 -0.9550902624260326 -0.37593924804405576
P 8.057858868350287 0.6249030262337958 9.497146555419462 0.6844963099887115 0.010551293153285055 -0.9731538047959627
P 4.86339603594796 0.9870627133007918 9.386835175337081 -1.3980154895723342 -0.32647507987565705 0.9266731447359201
P 5.905745292237802 2.239330114407733 0.30609459248851645 -1.7624367096744615 1.9126696098225058 0.18774298127836053
P 1.7036678606017002 3.0212585541035772 7.824143309287647 0.9887449743660005 0.14038788903316465 -1.3514489546667048
P 7.403162642618387 3.3578554846463513 7.122986313946133 -1.4733200158426045 -0.278387737450127 1.0164581240105528
P 0.0016330823098733985 5.864313215484725 10.520544177597483 -0.08226861629292928 1.1762498714916256 -0.26638762766545737
P 4.907182527748586 9.429197761941621 6.7195390042763865 -0.4836095922395413 -0.26306987614613403 -1.1646076592670074
Ni 4.623414543611366 8.491043096680347 10.45474249808133 -0.20348867414839147 0.6338039258401665 0.9966752849566706
Ni -0.10926830855533734 8.861999478693921 0.8092818648757513 0.718068232406886 -0.4849131415423133 0.35766256122205503
Ni 5.137924582547988 6.817466724017038 3.0133304600868915 -1.2521431803858305 1.4774453508648877 -0.8335218200922161
Ni 7.753914203865349 7.079960551469634 5.992119493994128 0.7300626857646008 -0.36829227302175926 1.022965071891135
Ni 5.199270695739096 7.691348672522124 5.230858315948738 -0.43821188083103235 0.22984659531662996 0.693818872941218
Ni 1.6326789638692365 6.556605040860351 3.7223123679091428 -1.3860842853523871 0.19670584689860315 0.8051327274265617
Ni 6.786230859043583 1.0044159716193775 7.25055433690889 3.264415784014655 0.960387763379546 -1.6562576053125215
Ni 8.302905636087981 7.670421581003871 9.549095644727565 2.1203648658530776 -0.17577243918004568 -3.491125890584833
Ni 5.236078363653761 7.344555530199725 12.71806982370876 0.5026254712204118 2.890304590318274 -0.6341782784604497
Ni 0.6981384664080436 5.303512187465822 12.548217069300405 1.5100397398611412 -0.8855763746956103 -0.5456680521331828
Ni -0.06578854732066666 0.8016989599975108 11.355432885653723 2.816400801050272 -1.1822598251311316 0.06043403691634108
Ni 1.4911983178047883 0.8602601097319773 8.12528425003668 0.6044128742725591 0.09490147456559139 -1.029503387230285
Ni 5.743506397168473 6.15642952389413 0.8947799615904788 -0.9791581020085137 2.5438407260255156 -2.043689684487525
Ni 0.26612394149005275 3.3255315234756235 3.761686442027033 -0.5958457014288384 -0.18642734779073056 -0.38075466715482814
Ni 4.934300511423738 0.7074051063501684 12.656290348066667 1.2867492004954741 0.2222962937731978 -0.18617100880555032
Ni 3.940615419542989 2.5227791737974763 11.728004527711873 -1.8268803819708277 0.6315482970367704 0.6215922142653231
Ni 2.554643508126252 0.4481042784281909 10.177146645821749 -0.15761916530978662 -1.509475125606923 1.5723033737870533
Ni 4.44038925911826 8.838614790592173 0.8791995496622783 0.9511757578629749 -0.46308087615857024 -0.24117513295557175
Ni 4.630412127776591 4.141894455759321 0.9072574233285237 -3.423350582812072 -1.959095248274897 -1.7878222396271015
Ni 2.1487179655658197 4.80962907557924 6.166859301150582 -1.367850793063496 0.7064044229157125 2.3123645655252627
Ni 4.576729588664555 5.363535700968866 12.69065355159332 -0.9820608774776055 -2.264120128696578 -0.6050751904469063
Ni 1.2165759698084444 8.010329700836625 9.09592233884242 0.7478518914272217 -0.8629522095381913 1.3146171305503358
Ni 7.097810957188699 4.315961706904184 -0.043140200180004286 0.8796687509619238 -0.5279801479351165 1.7152957903226007
Ni 6.379948871177146 5.775389491776513 4.497590288606135 1.3315617288244745 -1.0536403894878048 -0.0015717153624940675
P 8.18761433987515 8.647822750484046 12.628200581925675 -0.9502180219353958 0.7041469943401034 0.9126449487776283
P 2.587511517395617 4.397559541560064 13.805114507329538 0.27341933770125815 1.7150471646469043 -0.6460241220554424
P 3.1154163957262604 0.24337804089722104 3.9649268654403462 0.6963372684876975 -0.05808584839913867 -0.3628001395589365
P 3.3675733093047597 8.677726635629803 12.514759987262172 0.025565250063614035 -1.8786040355973646 -0.2533120254284218
P 0.9020383136374636 6.85830785197332 1.8352909179272285 -1.583161913768112 0.7436201127340613 -2.175332223227892
P 6.987810059728129 8.747317891557149 2.620920760721729 1.0119198698205667 -1.364943903829346 -0.4850548093265002
P 1.4093753597977483 1.3146078090990065 1.2190016739171936 -0.8199955034710071 0.5982098307856407 -1.701014083592606
P 5.518955234525973 3.9664577042282345 9.730713908275922 -2.1811819971404502 0.116478943626051 0.22561764483694693
Ni 7.2602093146317666 5.267961458261801 9.919292235430973 0.7042058726024969 1.2259919759117595 -0.628118445419615
Ni 8.386445159647616 2.5505256268279504 12.569428379049496 0.8590294774450172 1.150712903562786 -0.2972328951810881
Ni 9.126425614910643 4.81655161862741 1.5838074983742831 1.0724948031901465 -0.3403960608321234 0.12614526307122145
Ni 2.790319516371911 0.4951044060666266 6.120332870563545 0.6415709713800951 1.0059765077529386 -1.80158304085662
Ni 1.1915591374107857 0.9528627242037303 3.186958720696992 0.565335191544807 0.7350701662815211 2.186824283027892
Ni 7.34823254493534 2.900508016625115 9.403323584781628 0.57706610682849 -1.4210934544377203 -0.47125955531462066
Ni 5.3072079624807 2.6373388191190377 2.52092003012248 0.9102198842759035 -1.8381436135894733 1.9692937860744535
Ni 0.6181999784530057 8.950360394024234 5.650491994566891 0.46196835982068185 -0.12108044695380436 -1.4860701164194212
Ni 1.6210475907259683 2.6616240006254257 5.603677593693162 -0.19437462766226524 -1.1624990975644365 0.3391537037845901
Ni 8.181104522970772 1.1674803189762941 2.2419237230158893 1.005349929912533 0.7953208835424626 1.9871413557788355
Ni 9.040606717420511 2.0872780509783944 6.9770904361570585 0.8353146503265808 0.6193478983158366 1.7267271720879938
Ni 4.934497494356004 6.408098670211783 9.479024125651078 2.413766303103217 -0.645219880986592 1.1022288399194693
Ni 3.120828736293733 3.1045635741724205 3.7525708223329777 1.1332684828340933 -2.536437491582909 1.0750306822381228
Ni 5.3299360408082315 2.4100767961229854 7.842773204610103 -1.9412924157655214 2.8936465102073132 0.7789892362619746
Ni 7.097529552999749 7.55759726151417 11.146110379703236 -3.2280107630230597 -0.5456837358624667 3.2797441868416097
Ni 3.6534143043005782 4.51119055305809 8.175228803505496 -0.8498835492796912 -2.0616683804531335 1.0965649567654727
Ni 0.41648195170191177 2.2443109685521483 9.581592200467515 -0.7380351624471161 -0.37599169854854597 0.990533690835307
Ni 3.028387460223645 5.868477997481186 2.189658523002198 2.094179722817277 -2.2493062036121976 -1.3287021478884924
Ni 7.529203578849111 6.550479809680872 2.2305155971958546 0.6988497504969061 1.6605783441750628 1.5648705716580922
Ni 3.472190006616753 4.73489750313374 10.697933874199881 0.030856323259224282 -0.5972001585742038 -0.5447637951513585
Ni 5.365392968615937 0.2684520921466328 3.5550954327372875 -1.184585645050831 -1.1358208169423019 -1.5758646087757504
Ni 2.409917333749247 1.007004890157718 13.092700406416059 -0.9138685367720841 0.9652759447097827 -0.596010766251793
Ni 3.5343990926539752 1.5824858367001813 1.7231128900581478 -1.4536526193206643 -0.7833598545258444 -0.20505833262835652
Ni 7.143792401663135 0.9644284363695769 11.485169596899324 -2.747917925687526 -1.1007301438867558 -0.32019850283832596
P 6.700740266440561 6.666756020555027 8.000832309459561 0.29942681750861333 -0.7347284666713862 0.08870408750562789
P 6.876580363975809 5.446831340898078 11.999697458101245 -0.8529033099426214 1.263812646303959 0.19972766444406248
P 8.67562548435231 2.818281712613913 0.9115432091262327 0.6583664456708791 -0.30853520756778474 0.33544077370937714
P 0.6500896391587875 6.577044365117755 5.5484595257234215 -1.4229847579231623 0.1445862433852284 1.742485206253199
P 8.952076959576829 1.4292612558168845 5.04884233448 0.3253844179146396 -0.5653845567255037 -2.431509228908935
P 7.997544570518662 4.728303264972677 3.3782966849316822 0.1406082325740869 -0.92993998841265 1.5107876737707593
P 2.8989040127481 6.4315114987324264 9.34777721192478 -2.038360558965128 0.5876389972483299 -0.6589274603806717
P 1.6078403541245798 3.222847134927754 11.501452581285935 0.1803567161166184 -0.37412610609471697 -0.5225638620155516
