# total energy = -340885.82163691736 ev
CRYSTAL
PRIMVEC
9.12297502454133 0.00000000000000 0.00000000000000
0.00000000000000 9.12297502454133 0.00000000000000
0.00000000000000 0.00000000000000 13.35239611286629
PRIMCOORD
 96 1
Ni 6.686894248062036 2.0614182751586343 11.99163955971046 0.2737715788343543 1.3345588637795855 -0.45356625179991567
Ni 5.018493729637296 0.8486483144895166 6.413983192180713 -0.31676890833148674 -1.296416034161277 -0.3210695925893696
Ni 2.809146417212179 1.6491966563559184 5.184081197032241 0.06985044513423454 1.1043949943328528 -0.8532699492534208
Ni 3.476501150797162 4.710949124315656 4.984276187850346 -0.0540337898169521 -0.7743339968781502 0.35483177664147925
Ni 3.6666330697407807 2.7806462437665735 3.224723466166397 -0.9571474020653774 0.5605387985974282 -0.8568784925402855
Ni 5.006798075873767 4.709982088981073 2.5724189041989605 -1.1078796104473436 0.8153747168695442 1.2628235429178123
Ni 5.425861925817394 3.152416592064227 0.40852225249919705 -0.5945403523538535 0.7877155603913788 -0.9011343770348673
Ni 5.88583319500881 8.338034098061973 12.7706722776799 -0.45412829495097273 -1.371332066743877 -0.6815343991469102
Ni 2.4942669401074817 5.688211313709607 11.264922541044424 -0.11580814281127151 -0.3052956175845646 0.8850228161849855
Ni 0.8817583271291248 7.988040290742124 11.42504443420401 0.5711142601204293 -1.143646740744624 0.5168660402998261
Ni 0.1884076766961091 0.5857077578267277 5.426053508289338 0.9287696222536326 0.8231191367016534 -1.0509039643932483
Ni 8.668276664821729 2.840410852038712 1.4778434688529 -0.15210569169072513 -0.34617127275300386 0.3571295715367204
Ni 1.557410406344319 1.3661289925690274 2.745132327252792 -1.4202563032484057 1.0694758138581646 0.003546579700677763
Ni 2.3006591677442807 6.880401667701838 0.4848578322971354 -0.6151950524897276 -0.16133389515721247 -0.3196133197588173
Ni 7.700465877377087 4.1288303447967065 3.657087701150468 0.8891108702114301 -0.7343448580797223 0.5166217854995039
Ni 8.09945918264071 4.411679057187088 12.824602743532553 -1.4821651249380603 -1.7263335361940013 1.3408117866678329
Ni 7.975988840959268 9.104610306165013 7.3648881949223926 -0.9892216568921027 1.1058702933267988 0.7974939799343813
Ni 6.812982883526733 0.8942038894256981 0.5965038862695989 1.9625860350369748 1.0466637010596556 2.335184391633256
Ni 2.0137051166693527 7.277178090075806 9.243035940525514 -0.044164096111723936 -1.0014086858765978 0.18942602540773829
Ni 0.5163238848679542 5.221562026924663 1.5903105905622728 -0.06501368586722352 -0.024923759824873208 -0.5369610112774882
Ni 6.6899595676131645 2.443096174148326 7.522712923013604 -0.6648973048108614 -0.08212463451589727 -0.5303201089222028
Ni 3.7254762575526104 4.86921449209234 0.4662880169807046 -1.0505434957300361 -0.26212011063835505 0.10000588567169229
Ni 6.201305665479052 5.966379939999607 4.886403089015793 -0.04344367300593163 0.2771908889285485 0.0013770828531847253
Ni 5.38603101760244 2.814629325099762 10.268993832800582 0.03734655896925826 1.6859325066691353 -1.806482535040766
P 0.32257288179953686 6.101053294802433 12.717476211303033 3.1752558399185316 -0.9036530296916631 -1.5247721609753095
P 4.2442086077821655 6.889086739763367 12.686739084423094 -0.7766765289683979 -1.8027359235141402 0.41520359286131714
P 2.3773012794973316 8.843601995576417 1.4118688515972708 0.573375031130148 0.24787311380103763 0.185386565231042
P 6.639965665410245 8.313776107923733 6.022304688155467 -0.9375165152083272 -1.0107621020670399 -1.675573274921998
P 4.844098942317771 1.1598494081328603 13.18662610549561 -1.1331139595341002 0.6075064255962181 -0.8556821582393394
P 4.110091754445467 6.4740552447054505 8.20607574057586 -0.14913735309102058 0.4201233987604377 0.351292396029653
P 4.936970826337062 1.2314556377662014 4.143862270464544 -0.29976980267032893 0.5987037397029237 0.6693910789161568
P 0.40524801682390005 5.9414924645964025 3.8675483449624743 0.7730209344936815 -0.8198708049676847 -0.6935764179131086
Ni 0.7700949395044377 7.735735298164767 2.5099164911729717 0.1692480077979666 -0.4459768694884319 0.05127782433836975
Ni 2.0409828114844486 6.9247940633440646 5.1447985796060465 -0.06581149917817053 0.20292483122512148 -0.6411253992022442
Ni 6.0241466167786 5.755009735594602 9.317635418208631 0.4752627629367428 0.8158889375018014 1.4973369475824923
Ni 9.020076821162778 2.3142432773027015 10.381301302450002 0.0668813352035816 1.9791493387122947 1.058471749438177
Ni 2.2376741493484866 5.479514140936986 7.152037331698496 1.0455447569638638 0.35361050263986843 1.4619706522680562
Ni 0.35312937377735726 0.2731473409300564 9.41018069972813 0.9932721728123927 -1.0280468572894166 0.47298656530805633
Ni 1.7949544256070193 1.5111842927563282 11.737477129452717 -1.8696607103611478 0.054379603192145055 -0.32965013516952907
Ni 4.260593470620932 7.177737664161241 2.105445751806679 0.7646483941592702 0.06530936273077138 -1.373018196197048
Ni 5.869539561918588 8.167242885809996 8.06885251430119 -1.6423021715736943 0.11453210431232533 1.320915561964538
Ni 6.905526340451261 1.329728322899384 5.147348451077892 1.2071108227365404 -0.049185717696031424 -0.9433400638686399
Ni 0.8130650633668407 8.17610129439376 7.296243282926838 1.2832530144167578 -2.734596268877955 -0.721057396942197
Ni 5.44104255597536 4.75072529468148 7.347115727608249 0.3320371473444669 0.29682074734433395 -1.3688375824567973
Ni 7.8915648316552875 7.465202601828023 9.255907545747794 1.4365653248210744 -0.4043016012368327 -0.6708437522022834
Ni 4.873228601028341 0.5864832106893642 10.72246771930059 -0.38436938108928 -0.7407577035846017 -0.08593629495250361
Ni 8.554987563077962 7.641869009886331 4.687518587996721 -0.9783086095240247 0.1963446069044425 1.0578942796681523
Ni 7.272014486308131 6.419308272603312 7.175029965224412 0.38183504470320045 0.9591492629867545 -0.4232673437060582
Ni 2.612993334864559 5.76756294899446 2.894265597200075 -1.2221782585926242 -0.6643753708691204 -0.3375274810350768
Ni 4.007950927973956 4.5301500086482385 9.346116433407042 -1.607065716968903 -0.02465636509609947 0.1359859033107271
Ni 1.258404905486534 3.846592871721579 3.7613569176555446 -0.3740679991632719 -0.5661052369416122 0.5079890495251704
Ni 0.4168788974659623 0.05930845952941145 0.5125487978731427 0.008831739359017047 0.8148391560810482 -0.056132581327509784
Ni 1.0034268812767937 3.53830930543672 8.551835575265715 0.5027931071465277 1.0646040875881602 -0.9560716525026952
Ni 5.530867366393232 3.4809440395513267 4.80044003385385 0.6607570573902427 -0.5017507819249424 0.5707519916850042
Ni 4.2933996881978835 7.515105274282397 6.127948736971124 0.4796662913210772 -0.47846481481380815 -0.2717221525044933
Ni 8.032961818925914 7.122726125788321 0.33951150921197465 -0.9084057138853 1.6753997254586113 0.8927294408006238
P 0.3122757800812094 6.032439400921383 8.479906392322523 0.7339059707700909 -0.03622401532904084 -0.36579624607278294
P 8.695536113687115 1.8530951443550487 8.123611346270637 -0.6744127005004643 1.0491095914969868 0.7699014150280934
P 2.0837421946277113 3.535234862910737 10.533224378107803 -0.3041825870260439 1.5397884318784838 1.00050468600509
P 4.237183917144163 6.501132234073746 4.144930570820011 -0.2870284438442605 0.5385453250454725 -0.43423104180641336
P 7.18732591073337 4.12009053488605 10.67859168403513 -0.768001112681587 -0.47356094975428764 -0.429713356441718
P 6.717565689523024 8.263435532676342 10.68923363420296 -1.7660578513668164 0.3610024242285653 0.5430375564888712
P 2.432385801669088 8.911285346022302 5.926127550346374 -0.597574511194487 -1.186305713065731 0.5141818085994435
P 6.78285882055702 4.304994989238013 1.6393940198747077 2.6731641297144026 -0.13671661082916453 -0.2207927126444778
Ni 2.674536923233335 1.8599282525211045 0.6013281153726834 1.2490077200806424 -1.6678424819366438 -0.22278891713890017
Ni 1.5591711404912465 1.2921599124483585 7.4119946755838475 -0.4203532553830568 1.1292009976329394 -1.5352614905424076
Ni 7.094235075317569 1.2219677439174723 9.775676265920827 -0.6751724614846243 -1.464769298059116 -1.406676764791758
Ni 2.75975463134966 2.127906515898575 9.123798659176583 2.329008858950163 -1.1571460607826394 0.9569401711505775
Ni 5.98384131387121 2.3755587913001133 2.5269673311761207 1.666789100971465 0.1297617767778862 1.0947775258477468
Ni 4.160249870195767 7.2861003594835525 10.534319135090351 0.6802771297010414 0.4205003224838822 -0.7865886458757873
Ni 7.502506446008266 6.14564639589146 11.397378100660111 -1.288484695129342 2.513367754247639 0.15125491365465563
Ni 7.939314482043987 4.38353467976081 8.331921704909428 -0.464693986281961 -0.07231536173495934 0.6287581358861428
Ni 3.197639178418217 8.85402043286031 12.455288300065744 0.5461154240832466 -0.3728217854609966 0.652761954999908
Ni 0.19303758643479182 4.838397083033679 10.767025240787683 1.1487768628823376 -0.250633193044678 -1.4607231530142004
Ni 8.942540657873982 2.959210230594626 6.2044841099183765 0.1486113053842215 0.48095878488025556 -0.6881565324491181
Ni 3.6977424139947868 2.8312513852847467 11.88010754292368 0.7180000981731118 0.8290969515516432 0.46153795715148255
Ni 1.3654447694549363 3.753228347060143 12.862336279828448 0.12462419844100472 0.35501226808340147 -0.07132060192185782
Ni 3.2950543039150726 8.823668295519232 7.957240215335688 0.9458720862618741 0.08882775756768574 1.1395661429173471
Ni 5.9321414153704906 8.05421835033701 3.7742412950426214 -0.11838773061298966 0.7914814551917143 1.4842495182709148
Ni 2.8926033911815767 8.836367476516761 3.5476110905984157 0.9411805943234759 -1.0589587163769245 1.2605105785139197
Ni 4.182792741061354 2.9471222889123507 6.814555684391658 -1.6172148895877632 0.31395406459051095 1.0011140374543148
Ni 5.142839876904775 5.082062618423781 11.793904553523063 0.014345727198710778 -0.8939597136632992 -1.4128060176179473
Ni 8.14449930949761 0.2281555658398859 2.9384080233312875 0.5123221296828854 0.21509026294306183 0.21944853991175753
Ni 4.7712702340539215 0.3924238510708631 2.1764407421247656 -0.3427563335341839 0.11447759692530607 -1.7640925001103296
Ni 5.990190904369975 5.898505007081775 0.4832722592674152 0.09442556337043738 1.0149658557357424 0.3497829013636621
Ni 8.183791962196144 0.19610199368843426 11.862175423549582 0.021664629457627205 -0.4732459896170301 -0.2202766922400077
Ni 0.13665851413117547 5.58459256531166 6.101364388244972 0.18520093158279716 -0.47962695344270945 -0.23552153421422017
Ni 7.698066534990341 6.410906012762275 2.7510878052378405 -0.9498457261976417 -0.10900886050125098 -0.8063005224824178
P 8.781328569219278 2.085904339668239 3.7068790733116157 -0.20049256763454504 0.929909906505663 1.2137157296475678
P 2.0513647568689235 3.5322516501333006 1.6402351581562968 0.08580825401507157 1.4986672363581415 1.054692742011719
P 4.8283344417691145 1.4403079011113507 8.54820371897612 0.849087535740957 0.4345115491613098 -0.22406161320373666
P 8.787194642050752 2.080968810271929 12.724752696047021 0.5032407362069075 0.04193957765657938 0.7088942792171017
P 6.746905176655248 8.260817238893086 1.817061218274558 -1.0226056316691872 -1.1987796771630257 -1.2757687902245705
P 2.056126949742997 3.5258017069111354 6.2067675905244695 -0.4698649889599392 -0.38861787195298875 0.30941709595210587
P 7.326159342069869 4.552227607796243 6.00079362574593 -0.8978346232376732 -1.8147707431914877 0.5383915730764276
P 2.516408400079468 0.11586634214017692 10.270583055020245 0.10732401659966033 -1.2278354568784013 -0.5634176628071199
