# total energy = -381167.0057343757 ev
CRYSTAL
PRIMVEC
9.33035515878603 0.00000000000000 0.00000000000000
0.00000000000000 9.33035515878603 0.00000000000000
0.00000000000000 0.00000000000000 13.65591790164673
PRIMCOORD
 96 1
Ni 8.903192848732333 6.6018794069882745 10.271968081498573 0.5900990287530482 -0.2243673173696136 0.5827546725728351
Ni 6.733241477413798 8.36958050625729 10.878386118393491 -0.717576380372132 0.0012269304285656287 -1.5261600424617718
Ni 5.4592467915616565 0.7794476074345332 3.652029772080539 0.6747106913568574 0.42373811269488953 -0.7619425651923329
Ni 7.102788854595681 4.410011031377563 4.766434330978612 0.9982212892875518 0.8613064464046521 -1.5728854715427687
Ni 8.215900226267319 4.606592284434979 7.008299414762856 0.009992335326021501 -0.6858926761156058 0.30178451910751247
Ni 1.4344954554707126 2.1050307600520535 9.309048370019186 0.4414193320247366 -0.5604431535598284 0.3048996676977265
Ni 4.320318327137164 2.4277864060609833 4.8403811278356645 -0.7899670754297169 2.0247895051489126 1.8680180325514022
Ni 5.621315060848633 2.2404701956864668 7.779380492717273 -0.9182319559471025 0.386476914350586 -1.3616451784734163
Ni 0.7721671312960976 4.910463291581683 5.691335644250535 0.536550920323263 -0.21325783772001336 -1.0417930032309155
Ni 2.984883252496609 0.3164865803708226 4.791328651605244 0.7009966216365798 -1.303790472248477 -1.6969005756448645
Ni 2.597580209427961 6.46053385653183 9.851679433800665 -0.46924509598775316 1.441165542597247 -0.24570593094638973
Ni 2.9863667789684936 1.4988655757822185 6.65181173571114 -0.57839768115572 0.9844905699650205 1.7744429901067182
Ni 3.41989240154478 4.23181990835841 1.623989370741693 0.8843134488227866 0.17603314904060005 0.18420540043874725
Ni 6.104692771093331 1.6302836283387567 11.13687894317536 -0.8249063105090633 -1.6776314430026074 -2.239196883092337
Ni 5.959456462531381 6.046779256558832 2.6001684499518647 1.4377634588942336 -0.7424065520419344 0.4726651774128957
Ni 1.150945961882271 1.8146421161246737 2.074306833515779 0.17758146736432642 -0.7376962910504585 -1.0818908996930658
Ni 4.2839206116225705 8.703355301720906 2.321232816994535 1.4065757204375195 0.14185290361446537 -1.822707481540061
Ni 3.468512882330873 3.0875451504220326 8.270884009278726 -0.8955005757878577 -0.29163868892276223 -1.8571520363711758
Ni 7.3913674096202575 6.900096218902514 6.273365065768986 -0.39752083086957346 -0.7743422244082665 -0.5185187454119006
Ni 4.755066226240602 7.287231315578119 9.577427639138214 0.3206841842254929 -0.5839016416930847 0.5355160513008456
Ni 8.811531439551258 8.743466498592795 2.724055039815919 0.0851816761746662 -0.25473693080040644 0.6865426509947788
Ni 5.230121259674477 0.5881352059410985 6.036298468597401 -1.3929295904089947 -2.0137653861242675 0.9334132916732312
Ni 2.131286379497854 9.050789737152062 2.48358846122072 -1.382693000282651 -0.8000823094868479 -0.40265403833108077
Ni 4.559175419465697 8.02555165046285 4.447910001038862 0.5799544841198786 -1.5741049457721665 0.9701790384383547
P 5.849516887574072 7.8349231640033095 7.753611917811298 0.5165996740123168 0.15203035836809947 -0.4803604891746243
Ni 9.098206602121342 0.29310471031709984 9.53150269796047 -0.31359976657488575 -0.16084872799067781 0.5973222859743648
P 8.289199496475637 4.391723535246159 11.632670690972525 -0.29150987665438177 0.2655093388255621 -0.21373863401117382
Ni 8.648408840130175 6.636578997862094 1.312964780286852 0.8913238187023488 -2.0311928375720956 0.6950992823155383
P 6.298857462161956 0.1877864602750382 1.443976962393535 -0.11523015882061445 0.2510908494073869 0.8376438126803898
P 3.702256940026748 4.3409197513505005 6.1550225729464 0.18229867033433766 -0.3307019734728111 -0.48987742752612407
P 0.02699831571725945 2.8990066635203666 3.315656472702332 -1.1279858942789156 1.6816259088739813 2.019714404618851
Ni 1.981982036082183 3.039064624963476 0.0134515730472674 1.1082850734158785 -0.028137638776480574 1.9338027922566952
Ni 3.578788350074269 2.025890687507889 2.7772725865938193 -1.3303088302539798 -0.9838637350142992 -1.7149669462282724
Ni 3.023053735493329 8.531042302458276 6.879264334916502 0.5831575644382085 -1.767794374441949 0.3358686052754151
Ni 4.908317309892794 6.4552995272819755 6.3629747298483785 -0.5903831356523703 0.47290583266879205 0.04766979527213726
Ni 7.284889396430679 2.0569327791554293 0.8408879962229469 -1.097589284264929 -0.255509804410689 0.03108823676437227
Ni 0.31932580744877465 1.2061070216418914 13.301601583457138 0.2722561706310924 -0.7139922625652994 0.9532683787259455
Ni 0.7724265151697981 4.444999863261624 2.130869312621796 0.07804789334336236 0.046043829632940056 -1.4145260856328477
Ni 4.8281229072145235 4.390044071315724 9.342819590553683 1.5043984824149639 1.0624335622994026 1.17379498219323
Ni 7.77323085562533 1.5433247181629004 3.2786494849951966 -0.40774559392137516 -0.4744358961600732 -0.4590964375895254
Ni 8.376606263699609 2.1322474060802694 11.716695204447703 -0.11943802625437495 0.38968359421334176 -1.0975154936042002
Ni 4.42845714354684 5.268422367643565 4.059017065449402 -0.8373951870046933 -0.29020684157224214 1.0180378097928466
Ni 7.068247879759733 3.335023490926798 9.21882383553415 -0.26790920651630634 0.2815874753343473 1.1372236108270997
Ni 2.657835643109901 6.221322210706873 12.305361307597922 -1.1866607824123048 0.5582893404416193 -0.6579627824745572
Ni 0.9314008386827071 8.533020337754122 4.489082992328993 -0.08253164014632883 0.6628419649437295 -0.8129712496343742
Ni 2.3155795547975875 8.694080928682839 10.41494551107409 -0.18213617661454437 0.763384439845182 -1.0290202769462793
Ni 8.989974482159976 2.7432270536173515 5.467037638127841 -0.7247412735516873 -0.012012451079843828 -0.29406683874828066
Ni 2.6957728672273937 5.829680552484602 7.341735518333836 -0.5431056907226453 0.20396355690228096 0.46117517449542506
Ni 7.965081618612022 7.168297278237814 12.516344896894335 -0.07324532974839644 -2.0155268489000644 0.6588025047670332
Ni 2.2281261357977695 1.237410363234166 11.924661356882433 -0.0015166937548425493 0.09684574277615579 0.6046810403322812
Ni 4.460702851011192 1.6719623248790518 13.479333653001975 0.4988639472954505 0.565683061802529 0.0908743556840693
Ni 6.6229753400255715 2.113586695742103 5.25490641514563 0.8631298727666361 0.6572284754116939 0.5706720303766881
Ni 0.46549608456315056 5.366857614677394 12.958237048950739 -0.5604732354668153 3.3877978825184427 0.9853176938520063
Ni 1.1315201624202396 3.9606891175000176 7.777400591350394 1.6704272119446846 -0.5444784027004558 -1.470185841088997
Ni 0.4766495911322728 0.461247973854667 6.298041056084661 -0.20110886106230527 0.5171303497048062 0.3482304692748777
Ni 4.3386804661099205 9.256085541937402 11.684849769220104 1.178515784707667 -1.1559360996349382 -0.6207013270199374
P 1.57946118373276 0.20327111771364886 8.072068136158315 0.22553665508736642 0.4752645627089557 1.6865811959967274
Ni 4.366512915579296 6.624654803956005 1.167262887001964 -1.2948216930909635 -0.8139066169644499 -1.137524944117602
P 7.658458156690436 6.3704306166639935 3.8302395558100297 1.0154193983333932 0.6797749932536422 0.30071802551621113
Ni 0.5932351780765195 7.125247019487664 6.255065440175863 -1.2811940750052002 0.7992672697847203 1.9194938318331909
P 2.5101921029143273 0.9199748857426476 0.5388709306483387 -0.07669549308052598 -0.2218337523144825 0.07007721643305996
P 7.146716166731724 1.168748279544882 8.673584004447395 -0.12697881471611036 -1.0396078226541385 1.590079209713236
P 3.7209269807200838 3.641115122603745 11.54457627657259 -0.5911868625005884 -0.904444672355023 -0.873495018051044
Ni 1.7102074507171245 2.0714508117985226 4.670828980667567 -0.7219899360587952 -0.476190931177967 -0.2457992619911444
Ni 6.8908125155092765 5.173849887649736 -0.11092112832109614 0.9441036815075419 1.0637905905479292 1.5000245217169843
Ni 2.382328915677209 6.723267327738047 5.035961233783438 2.8442239939101275 -0.5260523347847844 -0.3546885661953956
Ni 0.9295982140640402 7.923580198819939 12.943788993971413 0.0013336312097589936 -0.03251237080540852 -0.31509486306317347
Ni 7.010241061673543 5.70918834583106 8.78095959780424 -0.6567697906077204 0.7391065411344239 -0.8926803327302433
Ni 8.356984526779026 8.690330125904866 0.5540215613718961 1.4759726229741033 1.5203876587543685 0.9373843605058373
Ni 7.405120353139487 0.07792712637218376 6.713085111142027 0.42048926674028875 0.25842697805748394 0.6348747903068421
Ni 3.759172106558156 1.8437528242522137 10.316103460554888 0.19589003586552714 0.7259440356105369 -0.05854787563722175
Ni 0.5874671525109921 6.30817848697587 3.6632821804144533 -1.364512215608566 -0.014896714606174345 -0.9447587985930374
Ni 1.2627702685837343 3.7759760762176753 11.792021960834264 -0.06444392940668256 -1.49136196094598 -2.9845422060476214
Ni 1.9748723054433412 6.175416863274983 1.0676100286185697 -0.27669312335652346 0.9894276022553218 0.2607445704470671
Ni 8.349958769336707 7.698783951731214 8.31870767773338 -0.7619826744016489 1.2849005773225097 -0.6421098746027006
Ni 2.4950116150542283 4.3682017098649 9.890080376570062 -0.423359132088916 -1.41766925924752 0.00040751985106381427
Ni 2.337300621631213 3.9832499162988606 3.8619618303493963 0.5321926433545673 1.5822224326729784 0.3471297800115312
Ni 4.477581463512063 5.038317148463632 12.875933052968737 0.8877625837136517 -1.148187823148087 2.0575211910539792
Ni 4.800029207800414 0.30080132029607665 8.924197344288974 0.6023626766117497 -0.7434542765801584 -0.4507411236462947
Ni 9.25721451491286 4.136295732137334 9.56502853015402 -0.9245722963428336 0.37202320081910123 2.039422424570739
Ni 6.559846156951554 5.8681402764915624 11.052936536825667 -0.5617546732824003 -0.7267539331063418 0.6441582724912971
Ni 8.709448023646317 2.2856011236393226 7.756847684983937 0.5059316527755093 -0.6009511409762037 0.10663007585642927
Ni 6.476992603050094 7.44956083480983 0.8134324931024023 -0.8037219631219641 0.5070955911766235 -0.524188284992852
Ni 3.205172938038666 8.29030047838559 13.541754662118658 0.02735962295987546 0.15192854268291253 0.14716943073137234
Ni 8.86140218793001 3.5696725930740745 0.12854150405790996 -0.14834776731018967 -0.7948051202483086 0.28179367780788245
Ni 6.286923937900698 3.466637480941887 12.212200510341177 -0.41033675168731915 0.20645289898303798 0.11082483066406719
Ni 6.984125397555279 8.497844898766678 4.483060248067349 0.5254213860690048 -0.36518200952755175 -0.3274220171699587
Ni 7.597213705360574 4.1051043548070885 2.3023873656240204 0.9822004883792633 0.43429274828228437 -0.2870541548758734
P 8.667461425385444 -0.38308945467428995 11.747681313964229 1.5241710370562007 1.7649404499329218 -0.8616792563630387
Ni 5.916126293126158 4.310325516751076 6.575488497392522 -1.3400774796049695 -0.3204527849409772 1.431672001284515
P 5.501354684439729 3.7189862668449143 0.8008990270037727 0.29867065606887916 -0.6092437200022991 0.43377518521591746
Ni 5.556702351302731 3.307806844898582 2.999795026127838 0.052501926553457964 0.03476388584374658 -0.3383628324521786
P 3.1142672876262876 6.7726995494238516 2.971527782107583 -0.14738874583103004 0.12223230117006044 -0.215306492718926
P 4.726104803795766 6.881267562171304 11.934302412878647 0.24756303875978655 2.382826676101567 -1.2741129997887024
P 0.21720133798109026 5.967629853659497 8.13560878789529 0.5912909921786204 -0.3239412577102098 0.5054868519286069
Ni 6.847818238890142 0.23955593593069693 12.883839595939019 -1.693335998222058 1.2219193485042827 -0.5084256228419567
