# total energy = -340858.4481715731 ev
CRYSTAL
PRIMVEC
9.36585828618461 0.00000000000000 0.00000000000000

0.00000000000000 9.36585828618461 0.00000000000000

0.00000000000000 0.00000000000000 13.70788031729532

PRIMCOORD
 96 1
Ni 4.066140507009914 1.6068440957390937 7.6008687760132 1.0704029536581243 0.26195530292571656 0.8735695800427213
Ni 4.8361920021229485 6.907076908098975 9.871483417801315 -0.8010608713500333 -0.028730020944840846 0.3858721908870516
Ni 6.909034372462183 3.725813317699386 4.3056180084249664 -0.8467966828242514 -0.09517606838321674 -1.0347690065045987
Ni -0.01732402790730341 6.7945367560017935 3.750256334422357 0.13437870672460728 0.86326177035881 -1.0378206488467288
Ni 0.21708186129398194 5.991854610929821 12.479325149836692 0.6771583815664015 -0.13446303890829747 1.2714699057389005
Ni 4.041976592861218 6.939117508991489 6.921986417763049 0.14750727368676533 -0.5124979931391174 1.1315232180082127
Ni 2.703867066373493 6.005041739271436 11.409480026518839 -0.5682130273132343 0.5572207899677888 -0.8192820223437502
Ni 5.4761891903100945 6.666421181722719 0.8194723190620353 1.1110158420834804 -2.30674027735995 -1.3905261231738246
Ni 3.1546832848360236 9.26224370793367 0.508870490497682 1.0517639984006983 0.32788790106278365 0.3939500827991796
Ni 1.2826636459604848 6.532273994764667 5.887342872479254 -0.5748102209147778 -0.05919527941323354 0.6053749810755124
Ni 8.246647508465458 1.5218302008833913 4.277886638888969 -0.5716788743746477 -0.8227694666717185 0.12647564982744672
Ni 5.023312483044187 5.955421422542835 12.197258281441655 0.36215427844482145 0.5630433101868367 1.2684835694170669
Ni 7.7599506872495745 5.042980785258242 2.1823901307424216 2.005196927728966 0.8697661471362311 -0.48673116858765847
Ni 8.866536199103281 6.4099465208514435 8.925406237387406 0.23180397615331688 -0.122379368270886 0.415925044408374
Ni 6.550387564517992 7.102870173710792 8.233460380123844 -0.18427070645904392 -0.5843765244469742 -1.297867679006139
Ni 5.029587608036289 1.0471591415926718 9.864163063034407 -1.0134645885998674 -5.506900593829644 0.8542274280706837
Ni 6.390268852779192 4.594768275374524 8.106580162540977 -0.3531806141913014 0.47859902639882734 -2.1973910028001447
Ni 3.43549981116174 2.8066198966546336 1.6087434917814798 -0.6451388912370115 0.1596426234977186 2.200266524575727
Ni 5.767289428936302 3.929876636099303 2.430736163284373 -0.8716278829353183 -0.1378728359207948 -2.4172722593739464
Ni 3.653864795028734 4.1664113848688045 8.67201669020628 0.08477029966886046 -0.21621692034833734 0.2648375095695181
Ni 0.1795556772553851 9.214477831128109 9.640821062121438 0.4211045317267845 -0.46135618015797963 -0.11839415837089289
Ni 4.067002165964054 0.7919020422870291 11.81539725736996 -0.39617640102653706 0.28917300099108906 1.5992611333228197
Ni 5.988988658321489 8.561874197807574 13.159030767022376 -2.4088464972040966 0.6286486068914722 -2.5052525813396724
Ni 8.994520651367596 4.810398428647945 4.778923525590539 0.11176096932509141 -0.14715297567114013 1.0285572212669318
P 2.5254100042846357 5.503190959492532 7.49186329879963 -0.4079497395123813 -1.4736617154527394 -2.1479252919698495
P 7.455682051998146 6.3925447563211035 13.660272766018464 0.7791854114331808 -0.5614515402196847 -1.2678626480036166
P 0.45976810572738436 5.990871195819119 1.178697937042811 -0.753774941779876 -3.382933098226974 -0.6869537703902685
P 7.164385130349798 0.4352660840977707 11.679922928305372 -0.18797720877635365 -0.11513117134890494 0.40970528875090734
P 1.6161537587870798 8.941818967292127 5.363057115974851 0.44341090853346865 -0.9241120688769633 -0.00831391918233407
P 8.236363796164968 5.518204430182594 6.8732137112012905 -1.6417069611918567 0.5538163922719301 0.12624733586672449
P 4.460059136924643 4.390667493541819 0.472317419125771 0.8656179292958124 2.1294627143892875 0.058880576386292134
P 0.1972178126436063 -0.31362887393367833 0.8012913151296911 0.9925705187596777 0.35942736643196166 -0.7018376294806364
Ni 3.2905912531351422 5.431148778239908 5.225992464188382 0.6281865796533891 1.8101093331600762 1.0701304167230279
Ni 0.7841714629310859 1.3641840757086436 11.4172115424606 -0.689030193303323 -0.7266570025171615 -0.9363353504160327
Ni 7.472250255148938 6.939557704326757 5.295696927234992 0.5066191657608372 0.5913316156085687 0.3520634698677227
Ni 3.354288454734088 3.2416827416295257 11.69382279845579 1.2870338216154287 3.057898350342269 0.741571971955781
Ni 2.785247008248694 9.17520678770738 7.807610729857507 -0.6713276338172374 -0.6404944504864646 -0.8536245043793622
Ni 4.58935480933656 9.04257686977727 3.6858979032346912 -1.2148734974010948 -1.0539381232338818 -0.16420864560184625
Ni 3.2118524832715427 3.625345756818355 4.157325565831732 -1.4248369806405525 -1.517729138085599 -2.1208672594107925
Ni 7.548891072776371 8.371297715211579 0.8635677160401265 1.3613659566701006 -0.11481492566006679 1.954614329685408
Ni 7.107037980608532 8.958752438912608 9.50963629611115 -1.0873778909495662 -0.6445603930257222 0.11311979734583098
Ni 1.3916166743681513 7.56775391118547 1.9078487294088082 2.4988343365181547 1.1710289894123187 -0.21751069945909635
Ni 7.806208660885391 1.7197495163059655 9.987465522785955 -0.3238589824090487 0.5668308022537271 2.5625889531672965
Ni 0.8913196904641578 2.352947091441967 8.55182556854783 0.18824280373291452 -2.3814832746997956 0.043462699169325145
Ni 2.5718552950843967 3.1041263822877054 6.822082681545486 -4.034928093153869 0.33814017491841114 1.3976419082829994
Ni 6.645619610666807 0.3530525808430216 2.872733489668449 0.4150043323663175 0.47161642443340707 -1.0117244659803093
Ni 5.158911378022799 8.710894367582728 6.166997095802701 -0.5032042265420172 1.4392575269412566 -0.4347056674499868
Ni 2.632302543888925 7.291713972540308 4.049444928187641 0.69623416725093 1.912517657625674 -0.7166350995047851
Ni 5.985598217654113 2.691401109113061 11.622678803004273 0.7430878943796752 -0.49461545643174176 -0.6576910168704092
Ni 7.334085115024302 8.98114620586204 6.675463917812086 0.9797155171738805 0.7148738938393043 -0.01901587898087048
Ni 0.8078080792632811 9.443782137369398 3.1729766790667338 -0.06876055450416546 0.4884574072501458 1.0530222962878317
Ni 6.495503635482582 7.0081626156210195 2.8236451536854474 0.05804831029298389 0.6595656081853027 1.8019815618466193
Ni 3.0650145584563275 1.2455092864923156 5.505907058369711 0.23389839678850038 -1.109254122197367 -0.7362518452944481
Ni 6.936673020002029 7.227810722061026 11.176021025581287 0.15384118632459312 0.06098039633811434 0.3695120043614733
Ni 0.5707666375653124 8.482807622907073 7.235512267256557 0.06277374079311125 -3.5162519962284993 1.8565434562528993
Ni 0.10962362385458371 0.9632785155788266 6.468762237158026 0.18501349816233942 4.209339647430648 -2.4798071446833743
P 3.8526832328382365 8.054029268782482 12.013092728781622 0.2616004906894591 -0.9938635265394884 0.17506024360436945
P 6.111643937271613 1.6392312333849042 5.526633702560046 -0.1983297556552713 -0.4253221693525578 -1.3851671728547563
P 2.695156818250126 2.2303948369320112 10.138923625449834 -1.1504485941578058 -3.0047302509597222 -2.9589383894365877
P 8.145337020346682 8.42757715711837 3.9173423080740317 -1.3280740273861902 2.649210704222599 -0.6633507862593478
P 7.780358892261205 2.8404962057537935 2.3532730233072283 0.10906362499858635 -0.9876162600781959 -0.5501767386368137
P 3.955370502111997 7.60255744024615 1.681011390216655 -2.394329277424528 1.654320536190809 1.8425862227418588
P 4.998474227105294 6.852633174398831 4.615470568333547 -0.6325476848355622 1.3281568169079836 -0.2907498585599057
P 0.8713451246870556 3.078482662543857 5.587606376009435 -1.5524228328130425 -0.5900884872300869 -0.6613545817649256
Ni 0.5507255741950103 4.390442712945086 7.490643864062358 0.6298724519962443 0.7420977625522639 -0.4467793107850692
Ni 2.1719331500652825 6.988400654824992 8.803789632111348 -0.4557810000630473 1.0690176432748233 1.2212740016108
Ni 5.4952861751741215 2.803772675762694 9.293462923062295 0.5338075532501709 6.692654033936331 0.7959194363584099
Ni 1.718166686270644 8.502588315419494 12.562491160870094 0.5620256675555998 -0.3804494772095835 0.17041477441255812
Ni 8.251002632527142 3.647533474887448 9.123773240831806 0.7548339791720098 1.59515019647824 -0.31803646219000065
Ni 1.339982698127159 1.5482887502903935 1.1589509616198999 -0.03638213817345992 -0.8776540345247401 -0.36466727467466226
Ni 1.5697552972783049 5.2546772780888515 3.450314725658022 0.824595978357496 -0.7875947185427984 -1.1284597485915404
Ni 5.96695079398355 5.3753938243921615 5.75581531605895 -0.4443231359350928 -1.029631428167717 1.0726053606260817
Ni 2.7408622062523107 5.709689401023713 0.1107934195434101 -0.33719040941063216 0.38052481053220916 0.6483964789423607
Ni 4.982327487573375 2.191545257130154 3.6693662269308684 0.2905220588198158 -1.5948306083552921 0.5911223278112401
Ni 4.128882391072749 5.523917603682867 2.4875007566457747 -1.605865526013215 0.5002297172947255 0.961671772298292
Ni 6.846788878883799 4.084375832919802 13.360659898876849 -1.0910507118154629 1.732551749189571 0.8477929852992496
Ni 1.261215830688968 3.9956998875090064 10.084654096712157 0.8245414709704767 0.7085178697142894 0.35954358029485173
Ni 2.576678712055939 9.114319343567583 10.245968828542736 0.006103798904892713 -0.08876887930529229 -0.20431656936632553
Ni 6.8609313247615225 1.5492253361101105 0.1507247559670399 0.022630078694690057 -0.1831787589464458 0.17835151276113154
Ni 0.5084359146773334 3.041534351956025 3.277444397983776 -0.20374372758199105 -0.9770847644192528 1.4514694956264163
Ni 8.889351429671587 8.232757940759056 12.15161096176029 -1.98977365119536 1.3796824955911013 0.030287852350263968
Ni 7.8943882158117376 3.1127429718291006 6.082473971916531 1.7655107206140948 0.06263233011924052 2.726632019725556
Ni 6.701646174402271 5.032650243666764 10.313384275845959 0.4452520755072654 -0.13853129544040013 1.031544843140346
Ni 4.3831748069840835 3.6034577462115704 6.070452892920464 5.282633806593638 -0.7047175221315928 -0.005109296202107329
Ni 8.905563730210885 3.0679367062138447 13.310639660003229 1.11315499991367 -0.3312766150293585 -0.21082814523259819
Ni 4.568000652647015 2.4634735840267576 13.418191556024597 1.1349659251411743 -1.4068112334870935 0.3224284206101092
Ni 1.2853610131212696 3.8040369653621413 1.4136798265232224 -0.07558580495611499 2.7171850153800428 -2.0299710493498524
Ni 6.367622207658438 2.080372520329759 7.539306990083209 1.7912348648530765 -0.9303500793668751 -0.856845325309505
P 1.801260580195927 2.4489939672539345 12.787396323516171 -1.1262691686981248 0.12295529537901406 3.3936098612145296
P 4.742805030038976 8.675912887216302 8.570961890016287 0.49987284817593913 -0.653405759231494 -0.9018542859200275
P 4.5627651379147975 4.736380051315718 10.547295647734433 0.14931784453294283 -0.2620974849305357 -0.382957845453734
P 8.288175723711706 0.9122083640013038 8.198861026771864 0.4185892215040985 -0.20549259195229772 -1.5242103749345686
P 4.814744186851431 1.1003103868616055 1.4858653054062627 1.2842248914117236 -0.7330058275533248 0.3404132872233041
P 8.883347914567201 4.768458115641023 10.965714426107137 -1.8772827456827799 -0.6524104851977602 -0.8635106531448226
P 0.8498729581842261 7.359279273574686 10.55809729199323 0.43041783870791034 -0.4009625095612708 0.8529159083481117
P 2.644478159545245 1.7023571176338228 3.4172242120616043 -0.8782011652774617 -0.735949740672997 -1.1310591338876004
