# total energy = -340860.21649002004 ev
CRYSTAL
PRIMVEC
9.32919433507758 0.00000000000000 0.00000000000000

0.00000000000000 9.32919433507758 0.00000000000000

0.00000000000000 0.00000000000000 13.65421891879935

PRIMCOORD
 96 1
Ni 2.540162313523739 6.7925862637372205 8.137695598646122 -2.5534533094146155 -0.9232821167765002 -0.833173692724178
Ni 8.360180086676417 3.191340065493054 1.200349162136227 0.026196198779393595 0.7526500841468134 -0.6598782543297151
Ni 5.355414575074974 4.462620023703749 10.15843823508039 1.334193767130683 3.4372458527369254 -2.3292556848536465
Ni 0.16737040772500705 4.630508201704319 5.266172436714468 2.3591149343069246 0.8972949486841192 0.7007852769567221
Ni 2.218902183626671 0.7339687525721298 3.898470592322127 2.2211127718971166 -1.3348581401875592 -0.7366804481914345
Ni 7.297566214114686 5.341150237213067 5.110787244719475 -0.35290987702841803 0.1349633755834837 1.1869695719019753
Ni 4.69294849817897 2.60508417564343 8.764192034560851 0.5435065257054897 -1.5551615719004444 -0.1982564792151747
Ni 0.6309707174311265 4.584002168845193 9.008002127508435 -1.6286267309691307 -1.8999760735152373 -0.1943471168584395
Ni 4.8618908751189736 9.289246544919514 4.468561787460615 0.8370905112800809 -0.3890544452697751 -0.8038304636753704
Ni 4.597753401028614 1.8909623507151334 3.3584184694410313 -0.15081011280775317 0.46203623694413976 -1.0548081845436608
Ni 0.971682217139885 2.380297242495857 11.843764622407871 -0.3729626819142351 -0.12989161748753114 -0.41939114858010346
Ni 3.3125449559455657 8.98949020754808 6.05441750795683 -0.9809406478302332 0.6029401463817745 0.47452357077787305
Ni 7.830123262412227 2.5711165797276667 12.708268392506216 0.479757822593619 0.4741751862995188 -0.991913087681337
Ni 7.648073367685447 7.777637216100201 5.808163166140824 -0.6461943290847194 -0.48213403613527933 -0.12043535717063776
Ni 7.384607595574194 0.5519832292850148 4.381174292897982 0.3676628669678765 0.915871683245042 0.34224596955666864
Ni 5.832416272183728 9.274590380903128 2.036621857804281 -0.8691868775939934 -0.2248565983012063 0.4245757781048365
Ni 8.419821624904781 6.985131501887575 8.229506997076719 1.7853220989130671 -0.8704348910684816 0.00966966187928012
Ni 2.214358866073533 5.424012139691454 3.7453794491696737 -0.9442767167502962 -0.7260929024835754 -0.25514136532767673
Ni 2.2780492745648586 0.6494873019885576 13.05415666205119 -0.29853644448386 0.9285572491325106 2.9165984910177962
Ni 2.5189850427935045 3.190705680290562 8.587384214029367 -0.372720483996442 -1.1098164224587401 -2.548430659389043
Ni 8.55615846827555 8.016007455936418 10.548934979393508 -0.12027620588495413 -0.024059869162681144 1.20651381258249
Ni 2.584961103852631 4.540873304269918 5.967098116511524 1.72626720173244 -0.4362149050056617 0.16647867258294555
Ni 9.364831675957557 0.7875603083914382 0.5894418096533127 0.12482577292884955 -0.42599836948397596 -3.6858550733730397
Ni 6.216872363281944 0.501116731078174 6.464398274261179 0.6601165955927664 -1.138950106599903 1.2498875515824344
P 1.1525286458207613 5.436699843741287 7.119159369705156 -2.0957336975679586 0.6891014128608907 0.2036953908425589
P 6.863516126892274 1.8047139507587393 1.8079278581448914 -0.6688927991234996 -0.17392124490391983 -0.7575326090500953
P 6.421788112880884 2.8616836608571266 6.966354632813238 0.5853190908659016 0.3593864858916972 0.6119729460080041
P 1.5930718521745575 1.040988800512092 6.014765634042861 -1.2100763331227677 -0.798173008279277 0.6402910762264069
P 7.124612283688337 1.097999505988947 11.34589071921773 0.4136588740820166 -1.7578274930372242 -0.7639449403343425
P 0.890266339755412 8.10155616633124 9.207449103494131 -0.8710121037281903 -1.8075292311377256 1.2393550274822267
P 4.086494902985312 0.12981573665691998 12.327097110669726 0.934828683963519 0.10260501385743619 -0.508610228048937
P 3.0195616135301457 6.842161601473109 5.562865066725633 -0.39424293144925004 -0.9045621717694937 0.3513620729253239
Ni 6.216256636467761 4.233345748167963 -0.04791194241817778 0.46579801797941717 0.3328341893244655 -1.6142406374507876
Ni 3.3222006718952537 1.9313391030148925 11.152219447332953 0.22685357412657706 -0.03887610823990724 0.09433120388441818
Ni 5.1045152274895464 6.1746577597337895 2.292939601354518 0.4458400868002515 2.365462988012139 -0.19540692558152153
Ni 6.3330768056677575 6.9923989441337655 9.543001558835568 -0.45066501899272066 0.3047004072027269 -0.14678530791907624
Ni 1.4245772765539588 5.9731098492245485 10.358403914261062 1.1796146741988007 3.5515658410384443 1.4056442097621857
Ni 5.985340422760819 6.0380037237617765 7.404341639968761 0.6621444246560725 0.5384213978730985 0.6405481865425355
Ni 8.64055035859524 4.159710418708166 3.300047567456481 0.7995140956882038 0.9147995332267859 -1.2367934374026377
Ni 7.8013333692520925 6.064190771752863 1.1177578062883138 0.38992553502081884 -1.1012690471093614 0.5433543163983416
Ni 8.370031715703346 4.7450613767248235 7.2617915532912365 -1.679058662367437 -0.32282951270326987 0.991129415437777
Ni 3.0861440722093003 4.313091699798818 10.262251641790478 -0.8928289424929656 1.9796005673171002 1.1313113591077226
Ni 3.5433865360992725 9.15822734221669 9.82573958023075 1.8816361375554689 0.02280182838586396 0.2256487551851985
Ni 4.348272090954639 7.893291236030912 0.5689521005322495 -0.15043627440810223 1.146380080515387 -0.20747619804122977
Ni 7.64568509398195 3.0081613382736054 10.051348415383314 1.9295738417770125 0.37278321891357735 -0.2746930622073592
Ni 5.7627551794336584 2.764352178245438 11.18321476199116 -1.266412031600019 -2.544147972853289 3.633821344705252
Ni 4.385532892406865 5.922191107530443 11.87679463431113 0.16699289321520272 1.1028268785147846 -0.15122534596830084
Ni 4.713220837076238 2.0382609972171895 0.9891884499704068 -0.4954672629090757 -2.3506074110565454 -1.192319780470295
Ni 7.769352891691193 1.5526018079332553 8.253305771364309 0.03384625912548365 0.530048343318055 -0.8784310219000807
Ni 6.8483935031681735 5.708226039601844 11.447642374019718 1.171163972328286 0.3066629302457364 1.652732879988715
Ni 0.21018487845728173 9.010546198754309 4.3078104429880755 -0.1624278995523396 -0.29243624512339317 0.13717349586092506
Ni 7.556274097207251 7.608592218024499 12.88485790989449 -0.6150253596810827 0.4759381917372126 0.0722269157862111
Ni 8.660552150862035 6.63159236021667 3.792459227469289 0.8403995210486559 0.7686192058815602 -0.984631209307943
Ni 7.02843762115178 2.759491668091054 3.762979906861154 -1.802699156738934 -0.08218711232271653 0.2979594889344675
Ni 5.15251393141336 7.0254895957990255 5.212975505807886 0.8058719195854314 -0.033465992967929466 -0.15625288108987928
Ni 2.508638966476399 3.0701631626230044 0.006147938947675908 1.0439383317086923 -2.3308788222793666 0.8206207957598318
P 4.348505320808496 4.475811504237913 8.250575116235348 -0.25286362503709353 3.417948437959894 -1.9868986436404106
P 0.7402808853369212 6.677949125969328 1.995878468174258 -1.032736549455602 -0.20617033474561267 1.1592973027976874
P 4.016563263604769 3.8360153691368293 12.07793485903583 0.5833028317668213 -1.1767070136337026 1.8177452524387794
P 6.6578727001493 8.090967530966124 3.68419486222819 -0.18610647411620204 -1.9698882251253427 0.4807245573822624
P 3.538983156458448 3.410417531818203 4.397682301953996 0.10692806671282229 0.4069819762824733 0.43597193575692017
P 6.999974249787048 8.433852732912833 7.974569041341901 -1.152826607471679 1.0199887628716304 -0.17045874027661612
P 0.030673457459884094 4.042134584781673 12.937017434411118 -0.31812259414590377 -0.6301910116779276 0.3969423326582841
P 3.5698441307208335 6.9786290535620354 9.97940446882369 1.3078967811073667 -0.3745428819171614 1.2651671034493244
Ni 8.9248109044764 0.2580175227251481 6.772150663942253 -0.01904493244659301 0.2757634124534025 -0.72653821755111
Ni 5.963967238953345 1.065076779818464 9.495989883653278 0.46167294006745 -3.233478985226483 1.0014534230716043
Ni 4.883413326032917 4.081792989131552 1.6569665700178617 0.2059492198737421 0.7872417060787539 1.6803943504597254
Ni 3.3080669427515073 7.404795971724074 3.5395970174338003 0.12398090843005101 2.205683067605608 -1.2194901702374996
Ni 0.8331240926409816 7.721148945495986 6.2162062588193265 1.3963794966308078 -1.7590197135731125 0.4059383655093073
Ni 2.0815857748697035 4.864782925306804 12.568708312555142 0.6123915216026614 0.4231626998073938 -1.600287003484173
Ni 1.7714087276279302 9.236387330841318 11.095254454907455 -3.1863954014751186 -1.0583071988358548 -1.1128426108795737
Ni 2.8147111682902852 6.185274382681369 1.3878146540695706 0.4628988420547511 -0.739956547839545 0.7344551584053416
Ni 8.101565495525396 8.406275634992756 1.9834258598171142 0.7527709259953939 -0.34505567109132185 -0.04607725397403677
Ni 5.546625738461263 8.358370223010485 11.316425392400825 0.8105911794379718 -0.08867786225338277 0.3068454785701876
Ni 0.5907534943514056 2.533846449081286 7.521972516140765 -0.09474463727275295 -0.4630531082444283 -0.843740926717063
Ni 4.914218325130377 2.1297897210649106 5.709784947945026 -1.7347556988194255 0.8288640096052304 -0.559516785090817
Ni 2.494523895720961 7.027756589978517 12.985817516112784 -0.9770060886625173 1.5590213119661667 -2.1802530575682773
Ni 8.983911349443817 1.3234674703097835 2.5573942680461244 -1.433883664223853 -0.11891712075389842 3.9925002630069626
Ni 8.276226668481979 2.7286586814111318 5.919240283419442 -1.023517344850179 -0.9395962805554914 -0.596370977804689
Ni 1.6652051813755138 8.398821608863479 1.0316418808889105 -1.0825383034690776 -0.45157621795308034 0.7147587084176786
Ni 4.355996663714389 7.9200846816420265 7.896466893721032 3.198440762675427 0.20587157255827124 -0.022067521323000706
Ni 0.15271984122511287 6.0023568728982415 12.35779109235675 -1.634040188675218 2.2331414209268767 -0.03762089567656747
Ni 0.9234288262156604 2.353690380767827 4.534115236024552 -1.13710868251579 2.8409088134939657 -0.1868207265744073
Ni 5.199952883687915 4.727998280616631 5.8343660737619745 -1.8496459578021176 -2.5846970979202455 -0.7649289015141665
Ni 6.508754860787158 0.7823061062437431 13.408278878356738 -0.9450601318835402 -1.1672181003066608 0.27171109676089983
Ni 1.7061323561303758 0.2540255605465282 8.13654904068456 1.2176603161176125 1.9384114946733004 -0.7774830840300933
Ni 2.8554890759386793 3.4148675574297984 2.3428591863546986 2.4760600189361166 0.965572135793963 1.0614994805209073
Ni 1.0556356353343244 4.651797422764405 1.1579852914816045 -1.0171649202695903 0.6513666173142783 0.46873113246581205
P 3.080733139599813 0.24678517296338515 2.036868148529954 2.5416542598971583 0.23363871536921055 -0.3623131726201889
P 6.375729881341163 4.840377753399186 3.308076271945662 0.15858410032621723 -0.6628267954350778 -0.4694497557993915
P 0.898768034388215 2.2677405150243697 9.654529276191838 -0.70278842342968 -0.1153268322994788 0.40097690773897393
P 4.040250087562506 0.7186520816096195 7.918244964554801 0.1933328166613122 0.4211035032855199 -0.6413840521802696
P 0.1427562618683331 8.500677750639998 12.710193005260248 1.5062255083213738 0.11466837277987349 -0.38841886856830526
P 1.089808473521482 2.703432540417936 2.133471953997608 -3.0294987161536535 -0.8180826027190105 -0.4707422493585699
P 7.758493709695602 5.144089669092038 9.58796547590099 -0.0733646289350801 0.7441119647688154 -0.9555813431298383
P 5.828171488843526 6.450120875527456 0.00019871183548633814 0.37027922154480103 -0.6309386884772294 0.052486499934490255
