# total energy = -340870.8856336257 ev
CRYSTAL
PRIMVEC
9.28536052417632 0.00000000000000 0.00000000000000

0.00000000000000 9.28536052417632 0.00000000000000

0.00000000000000 0.00000000000000 13.59006370575919

PRIMCOORD
 96 1
Ni 9.173685261210666 3.0342886060944423 9.856084959600093 2.272093633820358 0.8744373273596553 1.3354569501138227
Ni 7.662362879064907 0.8518807370719059 11.06265160315105 -1.073919708562131 0.41813979267150575 0.23608434869622566
Ni 1.868233060950156 3.66172825693084 11.185899904416525 0.660419728655482 0.5609221500787759 -0.3070066867384003
Ni 1.5341643684577122 7.148826742898719 9.314806023961198 -1.9517354654757162 0.035859175790454376 -0.6614939355562672
Ni 3.5477504593783142 3.034232893932706 2.46580820748772 -1.4633276805165831 -0.8315094176478776 -0.7107737556280017
Ni 3.6770955282098154 0.9521858415982727 3.785580106615125 0.36670641659187814 0.25241368198386854 0.5586001868138186
Ni 0.7052992539351705 1.94026888607541 0.58682734200257 -1.0113552555663485 0.9135350646920654 -2.3174226967744604
Ni 2.5058401813034594 3.2870361131722206 4.506464837796073 1.9671484575966767 -0.5642560995480154 2.291671298841969
Ni 4.701075775565817 0.06474217461792112 1.6249371221109694 0.020888413413234996 -0.2194325990721576 0.43608429296506834
Ni 4.471866656821696 7.801504003001737 4.713727078960141 -0.6872355632967454 0.4982093444305871 -0.7219367142233566
Ni 4.393433218457038 5.601319311705122 5.136201686768071 0.43392816585401395 -1.4180384696614805 0.6434864432352531
Ni 3.4117942140207527 7.169932366836551 7.230688336282228 -0.26024474799251307 -0.4360614101469329 0.02808364561009357
Ni 7.857104740414733 0.09609512217114771 1.4650088620942339 0.01960980381112752 2.3440359284866146 -0.17292339976702475
Ni 3.7908969039168423 7.174510049459232 0.6722424427688368 -0.5421983484170275 0.5458238609847568 0.5731076364013742
Ni 3.0734635411554687 8.449956424173074 11.155036295350548 -1.875049999697519 2.4052276695045864 1.6169161274004218
Ni 0.5612796017022835 6.619746913608056 3.660687368042397 -0.7657485692019844 0.6429125730096541 0.10677277208188062
Ni 5.967858909129638 0.6000441238385184 5.3056288703608745 -0.40606203557136517 -0.37599169854854597 -0.36092169158930104
Ni 3.0058196914471065 1.7562051890584074 11.941181324253566 1.3770419726444607 -1.0003383356305546 0.38140875579905925
Ni 9.332901334093204 5.109111648123712 7.503848779420249 0.34475408069050306 0.05263125304247065 1.1554167367963584
Ni 5.391098754752848 2.3991328208575435 7.299195724497506 -0.41165804160190395 0.015370568918799333 -0.5961526911462959
Ni 7.803054658170069 2.468113762447581 13.395779440391312 -1.3027517465713176 0.6227805781464694 -0.7007508241743609
Ni 3.902414080992673 9.110164111470803 8.845785762094508 -0.9802647048091311 1.2783008126178048 -0.3966898503278458
Ni 7.401342115969262 5.585134928720679 9.062221010688486 0.8837565478780521 0.9755212765868748 1.3390660076213194
Ni 3.6249768009053494 6.869866663723932 9.94466451115299 2.9215954300117555 -2.2788432938393655 -1.0324449863571121
P 2.825943691920629 2.8217374237095254 0.26805070937075776 -0.3660960367013889 -0.19406069596627223 0.5520042787638558
P 6.526995449677125 4.963034360050693 5.101628576266476 -0.36803104894057265 -0.732714521565151 -0.39546060590643506
P 8.79627250688725 7.649103384571627 1.9885657590847545 0.20858974282038267 -2.3874173807960433 0.9767003844966407
P 5.34563763077589 5.736040604144193 8.219528137622952 -0.4555542287642219 1.3244616274445835 0.1591011491719518
P 7.7411213050396945 3.9197498486530042 11.462348293633026 -0.16533581722775398 -0.32194376766420685 0.35782865448627404
P 8.377632752878847 2.215932662347456 1.9009509564659264 -0.8639467122409766 1.2902124764537264 -0.1226609040670468
P 4.1189208268608795 4.451281013060072 11.54890363664283 -1.2009538019962092 0.6315238715567382 -0.10734612808684739
P 7.8320621237141905 8.81897521279486 5.90770927371086 -0.6211160459598528 -0.9373694481075019 -1.5248258970313804
Ni 1.549958766310001 9.15736159782188 7.773204081911668 0.2833579369712088 -0.7089246182344049 0.11872223113427295
Ni 6.3464416188495205 7.295878993802128 6.633269183797527 -2.604472994995592 -0.595073084928872 -1.5373847075329976
Ni 5.4795696675903605 2.820688177996822 11.526589058795318 1.0117267799731544 -0.9467719723683243 -0.09985367636454416
Ni 3.312784417254759 2.3597907493113075 9.138203113936738 -0.2424843386852985 -0.776608908955256 0.34929413465270165
Ni 5.077216435529585 4.59974463872747 3.00919306284025 0.4840441086737986 0.5713664853405515 -0.3444293503612327
Ni 5.770043593524018 7.875471183067189 8.904835082318991 0.9489512394078303 -1.4831097482395166 0.9984891982369579
Ni 1.599811865703851 4.381492245124855 1.609620920313585 1.5940194253079065 -0.376077573394133 -1.7833150957853674
Ni 0.7271217076873451 8.33057454693211 11.711563649656712 -1.2492059521343775 -0.8260671635863839 -0.24383802449971553
Ni 8.734552717043533 5.077699274264633 1.7181240694394733 -1.054644919492919 0.555699725337572 -0.14694085966033404
Ni 5.277873071383766 9.199609987138704 11.209206158742948 -0.03155283510561663 1.278011049291528 -1.796276798152358
Ni 6.878929175366398 0.34920940098035824 7.671767091966023 -0.13953042612887584 1.1328185397808685 0.45100646149253937
Ni 8.894818035638774 6.695069756275762 13.448264939427212 0.8811443070661856 0.15107519354368174 0.6506179120737118
Ni 7.05289040038852 7.876046875405132 11.998014228976968 2.591740120809956 0.9801168663773571 -0.46050951588696815
Ni 8.971134411857447 5.768381514032212 11.172621839202666 -0.4213899241776872 0.484134868615392 -0.9879649016668662
Ni 5.691368735791835 5.719271243461516 10.655534052725777 0.5157918333990408 -0.9143971555820446 -1.1950680326393934
Ni 4.953145451342469 3.9201398337851594 9.282271050043132 1.0188618483560388 -0.3377156857864829 0.5186488432318616
Ni 5.051700265454282 7.005980760206414 12.226069177437115 -3.1881902885920126 1.1805215022837863 1.2888328224973804
Ni 6.827265430716112 5.7517792898347455 12.825717744927305 0.45901750472247405 -2.7935483219321307 0.6542537090540862
Ni 3.1147369676419028 5.0643283554478815 8.518645805450022 -0.6977503467851403 -0.3675263413900122 -1.1904091937111434
Ni 7.795812077144328 3.727385039537268 3.4887457088832208 0.14213032564556813 -0.6000232298452957 0.10457062222423927
Ni 2.9032071748888213 1.5942499348904933 6.605083472639017 -0.5582147784499419 -3.058736015752216 -1.324750619439912
Ni 0.9294459942495042 2.4013520219667126 2.965161884347861 -0.3370364003312712 -0.3869908778725271 0.7031234381715955
Ni 7.834643453874647 1.1843569902747157 3.668434144131853 0.5431869375825419 0.25969118948188824 1.5185619183995398
Ni 1.9261922798766622 5.535337541488565 5.736352592249918 -0.016935342302757932 -0.2569354811136221 -0.2939082016832293
P 1.1489519114911901 4.96685992848993 9.515694793822616 -0.21257109606563387 0.057417875797836596 0.6735948325848593
P 4.585482325322935 8.807498507477149 6.586070768910419 -0.06133932233942985 1.4521580370530087 1.2276459665754147
P 3.4902833645471474 3.4353047462735424 6.942619318663528 0.2859889468361526 3.1134963993225475 -0.2672854568893784
P 1.884073885603892 6.179026572831433 0.29579629445154804 -0.918768802287179 -0.19722263863402162 0.47266800562637296
P 1.122999329482285 4.567830855412764 3.661869394407239 -1.2685468185548345 0.600355930594366 0.7848667780886741
P 5.344978370195342 1.5520943991765657 9.25404448329935 0.766425540664351 -0.7752354256464971 1.8699263053177084
P 4.770623124133509 7.287698591387156 2.5904567410848367 0.5821895440979844 -0.38947096398190345 0.7901295691495102
P 5.7880664778457644 1.6272501053590616 3.1152365200254732 -0.7832552106271801 -1.1505936043761023 1.1339063735284085
Ni 7.179756278022748 2.661193544305602 5.611472853181595 1.1882420108564955 0.06255545413471808 0.6729492285810603
Ni 0.6990947761897857 1.4299640552899373 11.628473603106913 -0.02753111554073323 0.5659214030655803 -0.33074748199876586
Ni 2.3181366230530074 0.9112346171138814 1.4511198201733324 3.5657434180904075 -0.1627199768714617 1.1897936716143316
Ni 2.866576428547093 5.874875311191473 3.185755117279437 0.9120376542109326 0.8178023524744302 -0.14045730881851937
Ni 6.15950874550309 0.5236432508412122 13.344191835695401 -0.014441372236310611 0.619216772054611 -0.4581538711705981
Ni 6.652756369436914 7.612602633273951 0.7801374007957685 -0.9483999948900506 -1.511764435861732 0.9175974076868972
Ni 8.915440820841557 0.6719740958564727 9.109609775461525 0.472567989713399 -0.4042689482266844 -0.2625230025037285
Ni 2.168753746716957 8.543654994853524 3.2763737339518895 0.4845531870997332 -1.2281614727592525 -2.6829795731429273
Ni 2.0537824156134645 6.056264824445124 11.780777653790013 0.3816607239088653 0.27363453903585777 -0.5223214069874424
Ni 0.2266240744395487 4.233112187700061 13.08030003919827 0.20660536540050223 -0.12745112636683859 -0.6532424941807524
Ni 5.419892657010313 2.546593627613686 1.31417282687289 1.0994235092601903 0.8947436430171752 -2.047963629272531
Ni 1.0658572222612472 8.492418376776552 0.6477745898702089 -0.15864323569892677 -0.5579988057843938 -0.15790944285669578
Ni 7.166923910102782 2.933022466778121 9.276509483983551 -2.6791188046359404 -1.064991809944882 -0.6731317769055117
Ni 5.046946160986103 2.8269093693907275 4.778279832228158 -1.1112994347621699 1.02652245022509 0.11632673431890288
Ni 0.31570224983998824 3.24003361938722 5.436256247448343 0.04311894267666122 0.704332370878032 0.22564387008919204
Ni 8.27661731829034 6.149675548956604 5.79283265328232 -0.023221432421785815 0.33148024639973234 -1.9013495568239966
Ni 4.046318594757971 4.686599898874626 0.249226498456034 0.43158820486692767 -0.024654051103254315 -0.07404417150060796
Ni 6.9102579809828715 4.428504024270145 7.218362020498034 -0.46331613209782785 -0.3571514259135914 -1.2334391762184242
Ni 1.4669476453226629 3.2711024349155906 8.010581532102385 -0.37368978988824675 -0.33420330175785024 -1.0825169633128389
Ni 0.008479391016290506 0.9849817341404739 6.280049435708172 0.09926463663029356 0.5155709756374863 0.02481294527862178
Ni 1.6711605741676883 8.432722795475925 5.421756228820398 0.8990399563996839 -1.8180018485342753 1.890016134089048
Ni 7.044041452032712 5.9514238214173805 3.200568981085164 0.1006517467858073 1.012939569334333 -0.19614200397533318
Ni 6.81247385177508 8.303080595115164 3.4158352028187045 -0.546720147546781 -0.008462271834740265 0.06679674590957528
Ni 8.216411042173798 7.522831769995921 7.7895658152776415 2.266385527691987 0.7035299295813948 1.5899162017728103
P 8.579710048857308 2.8697520217660717 7.5165687944807145 0.021284106189756895 -0.48721247909945126 -0.2222818955954946
P 7.822516773336675 7.837772620292178 9.99615740517395 0.5734976727509413 0.19524777429583792 -0.4657859337945591
P 0.9682959417004016 7.106169797729163 6.908576402234459 0.1879990631532246 -0.33078142056049487 1.0540461095666558
P 8.50677354378398 0.3865263354474738 13.015067597557067 0.8306997772623886 -0.7232099245088255 -1.140517708197339
P 6.443677911800238 4.773037317808757 1.2204120442785003 0.09599110808534436 -0.09430369308059242 0.18298721176093
P 4.019706752168519 9.056504014358294 13.071942286401772 0.1340372642247885 0.6003538737118371 -0.07965663259137895
P 1.3642794166026408 0.8648848841572266 4.430115962816387 0.058722453541873054 2.7301276915836405 -0.2668442555869017
P 1.8967019755974917 0.839651917570751 9.673543133134523 -0.7333668104371692 -0.6788190570982761 1.4052186921889929
