# total energy = -340873.3161127991 ev
CRYSTAL
PRIMVEC
9.22536381300012 0.00000000000000 0.00000000000000

0.00000000000000 9.22536381300012 0.00000000000000

0.00000000000000 0.00000000000000 13.50225245438947

PRIMCOORD
 96 1
Ni 8.546220160767502 0.4884903916509348 3.1742714671092056 0.24114299416605567 -0.9285775608474848 -0.26552939343022014
Ni 8.024267529667943 5.462420913565864 2.934323445725503 0.17630825707885767 0.7481573384827824 -1.3755656452092504
Ni 7.82131875220039 8.41260921735814 9.412028852945765 2.9198180263963587 0.6562504277691408 -1.7145565981637312
Ni 7.395715820263116 7.86365394651825 4.568960116038211 -0.338743612830365 -0.8802966143539097 0.12010677018662541
Ni 7.11075355892418 0.9826672975266525 5.212341597695373 1.34698500535808 -0.14828400395178978 -1.4514705240676808
Ni 7.511743220336274 1.1719717619856822 7.464072075616703 -0.3372158633319289 0.11414103952149374 0.2690664600492011
Ni 6.113242651099546 8.975448660664446 12.235295524594724 -1.148075980160571 0.40989735015705536 -0.6103606072155617
Ni 8.536847191182202 5.5616950530416736 9.97634158684535 -0.19403472782434325 0.9622988643593297 -0.015774489225437352
Ni 5.577977820087004 6.490006507264593 2.6340332424909203 -1.0371804441595684 -0.04532006409303808 -0.5647037286083952
Ni 1.5330986265689526 1.9159512228189393 3.136114440040541 -1.764726791260219 1.0284320085429772 -1.0530215249568833
Ni 0.2082810377237578 6.150688402621924 0.7444794755493234 -0.07127303651337402 -0.5272640957046985 0.05424102073175174
Ni 0.757261217045814 4.722260753331342 8.057293409410482 -0.7645504351288253 -0.44041763023309954 -0.46620168117573907
Ni 7.6390255642028055 7.21949292162294 12.044427360977517 2.036280536507648 0.15688665801913626 -1.6937386329771154
Ni 0.5578199228817365 7.016922384069755 3.7975351980039007 -0.33970032031667946 0.4485117200951437 1.3256193951981108
Ni 3.7367151423099902 1.3538313578863082 2.7133990469617304 0.7207606916373845 0.6571752535762553 -1.4256299088554931
Ni 5.6691151887220315 5.649455938538688 11.453015121018067 0.2403912036016957 1.7906093154539358 -0.35900956216825264
Ni 0.6537775440840072 4.593299393259569 4.130636330005295 0.057644132876029756 0.3271278829683076 2.078031395192189
Ni 0.6631339080145311 0.984743004373791 10.69694305336157 -1.5116901309803707 0.6024922602110785 0.23563003476762645
Ni 3.7310323182307132 8.284081449383326 2.5273788120030622 0.06127427342944931 -1.32511005966186 0.20714324018184327
Ni 2.2734801955338364 3.569643804524755 6.453252658024595 0.642690429696519 1.3675654006125932 0.6768979288161632
Ni 2.597373491961325 3.3937345682525923 9.062820235810577 0.3651151608453583 -0.14077355450735757 0.07226573944394651
Ni 9.224570383776124 8.48189169923374 6.005491324860022 0.006641930796549851 0.3536485549666554 -0.1723238185098129
Ni 8.316849941476818 3.0810685395271817 3.2614825209258234 -0.063105155990601 -1.4479841081809772 -0.08416506198469376
Ni 6.861687187995092 4.147483689313048 13.05652910413297 -0.7326623281709769 -0.35084271008674417 0.15869414354152026
P 3.5012100561155406 7.840452156649124 4.8758123205188815 -1.1058522956046697 0.07030347351125311 -2.2918435627537757
P 3.76907771839782 4.98064474166314 10.175851148701291 0.03256482130989875 0.6261078427474894 -0.16236439330425584
P 6.282933992194058 7.658389602745666 10.350637658203244 -2.7628856027409516 -1.7194077556084453 1.3290127371503757
P 2.570592260951356 6.177801746727435 1.3508331146626638 0.19036576361318827 1.279542655444706 1.5422335509848666
P 6.535773536903055 5.865707690555458 4.362793531689405 -0.6665109291548843 -0.7156056297990063 1.8485121013079908
P 5.73445844026995 1.8163357448838222 3.5236830422472267 1.323826564963746 0.9415305214637268 0.7648150016441215
P 1.051728370671891 6.171565400822255 6.090163558568495 0.10717232151314447 -0.18242105484481486 -0.367787822581515
P 2.3252160355282925 1.0214968536137898 1.017267946863886 -0.751605187822067 -1.2953356566129046 1.166294560051127
Ni 2.6666282977456297 2.9178349530682115 13.591366800803188 0.517066072125774 -0.24875834461946836 -0.8931948104728166
Ni 1.4286951848397695 1.321625612982484 6.699169489764291 -0.18887452377964245 -0.6684533975932359 0.22655943992492594
Ni 6.9026293523844275 6.266946436789208 8.512926745475779 0.1143888938662417 1.59066002191737 0.693540936689483
Ni 5.7082307310858855 4.178646968111421 9.581859497033129 0.6815750225768584 -0.19849456336790977 0.7730065363159784
Ni 6.400179140284204 4.40248196914307 7.287773528993656 -0.10091142820509717 -2.060363288488465 -0.670287108367865
Ni 7.333444614848961 1.4976824550748875 9.77910054193924 -0.6572189623299972 0.5374577484082486 0.8380410481188084
Ni 5.429929182385322 2.3047726294249196 5.972802170894909 -1.092906276966963 0.8123901803199235 0.585535834862398
Ni 4.3913469550786415 3.6871841642553833 11.8318214727207 -0.8231047385239502 -0.6061347420596723 0.4436093976975199
Ni 8.856672102189298 3.1445943944133843 10.807621587523746 -0.11237212054652904 1.0271333443362116 -0.16035096241865288
Ni 1.2739212569533591 7.584605143352717 12.59793903898097 -1.5950419530351496 0.10517431724650919 0.05262996749089
Ni 0.132871069235405 3.8555009261489017 13.0509127026728 0.8619595066076188 -0.45528143471880944 -1.17777376433532
Ni 0.18474436714996043 1.858966150842164 1.2712117676155612 -0.517601890024586 -0.6791602424877786 -1.7530989772133032
Ni 9.533767675725873 7.087893107514361 7.997991848592299 -1.7516339626320028 -0.12160546621933895 0.3884173259064085
Ni 2.6962970676140623 0.9646409367297254 9.184812756094221 -0.1081323714335686 -0.578531635630423 -0.8758473203333045
Ni 5.757789385231787 6.516261892539954 6.502886960153369 -0.03211230715351244 0.7752120286077294 -1.43394562781004
Ni 6.158852849554002 8.917513376219869 2.731005653707348 -0.06685742394418163 0.2590054762687733 -1.1010574453191877
Ni 7.625824068655005 9.040505925935648 0.596669774769157 0.03541077539912611 -0.14809477075911914 1.1773135368694498
Ni 2.2423538181905243 0.7423013671643928 12.298850900644974 0.2822076254168495 -1.8914834626631938 1.815303475766506
Ni 2.787711197162041 5.9771039580185565 3.7053692013090695 0.5962365091093539 0.7561046183543171 -0.30463458696179796
Ni 2.3832066721554592 6.044384535957138 8.96504983062847 -1.1073214239510285 0.8772863667726762 -0.5842032320939036
Ni 4.218316032301178 1.1206141619055934 11.001230606715554 1.090210989522987 0.49863486200377993 -0.03724808571818101
Ni 8.14869923613107 5.706800799702301 6.231789498016942 0.5935309372527326 0.19437745587574268 -0.6735056153051626
Ni 4.889230612115161 2.323204906227509 8.464508346291238 -0.31340899072031825 -1.0380998706500444 -0.41722165173261044
Ni 6.941726444020753 6.639974020629406 0.5421414171630172 -1.128840528969727 -0.5292695561705013 1.6734408019600275
P 4.468194235241591 4.57650923120716 6.690217196766676 -2.4074563017247894 -0.20798373380526763 0.3455025288207534
P 2.522371284551388 3.7767993478691757 3.7056662580223043 -0.3735797466729437 1.2270011339025644 0.3199951285782683
P 5.1489615035566585 8.036943179481135 0.5582913389701312 1.8577750146671554 -0.2606412120999834 1.6013121023145775
P 6.097042912328101 2.5831572063993673 11.173315929707098 0.4408338918349118 -0.8208257126817865 0.2274500700599954
P 0.09019453645823783 1.7515460151618063 4.902060325503229 -0.13721411929087338 -1.1646385125049425 -0.2925933395265477
P 0.020849322109035416 5.709872845836066 11.96823415910551 0.373654308664621 0.5101161231705021 0.9753379569314752
P 8.465166114727687 7.567722727662657 2.0915394164320777 -0.7864117539782908 0.7480370108548343 0.43708188099164724
P 5.089577837000967 3.116503161748777 0.7535793743671785 -0.28067859036683274 0.3956038163525187 -1.5013180437174274
Ni 7.774269396998584 1.7030759539401814 12.511051795432508 -0.6837038959944032 1.016592849816204 -0.17329003907782414
Ni 1.394303028723626 8.212723260660587 1.9222346180793215 0.1204045039327023 0.4959385461185395 -1.2305232881232098
Ni 5.606115179570438 -0.27403943064110486 8.579843844082017 0.6761106570281775 0.9842442582821694 0.7567864749126902
Ni 4.451136537639996 8.493349601029944 6.6675338723411475 0.46019249886718167 1.1291886563377649 0.9782214491268573
Ni 2.338528235441274 5.283218222429574 13.046011266904424 -0.9750443369504563 -0.25179687433547604 -1.721243009044971
Ni 3.2152699062175083 6.546677916873356 6.5036978696283185 -0.7201667668071274 -3.84251496009335 -1.1617228815200447
Ni 1.4901176567875385 4.870484672944559 10.634306523542318 0.2185553386735268 -1.4844045557915402 1.4964123788856938
Ni 1.738851914621084 9.205612261238926 4.250563291341945 0.4190617902651428 -1.2550122744035097 0.7633970382506723
Ni 8.939737277529899 3.1743830940107625 6.433958732246348 -0.51660610177022 0.5534978325902468 -0.6831619074480041
Ni 3.4825471452188244 7.771640168325542 12.857547233084391 0.6194926514238169 -0.12144297249954569 -0.6993732271005438
Ni 4.591445095142792 5.352454577486349 0.12473337585824565 0.9462906618565317 0.632421186560027 0.7021348490060811
Ni 0.8707018251192498 7.856172176504787 10.273215637877732 0.9724650062590543 -1.0476332640617763 0.14264300361592855
Ni 3.6720822437719804 4.103737014339134 2.027727575269158 0.008671045411436679 1.0289775966338022 -0.3223150349606965
Ni 1.3166715926406467 4.138581213279765 1.6783298381767848 -0.5516659215878306 0.34419280887039433 1.2929715272561022
Ni 4.771182857377454 4.411984093821081 4.590927552235572 -1.5505276726728587 0.58083303007009 -0.0641698498096895
Ni 7.002346309320961 3.782122382761615 5.035273655734318 0.7338447785148523 0.4624445281261519 -0.400713112554626
Ni 4.746320502030618 0.3557171112714394 4.70230813658027 -0.16135909196819306 -0.18224390583700223 -0.502566078737386
Ni 5.90445421836871 3.967044799432241 2.6427825774857028 1.9136381443833625 -0.2464309820378724 -0.31845092401959996
Ni 4.44264920297614 0.9850382160142728 0.2850397543945623 0.39334381667374835 -0.08364029982947531 -0.34598615332539123
Ni 3.070348666832182 2.157923289012696 4.756559733273457 1.628315113265983 -1.554989050878322 2.452694347626982
Ni 6.729690683244615 1.9318280738586073 1.583152682749038 0.6209131859204274 -0.39476435117035885 -0.8553782538456752
Ni 2.2509979840383854 8.149594096416282 7.6221431485127455 -0.1038525131112921 2.32890678615466 0.8498048735229559
Ni 4.3084109348307535 6.912214505336325 8.53793301649735 2.2118066640048424 0.6595267845275673 1.4988726675007282
Ni 0.0783344088018768 2.3273747706493166 8.563506647390472 1.1133681443657406 -0.196891480546848 0.7283495597282359
P 3.6220992228928854 1.365944260509832 6.827454630672084 0.20099033320656998 -0.13887993702907048 1.1542088325311863
P 7.1698235631118585 8.34114032427022 6.928019398538625 -0.5087909766011753 -0.7696016243994874 -0.08535548274836913
P 8.230242226450436 3.882844904348539 1.2860230891403648 -0.4293086648041316 0.02866882868960224 0.4864470616883364
P 3.307744952598469 8.280778769155434 10.537373781390082 -0.48200959474227306 0.23004199915688772 0.0024253216120409845
P 9.191257595220494 9.393080878308709 12.71929685423758 1.0510204353664545 -0.5749138363721776 -0.6100106800753107
P 0.5825245245081905 0.175592806295021 8.729030891672307 0.36608549517842753 -0.521386810988315 -1.8444513009750556
P 7.897815468540267 4.016299016573896 8.62022971903632 1.2419690680663062 -0.7792342623932451 0.7847654766241194
P 2.0895264420585415 2.6101875222309934 11.428185054444409 0.024156542641545493 1.9408936376652057 -1.5437376463342187
