# total energy = -381172.09221128415 ev
CRYSTAL
PRIMVEC
9.17716734733610 0.00000000000000 0.00000000000000
0.00000000000000 9.17716734733610 0.00000000000000
0.00000000000000 0.00000000000000 13.43171205511156
PRIMCOORD
 96 1
Ni 8.084726537520305 1.8531729371687147 12.509074714309103 -0.17833505770089933 0.7474114614556934 1.2616701460396595
Ni 4.5728540167780904 8.713867246109794 9.603499097155707 -0.8843556149146319 0.37699108634733786 0.7492158616542839
Ni 3.96647268324953 7.925401734926446 7.288906444412027 -0.5050605630244657 2.26430396257261 -1.4563198817401821
Ni 2.6957929129627645 2.948834948670415 0.9578209577052723 0.728659634769487 0.8001234471374284 -2.781200084779423
Ni 0.6316937965499525 6.639653055829178 6.671665768742499 -0.8799148055344589 0.689156177358226 -1.992288190087098
Ni 0.13951863999043512 6.114966866168515 13.269403030356644 -0.9756894267336229 -0.47277136397345665 0.2630912163023727
Ni 5.286901877812622 2.0516934215711333 2.6505338766772883 1.68283072781536 -0.6720930512283522 -2.0370256422037887
Ni 6.78892886016025 1.1586999741200534 9.56200912350633 2.805729951599987 -0.7429863358048043 -0.9983367318194936
Ni 8.720759298799615 8.309484543414335 2.809283270877472 0.9146619792076569 1.6853468093689943 1.3275109557938685
Ni 4.331999259328873 4.41840229005413 1.9095464408478557 0.6386332289080099 -1.464465136555136 0.8975304617336931
Ni 6.1720488471681 7.923474529780157 8.156098285821251 0.5531946995275312 -1.1896016102081834 -1.4979961784330458
Ni 4.558959785390088 8.386508509094323 12.116236888156648 -1.1277822629085417 -0.8421442716539045 0.01672168363005507
Ni 2.1298645331715313 6.000481703311627 10.31325846788138 -0.4083004379835807 -0.5998334824319927 -1.1497880777556715
Ni 4.56621892477444 8.52445968889911 1.7911995259645015 -1.5247467070540128 0.9601381092625851 -1.8789997283738866
Ni 0.9896749056232085 9.14203716661087 6.939574815578659 0.07427094279943337 1.4344940441143423 -0.5705411612257787
Ni 7.441223562007289 5.992332378693037 9.541566065487892 -0.04146675178521891 -0.11816533018953841 -0.9548583489208845
Ni 4.897652324099207 3.601964772747511 12.95074975430198 -0.46834443855035474 0.7488559072117038 -0.33059295869877253
Ni 1.9265443902381183 7.716006307198542 8.468506499485208 -0.09294203684637542 -1.9268531004117397 -1.1835546326831554
Ni 1.909410618770879 3.196040305935021 9.78737924646349 0.9317649574365308 0.2517811906061922 0.8429158597126064
Ni 8.049357734502234 6.5833144253860185 4.346837821238556 -0.3586236395837437 0.21242685717828574 -0.3557892554587421
Ni 1.5607241448031506 2.8824932058012815 2.8688256504471528 -1.8746082841744103 0.38599457539752874 0.4030756992495316
Ni 8.378001274948565 3.887246197402355 3.1911598883312298 1.0904819837961865 0.8787678364142092 -0.7031373221286665
Ni 6.793756050193334 1.7290976344172029 4.389496966010015 0.6955793072757505 0.007409147979877562 -0.5686675983521496
Ni 1.6560382050381508 4.514193562992021 12.045814976677802 0.47752893326310014 -0.6418735902221784 -0.6137989434731492
P 3.1292029960282703 3.9351234795365735 5.732238607583445 -0.23342402825524317 -0.00689929822299457 0.3695616266524861
Ni 4.381996467124008 1.3361588594237503 0.23974890878194294 -1.2259094435002822 -1.1067118153914874 0.5936486937775196
P 5.324858642027138 6.680922777461838 9.921656806172756 -0.2069460365693726 1.2122538003900605 0.2466631526533365
Ni 0.4472960550028815 3.7184505580895926 0.6088417320986552 0.47531984142692335 0.9168008799275308 0.6337512182253602
P 7.389198200224868 6.204875574826543 6.4740584124927265 0.5571338866809373 0.41793050487417704 0.9402886786368257
P 2.3878714164227146 8.263231619903417 5.419776248632044 0.4798688942501865 1.405477088056702 1.0430541293315263
P 3.541670783170778 6.582185633800335 1.9530783342355622 -1.140901831009635 0.7859615538147495 0.17204485381681336
Ni 1.1439247346651766 2.0515924727301376 11.861799923009778 1.5272483904299439 0.25887152179407025 1.2066567659182574
Ni 3.2878762197393385 1.2575288894551888 11.132041669166052 0.8289853656744431 1.0409139430600718 -0.23434345474571897
Ni 5.637827580616991 6.259296177290779 2.783319228973287 0.943968184370942 -1.472418844184574 0.004915949244378631
Ni 7.040309828575148 0.3273844330840887 1.179032906130131 -2.027738560474908 -0.9828651185464556 0.18967182286995724
Ni 6.213869198842556 0.31577990495322433 6.3087546853616905 0.39805073523111445 0.12131056068673947 0.2596539084860496
Ni 7.434184674639654 6.99226735742839 1.5024179296773035 -0.7916912572096753 -0.7985424758035538 -1.4593190735778223
Ni 2.6274964334452533 0.847744506049704 8.616913226066977 0.17182425316557506 0.7558246252200532 0.1952097219690509
Ni 1.095588594162794 4.711264054951042 4.848700395666749 -0.10078364437798126 0.5471713761515867 0.9442687463304964
Ni 2.166609911294094 8.358490617134237 10.485479026054117 1.6048972485626747 0.7834776110506313 2.437461332727312
Ni 8.918866810670687 1.9436414530359043 10.172600941421162 -0.49224078555197814 1.618957840420799 -0.8147905622312999
Ni 1.1681341021695026 7.025552943454997 4.213595446007866 0.20872549706729857 0.9058510657842463 -0.45419488652285
Ni 7.390409586316821 4.459864732201418 5.118247566877254 -1.0031351816494014 1.0174230590269835 0.3924660420544854
Ni 5.8814354882751925 7.228689543041145 5.351113600136739 -0.39536238976567395 -0.06613365840427965 0.28230095646160414
Ni 6.987229092545951 8.266388565476385 10.309832631304667 0.3916628294268997 -0.8454815635572535 1.0764861837377266
Ni 8.955823263642605 4.396239430871815 10.499139239674356 0.816449952211594 0.30976522332014395 0.4713654847648656
Ni 8.321625935835952 8.950702404253898 5.458285478321829 0.34407428101465903 -0.19055988190186537 -1.247074764723988
Ni 5.028849108724622 2.5363671615279078 6.064565863009394 -1.178639454769725 0.29141937382310457 -0.7905851686296901
Ni 2.260758471273958 -0.03019379834191929 12.729784671679191 -0.2095634195875617 2.713642035223791 1.373455540844783
Ni 4.952586847935787 2.0219135134772976 9.411681615795425 -2.9599879137470246 2.463336914942493 0.6495776437346554
Ni 3.9496968213094585 7.504114689947829 3.906842202873162 -1.2572645607727961 -0.7757303630050447 -1.141892991278311
Ni 3.151696233235664 6.2570569484541405 5.556376549400958 -0.6835997663163711 -0.8306460412063179 1.6855139310744778
Ni 4.649308998081555 4.951210272831295 4.4036004368139 -0.6130656648515507 -0.4782822664893569 1.241422451534217
Ni 5.8186820178451 4.368285779083272 7.404204704297299 0.9422203484418998 0.7374327529764267 -0.6898087233405604
Ni 2.2706147490221182 5.197865000054104 3.0508657776985975 1.1891737786421455 0.05808327729597739 -0.5191268113095447
Ni 3.9880573808879585 5.962644242272835 11.62674513533415 0.692073351005021 -0.6970561489315931 0.1323516489922495
P 0.5806770054607566 5.831722772668318 8.85584995553727 -1.093482461185407 0.07378346164005357 -0.28648105598122275
Ni 5.776769894497012 1.130471007310612 11.84000047965505 0.774551255095279 0.31225276562868803 -0.9027305178773937
P 8.154537249652758 4.167691254856752 12.633694223085259 -0.12414314503952814 1.4480085336610093 -0.7765775414966885
Ni 2.8503180570256306 1.5272274839271878 6.211925474795013 -0.5684981626538208 -0.20534783884431732 0.12605887400500224
P 3.2032627366499202 1.4412098942311877 2.2234991717790513 0.1988861423793736 -2.561323970411944 0.06078884915259853
P 8.234984298759247 1.6334348418223983 7.838035101628043 0.4174275970958295 -1.2588874410881996 0.8885066609685278
P 4.6943413583331575 1.0431502598490265 7.574384260448444 -1.3229557323230183 -0.8617666738705223 0.46774614284472343
Ni 0.4483486760994494 2.5939997725692905 4.982667767119138 -0.3603830454770116 -0.8945693222228399 1.8259820385262746
Ni 6.783651988926366 7.943673475146731 12.699723942264038 0.7508649672219327 -0.19634717800760376 0.46100908123120604
Ni 0.22260412471386795 9.05674457313657 9.673948540136642 -0.04141507261167706 -0.014507706697871789 0.24298673224301376
Ni 4.665644355988189 0.2710522266580825 4.51966407245727 0.035501278230403374 1.977602563050465 0.6431802248487439
Ni 6.850241515314307 3.317114674958741 11.070860247505289 -0.547629803845244 -1.2646762798558349 1.6888874755324013
Ni 0.9189005909176123 2.6682338793708418 7.641676757856413 1.0422655719919598 -1.234782834730512 0.2244544777667812
Ni 9.076337825457166 6.867255983605824 10.96352776889134 0.4398509590963522 0.9017126181358406 0.263487680409843
Ni 7.425512251481357 3.497042218283159 8.989415367059147 0.6915581019314992 -0.5845313048572836 -2.859875327294139
Ni 8.520797999121163 7.809907083659598 8.094433227440446 -1.2159353630067058 -0.7640642395210261 -0.16718058374597658
Ni 6.37583702563704 5.481604660591918 11.903707457774185 0.9285536495880847 0.8837087253592523 0.6324052457204271
Ni 4.901414962718151 6.138093327923974 0.46883761995470274 1.310180177824905 1.1556854170767128 -1.9293984925414127
Ni 3.485947022940957 3.4512389759730415 7.936731865753148 1.0185314615998136 -1.3116109967341605 0.04477601866410998
Ni 4.247560142419356 5.828226271902908 7.937254964292855 -0.09558487378586118 0.22810441581454266 1.1369148213374292
Ni 2.104994409617049 7.106009169728851 12.59852915318265 0.06378726965929014 -2.302837342761118 -0.5485875397728229
Ni 8.935064511066873 8.609302601172612 0.5426009380705182 1.7009775739277155 -1.23982502514011 -2.271035367759173
Ni 8.920665535473889 4.354877937565523 6.807863191864164 -0.38532814545812344 1.2656833809641106 1.104601453916704
Ni 5.5133484825014945 4.593043784977301 9.772309419936251 -1.0162717190313595 0.17173426455493004 -1.1888256512741073
Ni 8.167834965162147 2.239384848484885 1.654235809368003 -0.6692717797294732 0.01168900630215406 0.7826301754486714
Ni 7.1488206554785405 2.750048326414461 6.453158331539599 1.8534501620395563 -1.6546676351175826 1.2388963426782535
Ni 6.269280935382025 8.31500919816703 3.0519404239968377 2.171968448961982 1.6282248675450215 2.8666458132487533
Ni 2.016361327222515 8.478996001781434 1.8839586628055651 0.20901371773167876 -0.35693956701310137 -0.11228778836283887
Ni 2.0235837579374145 0.8037895452465501 3.9687486207556226 -0.9205474914541565 -1.4492118099404911 0.4793428465433874
Ni 2.5125065263833863 5.2074459627813665 0.5515514293999229 -0.30189713342597685 1.3159566752973657 0.7283631865749908
Ni 0.9187445790724368 1.384825377951211 0.8232442223399621 1.0246555722196806 -0.582228624866036 -0.10243454971784295
Ni 2.1137035414447993 5.1268429018297 7.381128716962338 -0.9410849492858759 -0.7704074081302346 0.6637320808581666
P 8.812962299298466 1.302983399405502 3.572284895777935 0.02203743941601366 -1.106102721052579 -0.49644453922068044
Ni 0.23894407120418348 6.0416045902664735 2.2298387589936035 0.1017650344546441 -0.6020415458269051 -0.20930425238890404
P 4.033328347491007 3.7461839578614167 10.909625676383131 -2.4009285279086003 -1.4410837815167181 0.6261579792591345
Ni 3.6681229722693782 2.5661378924543796 4.059479603609402 -0.8687438765193038 1.2608103691425254 0.9983300469512741
P 6.224450472812415 4.039550466963308 3.416745674721427 -0.2111269074199396 -0.9756287486990165 -2.1827323723467056
P 8.560067098268627 9.210296937458926 11.720390786542508 0.2434132782574711 -2.5203452140067366 -0.6638801764002566
P 6.3382106394476025 2.1603327288176124 0.381913326123211 -0.7099204064887709 1.018916355743058 0.05543298415732389
Ni 6.7420610664359915 4.490846849219842 0.9444883689599027 0.47131920490796253 -0.3831293380345918 0.5669683562728558
