# total energy = -340889.239829188 ev
CRYSTAL
PRIMVEC
9.09242765227859 0.00000000000000 0.00000000000000

0.00000000000000 9.09242765227859 0.00000000000000

0.00000000000000 0.00000000000000 13.30768694578733

PRIMCOORD
 96 1
Ni 6.351578926727481 2.27364334598114 11.409571818226963 1.801189147852311 0.5809772689574381 -0.3148956025681738
Ni 5.0660005924612745 0.543561686565072 5.838148635890006 -1.3484145387157551 -1.429124809382629 0.31571989824168206
Ni 3.059129071413797 2.159187867717168 4.674006036534042 -0.6464776646530931 -2.0526438083570198 -0.25066558894451024
Ni 3.481026803136594 4.65010386293535 4.487657642708789 -0.5408348924105976 0.784562616584694 0.5820103382076428
Ni 3.87468345482381 2.867160648106898 2.435719504405561 0.21525404221443575 0.5000271143656162 0.3641736228676954
Ni 5.394719126436281 4.716196718949078 2.5706456741029227 -0.06686410881240097 0.3559453214206322 -0.046683777209784116
Ni 5.463266937894185 2.7280101365600418 0.4398243619218157 0.9119651491017843 2.0067778990628407 0.5465237152652588
Ni 5.782165650092493 7.993280371667742 12.108331241758979 0.20648940864792828 -0.2532089241916542 0.7446714368167111
Ni 1.978312206046911 6.830140667072862 0.3398422098653897 0.6114034466577792 -0.6983514707042489 -2.3474827493846346
Ni 0.6248752663326842 -0.050276578253942925 0.40987845171666853 0.3079482247160632 2.061793850287404 -1.058911408078757
Ni 8.295621773259226 0.25453887287961496 7.022945593716295 -0.7212229759857838 -1.0663737778940732 -1.6527783885146696
Ni 9.374656522822193 2.410275255090825 1.0965294894523618 0.002351530951312079 0.7453967450185098 0.3043160272801146
Ni 7.034993060247893 1.1062665701381649 4.63731627279947 0.7367470397633118 -0.7594961605343693 -0.06417602045727656
Ni 1.3592906445844481 7.713506375307525 2.2691071338659596 -1.1048505938130326 -0.09891882325510061 2.190335895725576
Ni 7.919477137073792 4.260047812566257 3.65138980004924 0.1835076030407743 -2.557095534152893 0.5105840639458562
Ni 7.781935985207006 4.160849427766453 12.595073439190005 0.8522888162870741 -1.6406996029732648 -0.40012690103385284
Ni 8.326517842145545 7.38809748496837 8.907300290215336 1.4572637337106902 -0.7411567387952332 -0.6772805089665626
Ni 7.256739183849875 0.9363745609736973 0.4193809477711392 -0.9209791796749365 -0.5790574262269059 0.7802871291377916
Ni 1.907809522661239 6.917955332553752 9.014068120968012 0.45150396995424824 0.4459357318378514 0.5840394528225297
Ni 0.5227063854454285 4.997316394589807 1.3146540991528075 -1.0356246696366744 -0.09712367902789079 -0.5003035079554545
Ni 6.518088552835531 2.1034603791344 6.853099046689682 1.219996934670589 1.486039520291802 0.2522157070404495
Ni 3.9120351472855512 4.468064370536002 13.146078186964711 -0.4787319524322659 0.39239070873185966 0.7182646646884082
Ni 6.337949377798526 5.964941629125092 4.8102633376277995 0.14221517204989056 -0.3431803084454799 -0.21940277427548666
Ni 5.5997169984524495 3.1667743214270767 9.011166727330101 -0.3450448724580445 -0.29635640611340575 0.12627073290549223
P 0.3460587025956946 5.823445271264913 12.163412258741449 1.4474454620686878 0.23464195982274427 1.7488700267336204
P 4.178616031240222 6.490156615337365 12.47568986518254 0.5559771473686748 0.3427715030428355 0.3801049493859712
P 2.7029423137467457 8.875500434028458 0.908338969801221 -0.17466146550405404 0.3995250057837958 1.5201362048651947
P 6.739107282231831 8.009828589846995 5.819490974514277 0.03965206717398332 0.028869888956814797 -0.5465756515491167
P 5.190976009424914 0.9510588315008909 12.696824068408993 -0.26142539856417557 -0.25405121758729154 -1.5574508821552533
P 4.317830189780076 6.3246380638345565 7.767350822140336 -0.39753394349569604 -0.3783108336000259 0.8684962792848719
P 4.888125431889454 1.2838598654552844 3.742999644798273 0.9003728162784944 -0.2182763739805273 -0.7413935373963876
P 0.6230531438474521 5.7226375267850385 3.3621605882579213 -0.2500084149764855 0.8044578128467241 0.22805942150922015
Ni 0.8347575904400023 0.35721602046809053 4.261932672801729 0.14090879453364122 0.47705970693616545 1.6543452187811571
Ni 1.744791388740461 7.141765437214355 4.735726344128867 1.0258328803572332 -1.033542076076033 -0.2843251859804845
Ni 6.105101400132331 5.747050694813222 9.08847145578165 0.9293931147702446 -0.6927649777554069 -0.4523619470791694
Ni 8.858433947477659 2.3780971539169924 10.360859405370583 -0.583736319759814 2.1254643918631717 -0.1615580953528766
Ni 2.403055867599437 5.678766563754878 6.85855541247505 0.1492995897004977 -0.6584566913918402 -0.6072233471381607
Ni 0.33499049051349467 0.27085614339856345 9.595999851882778 2.199039079926529 -0.1546081463976047 -0.9299854969386048
Ni 1.6775892565630683 1.3854404662786954 11.672757589726615 -0.23491861052289864 -0.10278010598271976 -0.9711938528561144
Ni 4.300863719932556 7.258739517915499 1.4643381880406883 0.5976483018552159 -0.06123853509550744 -0.9340293279906753
Ni 5.7963952992411345 7.876124442415179 8.02166056584516 0.8214327501381661 1.246015727331854 -1.2560106337610368
Ni 5.216516638471904 3.22906654271612 4.685609792600174 2.3053565096385458 -0.6103495514719681 0.08438411997403532
Ni 0.9831460083990128 7.798620589799824 6.896828167849734 -0.19212182707234654 -0.26576079271473585 0.15690465574126525
Ni 4.978331405821522 4.509716781238835 6.680179259144066 0.35731366252306845 0.48624060210448516 0.4902569223527298
Ni 0.4845954752815073 7.701777143740912 11.167916915215478 0.9249916432684393 -0.053697232413139784 0.7780656960064407
Ni 4.9394340006727075 0.5745123100168166 10.398041069436745 -0.17874309177259537 -0.7626966697495381 -0.431458878377915
Ni 8.539571604989634 7.483404310767778 4.342857096669302 -1.1640492156603757 0.026166631093038805 1.0686533179568691
Ni 7.57070070787712 6.1561735657987375 6.968477406352113 -0.763202148631047 0.23059401500561577 0.4518659812793573
Ni 2.7948031094967387 5.466767522509027 2.2422253717522453 -0.49412591838983283 -0.2589039176939025 0.2415425435973195
Ni 2.4765499596559732 6.16458406130193 11.269561163031886 -0.5081230039998733 -1.030287316584161 -0.1547618983666496
Ni 1.4103355329681422 3.6026289294713862 3.527880991652806 -0.43378495540793033 0.25442968397263277 -0.03387582681183843
Ni 2.0010432749744553 1.3172017973582066 2.468283124508404 -0.05673679057041197 -0.13038398374291738 -1.0776678627506535
Ni 1.5995944128588777 3.402295472799151 8.125819779127712 -0.5416928695355188 0.5942966117741636 0.328228572231654
Ni 3.7305775702507487 2.376042265285943 6.997834127250657 0.3341544507977858 0.21750350037024477 -0.1592980956741063
Ni 4.316857300029977 7.007352080431999 5.662753889559559 -0.38094801411255685 1.051167245356964 0.38053278095200915
Ni 8.461067585341468 7.224733838799892 0.43354876841229917 -0.819957194033904 -1.0807089635698228 -0.36227126363865997
P 0.49117657435741 5.718364085826661 7.8731739496683835 -0.8724678623381104 -0.0672034944296907 0.004538511300301861
P 8.907796736760712 1.8812778190090091 8.165077244408339 -0.008649962365514133 0.8194949096855046 -0.11442180398670616
P 2.3484012854700484 3.460159681861108 10.420025650060708 -1.4552382186402293 0.5952692601000781 -0.20764151997450045
P 4.196482651417272 6.465152439517065 3.5838003304573225 0.7936018439688268 -0.11349003620105616 -0.5376804059420159
P 7.02139078860165 4.191236320708795 10.39306387458437 1.5696139998803484 -1.2239916576522791 -1.0829005719045026
P 6.717458212185239 7.739601642436346 10.111645967319312 -1.7365539283704285 0.21608348009426656 0.8601219391782476
P 2.5613277543281434 9.035136184892817 5.578116118271982 0.9544623990340464 -0.8452609629060153 0.2629310365754246
P 7.136128132120324 4.203856610177367 1.2602222814989097 -0.5620837744870448 0.2873997111407502 2.058180679014849
Ni 3.180122005101331 1.9010083868381178 0.17828341056975994 -1.0881872742247387 -0.9363870295895744 0.5993966520048902
Ni 1.5405754654954011 1.1596482124076102 6.930922952755537 0.046592503047558465 1.0684807969347467 0.5955374261598002
Ni 7.178016945940003 0.517691911640012 9.099556943476236 -1.398107277955192 1.6114211657241215 0.24668526414052355
Ni 3.2001889927505673 1.808638415144148 9.223664033606843 -0.6065234928576586 -0.8812774902099403 0.3385644069400234
Ni 6.7000098436764555 2.2519851835069757 2.54815555450601 0.17971239766440017 0.5614664526180201 -0.4546535713268235
Ni 4.447042677991809 7.1585409660828825 10.023549436583721 -0.940819097218999 0.617525243284801 0.5683192138737954
Ni 7.563517690096016 6.080124501594746 11.321141595399514 -1.3602017611586703 1.6898441830187154 -0.8812630920322372
Ni 8.055772626363348 3.9468955145928333 8.340273775817737 -0.2692356386372137 -0.2815260259687926 -0.6421237585597716
Ni 3.3085889142522413 8.645589310467702 12.139697389150719 0.6437785205543751 -0.46554913519340474 0.2572046756146086
Ni 0.4296453892560612 5.016401400061373 10.048115357395098 0.48792030379975326 -0.48554126204461545 0.24467131903428832
Ni 8.891393997422597 2.5487620194249967 5.66754378040397 0.20748571112292652 0.6133790823269114 -0.1006005818328977
Ni 4.0200622792568135 2.723500292484817 11.479290734356011 -0.1012145612678128 -0.061647597608468024 -0.7002677138903552
Ni 1.161375773646104 3.8379500474368977 12.444630132599944 1.0945805793455923 -0.6746716105888059 -0.759001737396454
Ni 3.4188709682611162 8.380708710468811 7.756890893462637 -0.36593302876096334 1.097202847459788 -0.3309405718461784
Ni 5.637214169755326 8.164745370801997 3.4579893193999065 2.0821680430683815 0.11799718004279033 0.6624825247217817
Ni 3.344003919641356 8.566039661648867 3.4901801499723377 -0.3580019468393447 0.6524243691548312 0.37255207673937774
Ni 3.7259404321895295 4.818204663868327 9.284972454232703 -0.70965481153221 -0.49271695385744824 -0.24581263172758314
Ni 5.2429846951311365 4.803393099355139 11.251223555106657 -0.6240368191510737 0.5554863237751853 0.20805341070093847
Ni 8.339720046978664 9.085471863925973 2.6030101700419603 -0.746024865520812 0.4000888487070658 -1.1423938421741293
Ni 4.790663700755714 0.621737469577926 1.5103822412603223 0.4179965822254221 -0.7343546282717353 0.9762255017427509
Ni 6.185260241598424 5.943092525671936 0.12311692476812364 -0.2670106059614369 0.05935725891239455 0.8599399050744286
Ni 7.782690656695399 0.12198764526380322 11.538962518019087 0.19661354429511302 -0.3410095260464062 -0.7022531197515002
Ni -0.0016039042235275402 5.304404043373362 5.465932837658007 1.4230503210537748 -0.5862498302102872 0.35404527618444187
Ni 7.456981716246401 6.142271244042653 2.6232781003405163 -0.05254383553498692 1.6803951217906736 -2.194828641389607
P 8.8995499049538 2.0796473113259046 3.3087571241623053 -0.8006854902884856 -0.5578445395947166 0.556139641088468
P 2.3677136016308906 3.6947715904760807 1.073652032440924 -1.379246436494947 -0.7358119295435521 0.7801578026487789
P 5.138512702340142 1.130907048855623 8.164998140288471 -0.0767883099046484 -0.8834423590717431 0.6291381449333809
P 8.684023001810395 1.8523820841883145 12.4200105664659 0.6611172689431388 0.4699752892855584 0.38637149912097324
P 6.687916915007001 8.0679292020258 1.4507240962386032 -0.5945922886377115 -0.7912904222268308 -0.09566432087354491
P 2.198057995583269 3.599946663337936 5.97178459011504 -1.07831629496793 0.5055948382613809 0.08176313741142048
P 7.141601773518076 4.130407980258685 6.040386046895612 -0.22129047821650275 0.11190469399180729 -0.7498002734028442
P 2.4804960732217953 8.827119626923073 10.176068544388245 -0.26941278764502635 -0.09097025783198527 -1.166482250581901
