# total energy = -381174.8088640101 ev
CRYSTAL
PRIMVEC
9.18423771170848 0.00000000000000 0.00000000000000
0.00000000000000 9.18423771170848 0.00000000000000
0.00000000000000 0.00000000000000 13.44206024805953
PRIMCOORD
 96 1
Ni 3.0937196534686553 8.26903759739516 6.926075194990068 1.3480139608432269 1.0110750053217685 -0.5122336837341372
Ni 2.463763605390815 3.6720694699104297 3.5476285596186146 1.1629888927166616 0.3535104867268944 1.271622629266681
Ni 8.598090465709268 3.965175231866899 2.568831284678338 0.17066777096362865 0.8732947291147798 1.0581112807749646
Ni 0.8317557925164041 6.878277666728175 10.16129731712575 1.2899905902509075 -0.538064271643996 -0.11533608827085945
Ni 4.960103701903382 0.8691705400584943 8.31119875898059 -0.7309371179497541 -0.022306376806684163 -0.6825988358556825
Ni 1.5103754424712432 0.7975665492545392 0.5406494391072156 0.22249606848882972 -1.3428038773971969 -0.9676153914762368
Ni 4.7579769986027 3.0193916177628926 2.558978434473823 0.2227135838162745 0.6104212852501681 -0.6796459238749456
Ni 7.111327698364617 3.2209672668015776 4.733568050067521 -0.48693505706834844 -1.7145334582352796 -0.404529915197555
Ni 6.781723775788513 2.414903460827037 7.934122430157171 0.38452416149958935 0.6110051827780961 -0.7752989318945809
Ni 0.1289935369196844 2.616010713743024 8.6503956178343 0.2647878872785053 1.8490013822395834 -0.25780554242340115
Ni 7.266100472084314 4.928225212846827 8.56218928054013 -0.05501749388646009 -1.0793357373713799 -1.4504600805252954
Ni 7.758816456211677 5.992797757362094 1.4100183587000288 0.9387285332385574 0.24658216290375595 0.9309429757558676
Ni 6.998894260441727 3.2987761285956245 1.0030960126230564 -0.6658756095637306 -0.5224774729493324 0.31933126974202425
Ni 8.493031970659445 8.852080559301614 10.845941827011762 0.5439502981111277 0.15044013106284412 0.21338562154712928
Ni 4.775133154626222 6.661006155460261 5.693317216018084 0.49805662090280683 -0.7990944916522819 0.03249334464201501
Ni 3.550185451394283 3.412587202173508 6.743007621764339 0.9063058939334778 -0.6450033941004117 -0.06172987290962917
Ni 3.582789495229135 3.48040361335 9.53382193165067 1.3240690199918552 -0.6563000500601536 -2.453207282707659
Ni 1.6477900069380194 2.6969881375435567 10.579600770560512 0.5344608705634537 -1.871422173136945 -0.7763176029670824
Ni 8.387808159331021 3.62358587909235 6.579041426106984 -0.015837224142572725 1.288274636001065 0.12510808005595875
Ni 1.4051791838559209 4.893720031808083 11.380249549987155 -1.78838685388132 1.0636031571274716 0.3770615345739571
Ni 3.408794112003425 7.199027984161519 1.8741456477149618 0.8993104364522512 -0.6368514544172387 -0.03715424045279407
Ni 2.841272511809901 5.688165777092177 5.151629039627004 -0.709374818397946 -0.7319074522828234 -0.3472691338028729
Ni 4.8885676744584075 2.9752338029014935 12.78959562248755 2.3209852173147385 -1.3134778747395701 1.0289588275807249
Ni 9.03800626729957 6.32613966468208 12.455681537158853 0.5507081856602516 1.8574024618190847 0.7431881674029652
P 4.0707755969410195 5.175868998188503 2.5987801653941323 -0.981532258667645 -1.0185985673923232 0.8000493993663835
Ni 0.23648034441737645 2.29978822549576 4.275973509328568 0.7986972562138631 1.3023514258091056 -1.0041574522663288
P 4.411492447134073 0.07916261843102061 2.151388394316063 -0.5328919834144371 -0.03154743578897792 0.7749844859779557
Ni 6.056958841934003 7.495853362386471 0.8518582519940728 -0.6574426483050291 0.2173098963021999 -0.5010912939640725
P 7.034152548971867 2.590616296502639 12.265396071524728 -2.2191762169960363 0.41402962715787406 -0.3783344877491097
P 7.976795153782488 1.854077169916783 2.386705095816855 0.25321612328050586 -0.9543837232773112 0.4523717172711822
P 5.008715872049262 8.36409445758973 11.565723393490275 -0.10606854692600443 -1.1456390885843044 0.06068394814361807
Ni 4.576165829094325 6.247641985060537 12.121068531341193 0.2332587063219725 -0.2600344317539199 1.0416348803864963
Ni 7.246234965939304 5.393526247439815 4.61031741698162 0.6150477282785859 0.8137271539637922 -0.10840979346467135
Ni 2.5587745443968837 6.123314959316201 7.585999410682872 0.1705872954346804 -0.014428773830820314 0.9383899189522161
Ni 3.877658630823997 0.9698463168778971 5.772974864861132 0.8157143595971501 0.6399303504528786 -0.5105472971706498
Ni 3.5344987734027544 1.8258080862763113 0.9407469781493493 0.41030461289780307 -0.6563185620029148 0.23052639499247396
Ni 3.3464974276846076 3.9825334411198203 11.722753652836621 0.7570656967160059 0.22794552163917517 0.6397082071397435
Ni 7.139302886398689 8.408968642991725 2.897073184803538 0.4063060332613712 -0.033792523069412765 -0.04834213874881352
Ni 8.634487599714202 1.8418253968250387 -0.005243281302906197 0.6332202854225546 -0.526139495181952 1.1621908222953985
Ni 7.192782702525547 8.721581725822906 7.407018823233623 0.8590469609465141 1.1911892664102774 -0.24528015626288083
Ni 1.3173043975427199 2.8588878797184214 1.7532746506171206 -0.07050761910225921 -0.9826614871760819 -0.34145715510678615
Ni 3.2320067205169276 4.258712652995267 0.6962074651502594 -1.35594607120611 -0.8240244221247421 -0.21714817391335506
Ni 6.089471043391856 1.0273396448796361 1.206514019744353 0.32277423398530214 -0.030729310763056756 0.7095018308941134
Ni 6.421609815573148 8.836660224203383 9.80449060090614 -0.1607829077497489 -1.2004928031993907 -0.6209417251655176
Ni 9.020684794997448 1.2627408413672676 6.578544558847415 0.9940663865789139 1.4515183465864807 1.9570926160225715
Ni 2.688051874261497 1.3803725578283335 3.3463201718969984 0.8237277168199298 -1.1790060940805245 -0.5594152265159462
Ni 5.344647734400637 4.923991279267146 0.7708991966689404 0.19389768802584673 1.499256018982076 1.1749872027291184
Ni 0.6196632728874969 4.775050496486922 4.662337857737954 -0.9991466293152985 0.618453154415709 0.0740238597856338
Ni 0.8610755529497509 7.373537684698426 1.2722603037432743 -0.2343892203819899 -0.44988288941105753 -0.6927827183672197
Ni 2.9941533325634073 0.999410378034063 11.986862939526782 -0.5675391411746613 0.6615325021036865 -0.30528147651717746
Ni 8.158762455331761 8.743633080540507 0.7143123529281872 0.11602874346250984 -0.6949750980328483 -0.7941641442302001
Ni 7.134527082794712 4.977195568263005 12.897858498070887 0.04647937450846189 0.12171370966242909 -2.6364971133106723
Ni 6.849035053891507 6.433071744222696 6.636802015425791 2.050159608482585 -1.3849666268081762 0.0566714845501153
Ni 3.241696091290384 5.673764892378642 10.134170752655153 -0.4986613443663412 2.070864959350737 0.23275374166109591
Ni 0.2802358896675178 4.267988733072224 0.14935774717180195 0.2975949065061972 0.5754409125202412 0.6357039710763568
Ni 5.125172006084733 1.1589865080708386 10.91921367538203 -0.6979501215007722 2.351645879623389 -0.4762842622227217
P 1.783128933684605 2.7899601757802346 12.814127639807907 -0.24363130780554818 -0.22394025713452398 0.6654508633214862
Ni 5.819169743644382 6.263962375453364 3.045944167377242 -0.5058532341290901 0.6686621711699322 0.1114876610590467
P 1.59480613964696 7.290861176923402 5.824444251355469 -0.9517686542519673 -0.6211453565358915 -1.0058366397409646
Ni 0.46158692886712455 0.06196697018538869 2.4675318981191077 -0.7106392869326664 1.7390818369986047 2.4201117857052705
P 0.9938630984632881 4.543874049341272 9.225312366223829 0.024247559693455017 1.365755601097364 0.19011250995180162
P 8.670021415375341 0.6999059576720327 8.647693615102972 -1.0965089067165568 -2.2624676806948196 1.1651756159553353
P 2.066545324867618 2.395230823673726 5.386529695159987 0.5636272077147648 0.10387642437069207 0.5374968291763002
Ni 2.7139973457638793 7.8248052040858775 11.410978172483675 -0.36359692442861896 -0.1667596941584741 0.43170853249487584
Ni 8.060353348376708 5.12816606757492 10.592800356982892 0.9344610162114552 0.8722840284620783 0.6762217286847451
Ni 1.3182871109766152 -0.004762027247428381 9.706861235731814 1.6576742831543902 1.2598870859973075 0.08446176728950615
Ni 8.333602788425868 7.512311516344797 5.355289510623578 2.1244279801788575 0.004945002710101161 -0.4181621612690089
Ni 5.853280002462028 6.311160172993449 10.006430864181514 -0.6061254860882915 0.3289335687184787 -0.2249843821283222
Ni 5.423283177587679 7.323658089749952 7.90570548028973 -1.1004671200333564 0.7600528043687877 0.24038349029221182
Ni 6.803527156088213 0.37471046919190887 12.419710551783197 -0.4574411613742896 0.4239975370038633 -0.15323440597852964
Ni 1.8401171286128464 7.308605124159721 3.4946134659193753 -2.0991427232495075 0.40079461652483883 1.4309672619080065
Ni 8.067746659725175 7.061613419694742 9.221361307165306 -1.894446144835944 0.9657770527159174 -1.108040304394924
Ni 6.943816386955077 7.259129635670046 11.866556773047488 0.005723275637022401 -0.7207113264566878 0.4222427590962857
Ni 4.66760409963511 4.179030206710428 4.756929995504905 0.6844937388855502 0.3288199259587498 -1.000248861240542
Ni 2.2781134245238577 6.2362259775994895 13.267447836321299 0.26301614009006313 0.1331674600253255 -0.6373947285152185
Ni 6.16331231449952 8.466397681329564 5.078531691773035 -0.7279109295289207 -0.24732315483483858 1.0347304399571793
Ni 0.7632184186804652 8.303377462155304 7.547515617872506 -0.4755378709750004 1.555480902913076 0.4152017930891043
Ni 1.7214108563408852 5.339743351468859 2.1824127492665224 -0.767517231066633 0.19178321278600519 -0.14818913024513836
Ni 1.4979950900516994 4.159495333122617 7.039190103350294 -1.538039567508177 -0.8172680772375152 -0.06890865004625552
Ni 0.1423869107575336 6.1994798425619555 7.3999212443390965 -0.976271524489338 -2.1999032276990373 -0.5661083222654058
Ni 2.2191506184901257 1.4074017693793106 7.434198656282881 -0.3478697435013493 -0.10098624730709059 0.9928584823137416
Ni 7.295940060371478 2.0022556609679105 10.114128909146304 0.27435059126627587 -0.4297431812383889 0.38237780458054793
Ni 8.119196759320342 0.5983200228965637 4.837730163517828 -2.6503648724317 -1.0395797976296806 -2.445702489690181
Ni 5.624004692520268 4.410032153339779 6.937689581985435 0.6224314223371668 0.013393904808402739 -0.06238473288480869
Ni 5.8855534137396806 4.111241348247036 10.765638526258407 -0.5026704655257342 -1.031886542750481 0.2023411908075096
Ni 8.867785605768542 3.230399478919435 11.484452992507114 -0.09402421416696065 0.039073054742061734 0.029227529406549664
Ni 1.4088161419851044 0.19048108989713528 4.982339659798752 0.18793452846387634 -0.5808751961619351 0.5204229044131489
Ni 3.7332364929921518 7.995347313936403 9.116365264931844 -1.254503195977575 0.7314495388097983 2.033216295760027
P 4.394088316692652 5.42776508558526 8.451440231811413 1.5831272038754347 -0.8606618708421178 -0.7770735072965004
Ni 3.9723481215105667 8.457277733293505 0.053107854500008905 -0.25056865835532977 0.9233317390675131 -0.42960305611609884
P 0.6576795879989342 8.585434586158724 12.503441410046177 0.5956202156815935 -0.8483609419875777 0.21272099137993686
Ni 3.898699719394601 8.185139586006041 4.196853138390967 0.11698905049325013 1.1381234969335494 -0.6734760476188079
P 3.2547009718735245 1.3295745391098641 9.641949798939818 -0.6515951883853165 -0.9644940722384356 -0.009236430996603448
P 8.708191107256367 6.789622220210476 3.313118234187879 0.06946040878466746 -0.5271100866253374 -0.8022235241995669
P 6.069339194353546 1.2659920615130527 6.309367409794417 -0.32910763240249774 -0.5641866797626606 -1.5148734138043587
Ni 5.644604937681274 1.3953520495169656 3.993837400880929 0.042464339811797834 -0.5515875029414113 -0.23337800550865614
