# total energy = -381169.24170385615 ev
CRYSTAL
PRIMVEC
9.21917326317612 0.00000000000000 0.00000000000000

0.00000000000000 9.21917326317612 0.00000000000000

0.00000000000000 0.00000000000000 13.49319195896759

PRIMCOORD
 96 1
Ni 5.960426114810773 4.285495901574307 2.4200846580164277 -0.4847840721636167 -0.3222309598873225 0.26203012202771003
Ni 6.375436426839421 4.910666491570901 12.021759770702015 1.4459645066477873 -0.11510597453792433 0.3393498789557962
Ni 4.342857598780683 8.818978349782224 8.682005402165055 -0.6448928366644765 1.6955880274810282 0.600897662030449
Ni 4.7473672722496945 9.547376024899327 3.7553307378154424 -0.8208118287247155 -1.5816449629029534 0.6118719016537656
Ni 5.69648117893508 2.2048483031468695 12.385765005618115 2.20577125644404 1.774276125511551 -0.07649983212995214
Ni 2.2219683082436616 3.2271716661993133 6.178802520157428 -0.3672833721412707 0.8143861277040297 -0.2623908478012384
Ni 0.7365713942979399 4.604027563447904 12.28905956379619 -1.6056007023876024 0.8780186169530104 -0.39692022117109704
Ni 4.518381442096692 8.074142888403635 12.698376114302073 0.11991650855269025 -1.4895488189966413 2.435568486579973
Ni 5.362802415083008 7.00230334475083 8.092784979037036 3.0659844697845133 -1.5840386599461105 -1.5439245655340443
Ni 9.18178048256309 3.879843050597487 6.21148264620326 -0.09475980678140454 0.9861378757604564 0.6643542878231977
Ni 0.37251914159724514 2.7579987101514654 0.2716097566820867 0.47123692960680136 -0.49914342620908236 1.2033989211025922
Ni 1.00978528716034 8.24077022934032 1.7194376169014014 0.7999907782143061 -1.3461658518908945 -1.5044792150542283
Ni 8.710459459101372 8.884268536155666 8.097183446690067 -0.5308561839313308 0.6762762360717643 -1.575541935329009
Ni 0.8249768142627596 8.550396169661143 5.129383084417864 0.04983363569267547 -0.6584728893417564 0.7344387033451093
Ni 2.7059749143726832 6.0145057862689235 11.125082678765974 -0.08542053165834966 -0.2803348338741688 0.8735009315883151
Ni 3.3535112191591634 7.675183157351571 5.060581314877288 -1.8419447325031182 1.1130241307627606 0.2637442765053393
Ni 8.918692929818253 8.539748024326304 10.332074270358701 1.816355314069788 -1.0378062506690255 0.501166113066066
Ni 3.266943180462944 0.9306386830914324 5.572121904432307 0.031860339043706415 -0.16904849019265078 -0.3620789451221958
Ni 4.3859387963128915 3.535506922237125 5.9987631256855725 1.4174080351663332 1.2098117666074713 1.0399922025767507
Ni 7.478473653447287 3.715483626329521 4.396797138802391 1.2726736962390146 0.562211815424477 0.2302991094730163
Ni 3.697884224213325 8.730990558374693 1.5200084568293444 1.4192407174996977 1.236382318007148 0.3196981661631398
Ni 8.900042541928748 6.391975624008859 7.525990195326327 -1.2095117188685491 0.537264658560836 0.7243131848753332
Ni 3.5066324709914856 6.017916880445451 6.681518516886035 0.9660138513170718 -0.4290081028445773 -0.570051880294186
Ni 8.013019768429627 6.262934853228137 5.364920059224491 -0.28552229161237924 -0.21346789684829043 -0.7374808326055429
P 6.91562467597321 0.4499085712065682 12.902271041993346 0.5373600464881196 0.04217097694109511 0.5276438476416203
Ni 7.048205609358761 7.772279492127778 3.683344665765209 0.006822165128155992 0.8769626648846703 -0.6743347960746774
P 2.4184657711585946 1.3792344439987096 1.460044186958011 -0.27144215937022925 0.06908374217153909 -0.1528022035371175
Ni 9.266744385078995 1.962153562073603 10.026399667778582 -0.07997313539053323 -1.6485350398572833 0.13105375611643236
P 5.189979789587872 2.9887085257396326 9.316253190340596 -0.6881768441640923 -0.2645310340726928 -0.24927025125888036
P 6.248138079840764 8.007119497421579 1.5226801732951765 -0.6452345362746114 1.5113636008788873 1.8261591875340872
P 6.812840111178306 8.419935646169108 8.998555863664231 -0.4372659719779954 -0.48320335794005814 0.9180897739422833
Ni 3.7508391565105645 4.930128166724014 1.836990375645983 -0.7887884817405835 1.5055086847600072 1.7415935476768654
Ni 1.3560666611186671 2.823759074370862 8.366845192022152 0.18356056776589677 -0.18040916662110865 -1.4318635484700306
Ni 2.751545288736412 6.969298703799556 0.6165082546229024 0.30885608124231323 -2.0283129449211392 -1.01393330070617
Ni 4.308405547597747 2.4472572498431835 1.9684816027297356 0.11520547623026611 -0.36981719430671794 -1.3563813589713156
Ni 8.275102431268405 1.7957751388200704 5.698148005494854 -0.7911006748135279 -0.9506360833094207 0.09786955605497982
Ni 1.6023107839702133 5.264065067432688 7.714975875714137 -0.3344215884162434 -0.8284726877040829 1.0659382330185514
Ni 2.9481257242123955 8.301810376753277 10.93611082713834 2.1476823227211077 -1.8193966719992731 0.2157070705914543
Ni 3.0723356481052773 5.000129350730445 4.227349652707329 0.3037971786621671 0.9483861109329796 0.9950991987188023
Ni 7.960479698937641 3.7371210264168506 9.571962638573336 -0.8774768855169275 0.900335792392972 -0.8599607310100351
Ni 1.6452075980334195 4.1433823428413765 10.167335938061937 -0.4112944876148981 0.7074048391557688 -0.63044786488374
Ni 1.189568388610284 2.093554441257545 4.396527017020305 -0.5435481775767026 -0.32086081901267316 -0.3150367561317284
Ni 1.2065501061053248 6.201295459540925 5.630547494254823 1.018014669864395 0.7151436025609232 0.631743443766712
Ni 5.010454824994531 6.813485453319812 3.019654525259505 -0.6855370925484 -0.3620768882396667 -0.1346396736954778
Ni 9.021090289328253 0.14594965680550767 3.138408542304631 -0.8173040726817731 1.2230771162578098 1.8139706158876951
Ni 7.985436001466999 2.986154814693961 11.828469658230365 0.04572835527505028 0.11340878934115951 0.5854484173549143
Ni 2.441403074702385 4.05473999011889 0.12712594845514127 1.1818425350880548 -0.4680310210749939 0.19485645239469024
Ni 3.460573480434903 4.100411775390569 8.307569594407541 1.2215480812077932 -0.8442716024095526 0.5649045317652917
Ni 9.228208240057674 0.9718207308929246 12.258983854250008 -1.059897169030794 -1.112407323114368 -1.0906365070961797
Ni 7.314077352485521 6.167783764049896 9.684171964386254 2.9629739929585424 1.3513592231663758 -0.738989041719953
Ni 3.5527191190684184 2.855869455497479 4.033681554124225 0.6891968007881744 -1.663750314145141 0.5785280360859971
Ni 5.4093592410058955 7.489361497291827 5.550896601398196 1.568703315140621 -1.0845584192228999 0.5697304923990253
Ni 8.518082966718625 6.697148703553295 0.603948974631863 0.27437681651852097 0.4436389653838746 -0.3179927534362588
Ni 5.600684747615335 7.412621097493389 10.697834835899695 -1.8700234930172055 -0.015952409564198335 -1.2310485644990603
Ni 2.3958695770324567 0.02167151102909506 3.456834183683552 -0.48196614309884733 2.0410748725724974 -0.5243176114818647
Ni 2.3628372785608325 6.972719017149535 3.171736776244003 -0.2175109565694125 -0.993226921396754 -0.7518018772139052
P 2.1532946852140413 7.771228506354468 7.191183004643965 -0.12902284172933262 -0.4597749517137888 -1.5240561087448914
Ni 3.7118328336432906 1.821810084643087 7.6670075943360425 0.993956600473927 -0.15329739800598116 -0.6936859469077796
P 6.774921650778141 5.601892459337295 7.02574309324765 -0.14283326524986367 0.24564988089747372 0.060068683157122355
Ni 7.8125580609311625 5.649196038309638 2.6047797350805726 -0.042228826762224045 -0.16400578556242076 0.34797413028969754
P 8.218183254387633 4.464449277413744 0.3508743661711553 0.49451595473939997 1.950123640903906 -0.3368867621272843
P 8.512597558515829 2.08097026949819 7.827387101425611 0.17092051040438305 0.39267378718991724 1.057074097759702
P 4.328420373157863 5.846735267824429 12.539817393968896 0.18876833721908134 0.4503688279085405 0.34647980513235815
Ni 5.582956277070838 4.9142250925226305 10.001977155391984 -2.0560260945656914 -0.5048872706713949 -1.5896927729080945
Ni 1.9947064635258236 3.4527003063085373 2.5537617511251938 0.05547977823485929 -0.7484057070481628 -1.3615441341191779
Ni 6.415143406888902 1.4070947861648413 8.575098944920622 0.2926406478247154 -0.7397027799575261 -0.6847662758206465
Ni 8.940477836680785 3.2271901045462137 2.6302412483149937 -0.9749404643827402 -0.41251833271967014 -1.2784525077043207
Ni 4.845542250319561 0.4934018657919945 11.358933466748583 -0.3858644775775677 -0.048298944215703916 -3.1335723441368164
Ni 5.8396918193085705 5.046759930040932 4.7478632637813085 -1.6856527706451874 1.4513041736931456 0.9137731488448004
Ni 7.484051253384583 7.465410084668528 11.863484078993755 0.8671593056410033 -0.028725650069466657 1.6958551650994858
Ni 7.057397125288488 2.8571417014335894 0.7934186616258022 -0.6709432538946252 -1.2969670215687406 0.2719383822803575
Ni 6.275500586640591 6.370116963758727 0.364793474246081 -1.3256744168057621 -1.1797635410718392 -0.2106700223881791
Ni 0.9325562711690483 6.9600242153087795 12.486843101407409 -0.30842876389690754 0.8486455631075319 -0.5255602256397143
Ni 3.8208864363842467 3.92601267123547 11.46942894821713 0.21187149889544798 -1.0937956215504516 -0.22006406200856937
Ni 1.0348983156383487 1.0942974501771923 6.6110434673642695 0.10338791477004775 0.7029989967785893 -0.5047389180189887
Ni 6.181280633980808 0.9961409104542266 2.23019549863051 1.641092467536309 -0.5312493056046915 -0.9738138069774649
Ni 8.581040702209197 0.45616470230979017 0.8930253773324649 -1.335955744127112 0.21787245367388927 -0.2335286721539075
Ni 7.439061686948209 8.672577875395008 5.885163548516384 0.4232868840900839 0.6010550135439197 0.4655707324599595
Ni 1.0664371080110608 5.561401849544558 1.7391777110927054 0.06831215411283718 -0.33755653450079925 -1.1781020942090161
Ni 5.809231670229518 1.9931576423862105 4.9718228005693295 0.4709991025643824 0.1341046271276142 0.07299130475606139
Ni 3.5494186549732913 6.316774826176584 9.015206612832415 0.0883587883510672 -0.27551452966739 0.8046848412558658
Ni 1.5636363513471419 7.287821146499702 9.257207150144891 -1.0190711361533675 0.3881720426648218 -0.5348169683512919
Ni 1.9067278912917425 9.082416231118163 13.042114840222869 0.5325104317053023 0.45773580979657297 0.5954772623458261
Ni 3.7176132553964885 1.5577176419921928 12.947635828789137 -2.1695984060679083 0.8208326546603218 1.7941319838952132
Ni 7.111181783196235 0.5456082012050884 10.808653910356341 -0.35217351308302575 1.1735468707381658 -0.5072292885410103
Ni 1.7105070035803123 2.451295247814317 11.819537201074585 0.9227414137816817 -0.03917667019946156 0.03177497841875173
Ni 6.724087128374419 3.426305812720968 7.200358847978826 -0.2127662427955755 0.2601987252459261 -0.22106730646210315
Ni 0.5757484449654238 4.97297888491997 3.9246970951841442 -0.0898518279568259 -0.8424744012998135 0.3656630629290283
P 5.366969481482443 0.3306640941338974 6.322262078214069 -0.5338260651929323 0.0015123228794683631 0.24881645155091345
Ni 3.209784305072469 1.8256176032779685 9.855724187779968 1.5799534341331436 1.8694876751183933 0.8607451745845434
P 0.36123302945966135 6.094454458427987 10.465360470513184 -1.4878858294719213 -0.9270102163603647 0.7194283459792061
Ni 4.950945060374286 4.125497146348228 0.19979792701006008 0.1792020336868849 -1.252555842443217 -0.21727132975478064
P -0.048475335917847764 7.144702697860713 3.5454977405049735 0.9495616192983194 -0.1069244671683965 -0.32028489190454523
P 1.7960978098908233 0.581666232403028 10.592088150675282 -4.130947226263673 1.1515557111790555 1.7948431510296248
P 7.720135847094145 1.741667809841571 3.687189983011236 -0.9462495242059512 -0.37356920514998243 -1.541412854855784
Ni 1.8127199796213114 0.30894740915489693 8.48947126191631 1.0896522888060394 -0.3694940066393443 0.5837918555880978
