# total energy = -340863.4093373377 ev
CRYSTAL
PRIMVEC
9.29390026893327 0.00000000000000 0.00000000000000

0.00000000000000 9.29390026893327 0.00000000000000

0.00000000000000 0.00000000000000 13.60256248542000

PRIMCOORD
 96 1
Ni 6.115906757897954 5.130957807674099 6.761711068314361 0.42991698781209187 -0.7771025607622231 0.3142623398595491
Ni 3.5838115434040145 7.532854774949881 13.853121385712507 -0.47248622863287015 2.226351137477921 -2.3341207262554318
Ni 6.249934091978407 1.0152935342175229 4.380351761592702 -0.17493760198357616 0.5485170915462038 0.5065410042247341
Ni 4.34582771070104 1.7345019974181215 12.480486684581503 1.000378959060503 -0.44886370411792376 0.31631022352751326
Ni 2.574661277186435 7.485121303773318 11.199002838573405 0.10946805952585663 0.8889573753527011 0.545876311489247
Ni 3.9778914976151896 5.738221243553496 11.457438320077818 -0.5480928595245916 0.19400053215229812 0.6695615430557501
Ni 5.071086502900069 1.1262627020228488 9.442735456391187 -0.14080954995161557 -0.30360974524170936 -1.7592207738403252
Ni 8.856612855185725 1.995242366160033 8.258278998571601 -0.5404937070210949 0.6734927597893563 -1.8534123668230853
Ni 1.1755947240254174 1.0062877449710101 6.4092148115497 -0.40956413518735274 0.549107416832035 -0.742661605475534
Ni 7.040305948636743 3.3052826497727072 13.085760296438528 0.28671734036174495 -0.9885963646032782 -0.3553678516506073
Ni 1.465982634249656 0.8273690143802321 8.682487918292935 0.6439096468156007 0.2568447211720286 1.486963060547336
Ni 2.32868891578478 2.1882859662006044 13.01792411923492 -0.9472897925450072 -1.7974484498629562 1.3162289551221462
Ni 0.651843486734657 0.11985506573988812 12.2217937620429 -0.9278879909796278 0.7441487315440217 0.8404805107982364
Ni 8.769231605964144 0.48601707328687405 10.23195579882079 -0.9816297034774578 0.2498279235345633 -0.7161779573627086
Ni 7.594807913357778 2.774182725632393 10.024027088298057 -0.24307543530207812 0.6744911191468836 -0.4533996443150643
Ni 0.43296098549371964 2.9413706954523264 0.13564075514670101 -2.872925218499562 0.1727511358552186 -1.252473824252372
Ni 4.997311523499845 6.154801730030726 4.753374526231303 2.4130952451781216 -0.005516558942855015 0.5036492844992358
Ni 0.383358510996751 0.8371945256200805 2.148266432149538 0.37201343062708836 1.298237403640732 -0.8491595266294731
Ni 7.567344438410983 9.353845807175068 2.8741265396883504 0.041840333074553746 0.2543726054824522 -0.5482365841913074
Ni 4.528043917065463 3.3180152929798505 1.3113181948834642 0.08357653647107542 -0.5675913345688355 -0.9955961929598789
Ni 6.342464161883752 5.1971024950501885 9.423922743705129 -0.9924879863482003 -0.45146000409019027 0.051584299835195024
Ni 1.2877720988503993 2.1964274227330556 3.755885316533434 -0.5341693074649639 -0.9311010986002868 3.073024150240114
Ni -0.1211060247002396 8.604227702679742 7.827839448188902 0.12943833200019642 -0.9337688752404371 0.07762597531459535
Ni 0.9268369807484483 2.5701816173135565 10.80086981450629 -0.40625563963940997 -0.24548327341262238 0.7461475071416054
P 2.277693285655147 6.103425049994893 13.226574036409387 -1.1713868869723698 -0.7220341590331694 -2.2852347991880064
P 4.89711398596976 6.914652418592521 9.591289156407965 -0.7656956044768619 -0.30871621323033926 -0.6310926975565906
P 6.946762843614916 0.9062407686233743 7.730350153162877 0.6175697233694912 1.9825858751976693 0.18596943431770555
P 5.633813569254916 7.505958227912307 13.267558277296146 1.3774451216201502 1.7001825888302462 0.7874705342601083
P 3.7169838386705574 8.06253273236706 4.222996738132737 0.2673913863396234 -0.2730503843976136 -0.22428324229623955
P 0.7510028956178534 3.3435270488948943 6.490422122900839 -0.13579821277995321 -0.13755376201847921 0.9052093184351895
P 5.515111876523793 5.727375262077046 2.7087322925975985 0.2979638598098417 -0.3383468916125786 -0.5099472016928056
P 7.702849502615476 6.036090743399451 8.096625546291706 0.31531392105251504 1.0952297828938171 -0.38702481643425607
Ni 7.787665635395326 4.74978708077294 11.324391492463317 0.8000974789954994 0.35349814543172026 0.6191555797993724
Ni 2.873813335253255 3.8126924224276126 11.639821816644963 -0.4040357491699558 -0.08486208805171837 -0.8507086162841477
Ni 7.379598361456595 3.171896594802687 6.080997939540033 0.840015912456992 -1.386992141878637 0.24835930940883683
Ni 8.409529788412257 6.868015627633801 10.059897825321627 -0.46366785901029184 -1.1081107526215432 -1.8751960383570803
Ni 7.380945976978519 4.9689186585379295 4.564775269243036 -0.4991082020957727 -0.3053069304384742 -0.66093986282501
Ni 2.0913691754238926 5.656490685623845 6.7305616325676 -1.948922164396637 -0.24936692473774474 0.9422031220507192
Ni 5.167157548763023 8.669842637747214 10.710671584148882 -0.6046064783406039 -1.6817706619819617 1.6447429198047028
Ni 2.9757395382114638 0.7612884549151863 4.708010070203282 -0.6095432535205889 -1.9936560169689024 2.250229743867731
Ni 0.3065983308679614 6.386814653405278 0.7080362658288414 1.850404176124381 1.3248254385419056 1.9813476319151941
Ni 5.537993458696047 2.99213397807818 8.333324454122494 1.1154443101684788 1.1323742531545982 -2.37526274771138
Ni 2.1963344837315435 4.414444575517348 0.8694908286455 0.02331527768717275 0.0625107169397117 -0.5316223726733941
Ni 2.8785532243303664 3.0257778966255238 5.530189370739084 -1.5121480444533957 0.05144803136764688 1.3703571044251173
Ni 0.30696822809397917 7.1060602922064815 11.935690339788366 0.4134763257575653 -1.1426596942410063 1.1716046594101306
Ni 3.004922384686231 0.7837062714698954 10.556377042008707 -0.5393757913665679 0.7324347855412031 1.3067600963997623
Ni 2.7745358938381384 9.13884072107721 2.167405360730904 -1.8882413015768127 0.7664106282660156 -0.28306457410050606
Ni 0.18651556457436888 3.6517592474094367 2.2893246016943736 0.06453571778954047 1.3106771720659813 -0.6896894241538767
Ni 4.888163960124155 7.080595005792194 7.2312305394428416 -1.17173552856104 -1.2688964885847696 1.4526012952380145
Ni 7.069832669417105 8.59203410568137 9.004801304926561 -1.4061877409704813 -1.2113176617290364 0.5070721941378556
Ni 7.418428276288308 8.10823083941051 11.75892500586262 -0.0627876247501822 1.889383642711372 0.6695589719525888
Ni 3.865769886191115 1.5899074988657547 2.9680795057068448 2.693299467011697 2.1804186366118645 -0.8840159721870259
Ni 5.142984114469751 3.290375233930183 10.650860689725835 -0.2102830713624056 0.9799435740242866 0.13075936480446512
Ni 7.631788342059402 2.4048338397235605 1.6407823082934225 1.0389820161446817 -2.42951251019388 -1.4878022686191799
Ni 7.446886198551282 7.425203529498533 1.6485761729602186 -0.7540258814484174 -1.3061818552987892 -0.6976323331500373
Ni 1.4602390039562148 3.6437943749798585 8.805496404354127 0.030529793157740966 0.03027885348919947 -1.974327491843619
P 8.392205958530422 1.9253336492227078 11.855299962260515 -0.17888553088773063 -0.2802379032849883 1.2303607944034167
P 3.954926270341575 5.145670051613448 6.322987864726898 1.905563337795028 -1.563759083761468 0.5466851805437876
P 0.22399972266418802 4.758300293311439 10.098787221114309 0.2349345513624986 0.2310375303009376 0.330873723163985
P 5.642345369593719 1.1257980070152889 1.7804937917063492 0.09129370260967502 1.1528271216923114 1.2396761582670714
P 8.446881973119929 5.047414939214964 -0.1635122323101342 -1.4540097455497667 -2.0080153710143676 -0.669777258610982
P 0.39148045033888457 0.34856679578073446 4.435631879692038 0.5024691481482056 -1.289307962361586 -1.0815456005385051
P 2.658232027346024 -0.12888501912679387 12.69340807826546 1.690712444556282 1.4329002172646612 0.36653672378323326
P 5.018148447638835 4.012176695272966 12.673724527135233 -0.5817833097985012 -0.911652760067688 0.17840216349340887
Ni 4.690268944204657 3.815889524079626 4.54211302311435 0.9744745804899154 0.3186648398026189 0.5557568038277525
Ni 4.857624204227312 5.594110027808991 0.4612265240235636 -0.05756262890581699 0.11230141520959369 1.0079092059992771
Ni 6.137041086841783 2.972403028057183 3.100146756245409 -1.4234856088189807 0.4982124297543807 0.2210400527685935
Ni 0.7263926480174763 4.3189032819630135 4.4221250546023 -0.4229261583165555 1.2714274825367393 2.1875416208098906
Ni 0.33742805644952145 7.445975396336464 5.586191624880169 1.1486362235394154 1.0452308252678708 -0.04814699201887192
Ni 2.680109868301948 8.056157116863337 6.4227894821105425 0.28359499268267935 0.41936698021038743 -0.4196287185122063
Ni 5.402070168984749 9.14100619981244 6.689332032716847 1.1057959884454374 -0.4274613271827477 0.11004861461967497
Ni 6.5323385419727655 0.16998171620538438 0.18405453981433118 0.8529547320058473 -0.3170252473166669 -0.8415053525183248
Ni 4.956901645642429 8.290567866476898 1.8950680633803254 2.3541264799533974 0.554260164677568 0.9046896984862935
Ni 7.025937579002988 4.6462065635878185 1.5355251715210239 0.19629472750311355 1.339336230563571 0.22251355199032646
Ni 3.385888645784063 5.152789179129267 9.242832028649016 0.6919368254271567 0.6775936693316074 -0.714141386548654
Ni 1.333758316798536 6.593380878165846 8.822227283406317 -0.5055804400836778 -2.590213399752784 -0.7047853992550507
Ni 7.299587175054916 7.372832402146521 6.428992231071454 0.25229669679003003 -0.27636427926219503 0.9145084843489282
Ni 2.945766710223844 5.876821176508338 4.470006298791266 -3.792303372235966 0.09703111931408451 -0.2025214251391157
Ni 8.986058296491636 5.400889843665547 6.518497136477583 -0.7030848716241762 -1.1256089094063066 -0.011664837932437973
Ni 6.227628731615527 1.3864175550552345 11.3972603165988 2.688602318646344 -1.0706415520314916 0.7547992692793323
Ni 8.160890077667208 0.2877010436905268 5.8638059987365985 -1.7004438129114328 0.35721596060293964 0.44111542763107253
Ni 3.1339496004853378 6.984728425732568 2.310748900322919 -0.668303502278933 -3.0884008898065005 1.574873705617391
Ni 2.785614222818369 3.8235569917043657 3.03636364889774 1.245567584050842 1.0741097130857502 1.072539797495469
Ni 2.9967344586530236 8.244553766828309 8.91171824796222 1.67411340254702 0.13747328648953097 -0.5926894151880439
Ni 6.053693390285822 6.292044753563494 11.679459371399817 1.3408932906380455 -0.7325628264786351 -0.9979806340316554
Ni 0.3229890531746174 7.93029912101579 2.879716820629297 0.6334118326080703 -1.4134539356145916 0.28479852607247724
Ni 3.392608135593381 1.1567188128183306 7.351830975974855 0.6278137696950027 0.3530965391179274 0.40284764239912557
Ni 6.229626920148036 7.8684296277092525 4.4756923069037695 -0.21196251594735752 2.422650235856408 -1.4119626957810456
P 3.512527329244312 2.9879331352098375 9.141765511454793 0.1063164012707524 -1.430048606748479 0.3533001704883012
P 0.9167261467739579 8.247611459978055 9.913900877236443 0.19812432451268458 1.1755744426911559 0.8109580758590873
P 8.090386551120206 2.9115186881666726 3.848709073683558 0.6820751021417286 0.30071931106779176 0.6964691660798714
P 2.0995106319563437 2.183862069728633 1.8704884856504471 0.5733693747031932 -0.2997317503435419 -3.6596856140665235
P 1.4871169631934846 5.610002597067543 2.8154039609730095 -1.1542893080601346 0.811087659458416 -0.9622952648149041
P 4.865254496251447 1.5800094952047268 5.773552934368297 -2.2465276124257954 3.0600501065779495 -0.5380092500363444
P 8.090182085316881 6.922189771615144 4.177591388944051 0.6424263774018549 0.4029695126889705 -0.5960123089136897
P 8.99227591569279 8.763422918369645 0.7472481599567686 -0.5131340840612195 -1.3450749328195608 -1.3698793934577504
