# total energy = -340895.7101437441 ev
CRYSTAL
PRIMVEC
9.06239647210850 0.00000000000000 0.00000000000000
0.00000000000000 9.06239647210850 0.00000000000000
0.00000000000000 0.00000000000000 13.26373327801094
PRIMCOORD
 96 1
Ni 6.414608740020002 1.9389087369315092 11.372285036964156 0.2710179273486171 -0.2505018096731363 0.4149421116698144
Ni 4.637753772567529 0.42474907410920104 5.898859614114372 -0.37532295461629556 -0.6817992227725225 0.5817437148098175
Ni 2.494859558776405 1.6785370306960665 4.735418310555373 1.0304616373784965 0.11912872254407227 0.30627880743344027
Ni 3.328192204590339 4.281828160427436 4.723971597870607 -0.5813408229444439 0.037086363329336125 0.5944027983347248
Ni 5.109125250348682 4.400935234147544 2.86829553292228 0.22476043904297419 0.6038852839038632 -0.5227011589243643
Ni 7.244896420698886 6.206436436099694 2.639774524495305 0.5637786456909645 -1.2202854124452855 -0.8170868144646444
Ni 4.967135626134526 4.659440086758521 11.487175377715994 -0.12113135479639785 -0.7053397290966239 0.06307301720108492
Ni 5.721879171796228 7.817476739635495 12.510711408194949 -1.2127191700622533 0.14630245474538675 -0.4849905317474679
Ni 1.7983056593413491 6.494856258683288 0.35341895334141826 0.08948595997697492 -0.5529571295954283 0.5357479648059934
Ni 2.6988450356360194 1.4099094814902962 0.42427239206722606 -0.010677534318504192 0.6150140468271731 -0.24070282130484352
Ni 0.5181687857004461 9.220806921458989 4.959800522621701 0.45516316397339035 0.651811932381813 -0.11774778303614561
Ni 8.754664446305584 2.367759451576792 1.2890134907533464 -2.180937228119496 -1.7016352621163726 1.0003216234600063
Ni 6.885255226102334 0.7725212483564248 4.777582921519197 -0.5275397179635882 0.18249844504996957 0.5128569191404329
Ni 0.9485247643604066 7.688464466830242 2.534911725177789 -0.4712158465608788 -1.1996317407506758 0.7048774447482248
Ni 7.516378624718765 3.840335403033956 3.934421200748493 0.19201898294589512 0.12992144228420205 -0.4984962795433866
Ni 7.610101926583892 3.816256616236853 12.739590381273217 -0.11184581572941382 0.05794495194590021 -0.5219632523170752
Ni 7.957237014375776 -0.021613815021110674 6.899448751086008 -0.46299011621697683 -0.20732321740313328 0.147860543261126
Ni 6.839789184190002 0.6404776040104738 0.20853661224896516 0.24914452431429351 0.625993171546496 0.11207335835918764
Ni 1.9463852138256041 6.382092862327865 9.110566496215466 0.2689420186561949 0.9752955337293139 0.1060124968770884
Ni 0.174222755143752 4.749175934280131 1.4636658034786503 -0.860816394142111 0.7897845271052656 -0.08247610431804506
Ni 6.320332631984525 2.2126202904252645 7.2228186109905295 0.5400782167502312 -0.2647210385963118 -1.561815586881852
Ni 3.53342829213042 4.223421016691143 0.5576010841993378 -0.9243208424536598 0.6239139204199641 -0.11448171069036413
Ni 5.965322321864193 5.892007536320887 4.705959179113392 -0.13882234431825768 -1.1747272641995123 0.5814837762802115
Ni 5.393956364023109 2.850413612670852 9.345811802649006 -0.8232993710332596 0.18638672436078224 0.12296917933608499
P 0.1768481313331087 5.450188532662938 12.492645521299945 -0.08211152188977472 -0.11082585910533171 -0.24075552891964988
P 4.02525359821457 6.2389704385843014 12.766409636691865 -0.8015223843674841 -1.1156867651965883 -0.6822897892556959
P 2.5058250582210775 8.462121233434946 1.3032124531747622 -0.2833962464083119 0.7158730245277801 1.3683822400869339
P 6.3127202191469 7.841283654545541 5.709851559512782 0.7592508772927827 0.1522728133962087 1.3054807154667065
P 4.72993646707266 1.0154958725390262 12.60667402816981 0.2211174429737482 -0.6075704460649343 0.09513595917390066
P 4.005760383912512 6.1736486865205 8.184240071433344 0.1215573865902229 -0.2391311059423495 0.09327679447797485
P 4.636738784189179 1.328230104221839 3.960696712393025 0.3426573460624744 -0.2187342874535523 -1.5303211158179968
P 0.28693449584063235 5.7330802935430185 3.469911769396684 -0.752383203638672 -0.43223817974610074 0.5495756147177051
Ni 1.3373559372307524 1.0052825519818809 2.64614085785058 0.17883925103082748 0.41282198000301806 -0.1623955036525074
Ni 1.8707413924498344 6.59017454228582 4.716013001496797 -0.01083257183912973 0.7136148246212226 0.5658602108103417
Ni 6.1713740250654485 5.645338173193167 9.054142204775449 -1.5268498694399446 -1.0794588932128053 0.19854135744544518
Ni 8.72289168510474 2.445967931087142 10.397784726274606 -0.0752595319649478 0.1749622845739245 -0.12551559990702252
Ni 2.426112220935673 5.408021202980243 6.87992472463675 -0.8313273835440587 -1.317028568205306 0.2241076359503237
Ni 0.5105908099685162 -0.13027828955932105 9.090312946869268 0.644955828691928 0.006552456406537102 0.4167953628284693
Ni 1.575488523104851 1.1655238422138636 11.510744857844676 -0.0865271344589671 -0.6912194876451581 -0.4267293341127296
Ni 4.176224057097875 6.919175775210936 1.6343705364038716 -0.021580554384253155 0.017413567490757106 0.03247663247146665
Ni 5.635315162956963 7.788159887814408 8.017356044760911 -0.09031771184965091 0.6516468675588584 -1.050387686878462
Ni 5.30171023274433 3.0936845772103467 5.056638570072889 0.49932366054068844 -0.5036490273889197 -0.1640278970496078
Ni 0.7644357784353198 7.542786447348332 6.933457205438093 0.3095762472377894 -0.4769262666820947 0.05965010756246501
Ni 5.022144371282594 4.761672978688563 6.828806466192482 0.32087470296974413 0.23381612148733924 0.3254947182402587
Ni 8.107727166258613 6.9116630487319 9.177442449233615 0.6864472630674953 1.045331098291161 -0.10348973045523467
Ni 4.624649547611333 0.2963267632988626 10.339676641614076 0.04801997952270439 -0.47120941880297557 0.4906559575633614
Ni 8.298689979728149 7.465919202480801 4.500821871692275 -0.814852525817487 -0.994214996341636 0.2740299747020636
Ni 7.456249625697772 6.206626746420635 6.750404051402697 -0.18439077697667597 0.5658818080768964 0.9226753364304368
Ni 2.330630814200905 5.220574599249989 2.7072205022366522 0.03612785607080875 -0.26552065167947175 -1.1311082419579812
Ni 2.3582529979259976 5.058448330601071 11.589385613655448 0.05352368294975298 0.741436217708865 0.7463562807183017
Ni 0.872222106778333 3.3331855849159706 3.6897319711981793 0.08830608073626083 0.4292672700432349 0.634622822197036
Ni 3.5807068132898054 2.6202468730875528 2.5076284750718956 -0.09457391602284358 -0.15688331558502658 0.3105884905523877
Ni 1.1112491511608524 3.407877854687037 8.396301049578204 0.6789095599295534 -0.03423552414410233 -0.2159940057042538
Ni 3.822400920884364 2.8162936908450735 7.456419998746996 -1.0015812068987202 0.013452783070796186 -1.0754759973056576
Ni 4.039137189246998 6.947740448144496 6.0136303312359045 0.34724188010936324 1.0847031723308804 -0.2620231800491745
Ni 0.8691852977998952 7.207713408945588 11.23082737540901 -0.5032934438217138 -0.0592238186583238 0.40541180358187595
P 0.3055486577078698 5.521273968732368 7.8953825351115885 -0.17600820933993558 0.6482044175362126 0.10069699820144593
P 8.758280342403456 1.6607112973012974 8.12905007836057 -1.0830895479868572 0.19731134169308598 0.5924824413835602
P 1.9129812213024118 3.221029369108312 10.59963238386232 -1.5045458066261057 -0.8281261029979415 -0.6481581376793095
P 3.934665885446845 6.309068073464088 3.7640753387141883 0.5584346077702318 -1.009618732491216 0.5076483783562998
P 6.872712869712725 3.932853406199792 10.470244927852926 0.6630124290833227 0.4083300056699355 -0.028220171187957853
P 6.142129672414243 7.7094348517186475 10.138147980373843 1.298550049785144 -0.1566200346213109 0.828589158677289
P 2.438872074834929 8.650528451166135 5.92504178307768 0.1491944315812011 -0.6436653920152785 -0.6039454477178372
P 6.934880907886653 3.9353455651644906 1.619262615640059 0.07267891572196516 0.2362275591423093 0.4285998116625651
Ni 5.375423763721989 2.789577746743508 0.505992550118742 -0.12405932707647022 0.016717569864997017 -0.34275941885797745
Ni 1.5796934749580145 1.300997603534863 6.9897618732478035 0.15692265346339426 -0.4975344298507495 1.2516215035544058
Ni 6.910838370674491 0.7333417907124969 9.159336687795175 0.07087554396463923 -0.32346997450074616 -0.06442490324328903
Ni 2.8094968936686238 1.5322427682701592 9.271362405097046 -0.4440225739755385 0.2370839936053336 0.322054067989826
Ni 6.400498589081692 1.8992516910059831 2.57382746709127 0.06952777168749316 0.28149105896579907 0.30250185688951126
Ni 4.10704172423785 6.6917911912718635 10.376615874908646 0.022340829589045395 0.9383094434232679 0.5451134651812934
Ni 7.984261079949341 7.021463041518389 0.21298806127972808 0.1571316841504068 0.05411555089748099 0.07535800521602505
Ni 7.698070606839624 3.811970102817572 8.27159522746395 0.6272548118677391 0.2617305885094202 0.24695497286214246
Ni 2.9468646958027938 8.216838416931221 12.461794405796228 1.5750665383544875 0.3253869890178009 -0.2755338129410997
Ni 0.34286216796695623 5.052720896180383 10.13008335396408 -1.1320114704985407 -1.2284427514450973 0.9860360600752696
Ni 8.557693264132066 2.34473190274298 5.9452962386635 0.042006169228456694 0.6297816920546508 -0.23159186014251082
Ni 3.7553391887433913 2.6013245897483164 11.47505261027208 0.44369990052879715 -0.17370630067963633 0.3307631657280497
Ni 0.9315871457966934 3.1908425272486394 12.804516106621536 1.1593073301000163 0.8075120262920158 -1.5029365531574568
Ni 3.1578372801597987 8.391407355611161 8.247203787996728 0.08607256342005176 -0.13891516114238012 -0.836914647823849
Ni 5.816390902133824 7.9637981892501095 3.6211975996689763 -1.5821208740981074 0.9675621696407981 -0.8383200128118079
Ni 3.2178394056334985 8.410411200516513 3.6271271255257114 0.16222735350575931 0.6543023029038344 0.35938031524411007
Ni 3.405902252307749 4.346696792679474 9.494100698486298 0.7676498999897554 0.07906913551902511 -0.9122860227763127
Ni 6.940128035306873 5.972282242172878 11.426653070698391 1.4798488181000578 0.09045603719972808 -0.39033614019567614
Ni 0.45440757826835787 8.83969691018109 0.4406608294190821 0.45678732984037457 0.6072076634088769 -0.7859042182142529
Ni 4.579210692887707 0.3752774530608811 1.6167432694866548 0.29582521620028407 -0.03311349472451716 0.2080814357253965
Ni 5.896511547249815 5.520567101826018 0.4079582663644992 0.22214202758352067 0.0015915128568359687 0.6903980201851271
Ni 7.950983960973443 8.568740325142857 11.11405296247986 -0.2079531376776483 0.427372109903051 0.6828415479941079
Ni 0.20533305517979844 4.909045666266468 5.729853174243639 -0.056145179733000074 -0.5143288757002691 -0.4391757874061985
Ni 7.854904436087147 8.82748080005595 2.253189919651682 1.7664198626919254 0.8800135358958522 1.4347704377041808
P 8.433402499765386 1.6147830731809667 3.5859829403779773 0.4562211729242594 0.2707335633389789 -0.12255034663111151
P 1.65230139359497 3.122176750974025 1.6743338913221502 1.948856087045392 0.1291873923316549 -0.7625943398437189
P 4.845581705430896 0.9390817474832588 8.072705536007424 -0.6324255574354012 0.1290989463829067 1.3123121365662433
P 8.636608610548766 1.3314019429041821 12.37471837156967 -0.8968684026696618 0.47769168409320956 0.18699119071400055
P 6.25898020947177 7.864737136002411 1.4739054049848777 -0.9457628143775195 -1.0761306001705209 -1.4105149075909256
P 1.7404422593791722 3.2828620986215356 6.207612735131032 1.1235509984360132 0.766621458725241 -1.5338687239599391
P 7.02333895753909 4.178589342515279 6.074298542832897 -0.07203485438006303 -0.4915905535624888 -0.16776550971516915
P 2.4321840264133017 8.45466288133332 10.412189405090562 -0.2323588202155224 0.6208175408828276 -2.166179610194347
