# total energy = -381162.1039019451 ev
CRYSTAL
PRIMVEC
9.28604836638267 0.00000000000000 0.00000000000000
0.00000000000000 9.28604836638267 0.00000000000000
0.00000000000000 0.00000000000000 13.59107043236269
PRIMCOORD
 96 1
Ni 1.2336886501909547 1.8505422613346518 -0.01659602537839489 2.356856734400367 -0.6695006079108277 -1.088791483467641
Ni 4.270486427409914 6.532066327145009 7.442755576292811 2.151039926339431 -1.0690441256373846 -0.18698167763230378
Ni 3.8221188751659465 2.1889165724152986 4.1278257972142205 0.6225867169681084 0.28909303968277306 1.7883218049713394
Ni 1.8128223334658964 -0.06993880077211222 9.361135205687438 -0.5584677750010124 0.8093508792729673 -0.35679687078765004
Ni 3.5891690695244884 3.495212833636731 10.146577022261281 0.14489117622015693 -0.46413220024122004 0.20631817317738663
Ni 7.334167314225143 8.763150844526338 11.570526585822535 0.3949715820851584 1.7989553734257857 -0.39157361214720304
Ni 2.007365043670335 0.9819810271455364 5.097670887941324 0.529650593659004 0.735415722546398 -0.046464204999810306
Ni 4.388307807222511 7.475547398371328 12.79252688711925 -0.9737587853698133 -1.38965709030531 0.023108818103321493
Ni 5.625320862676149 4.584939878276401 8.44655138791626 0.6030015957473293 -0.28809982253156835 -1.2023699656174454
Ni 5.5742475974673455 0.2897070609655895 13.289429827593553 2.5667397421108764 2.212499576306809 -3.0445638380168925
Ni 7.192889376609375 5.999232880293901 1.8084820345279702 -0.13279902094231322 -1.6466223962156028 2.213721621639368
Ni 6.660315939108421 6.686818320727681 11.847009385518332 -0.9623196902949362 -1.8801718943051167 -0.954947309090265
Ni 2.4152639977724917 1.8292864969595704 2.4394067945391034 0.20709078967735303 0.29943144549430367 -0.6804643060111829
Ni 0.9160677282766998 4.034945814315137 5.2265955956103145 -0.30123970234763603 0.27648820643456895 -0.35188246420516817
Ni 7.5122458609359075 3.5129956159776143 5.752583367713798 2.211775810766907 1.6703886453972654 2.0148401072456847
Ni 2.300237718474049 8.781518647905067 0.22287722913746041 -1.298931344383963 -1.1688666916536772 -0.09969581063044121
Ni 5.114504636154145 2.442072818983003 7.616762190859201 1.745500338930439 0.978868852902869 -1.8488617713379256
Ni 1.2911600026231873 3.993966483521237 13.231083729419016 0.8952576065391162 1.2131552291584076 -2.857647466404885
Ni 4.4652334306751875 1.2362515994996148 11.013293118669127 -1.105277396937806 0.26280839495463126 0.5760217247243756
Ni 2.5049115072862698 7.106064825754411 8.423351125043956 -2.505249496015879 -0.9407414499035283 1.3738360641126532
Ni 9.124099538829276 2.2341303411974183 3.854033165687694 1.5965771587327535 -3.490792161394498 2.6023510635565823
Ni 0.22645514351654253 7.541190473236969 1.6788915172016206 0.5188218784746161 0.029116200639665985 0.23733776148735256
Ni 7.696861785593399 4.641027609523886 9.961832950138358 -0.1893211243987578 -0.07178442893215378 -0.36062447206385634
Ni 5.980809360625853 0.6031734049063139 8.87869249950098 1.8294296307552427 0.16290921006413234 0.4473652651955263
P 0.8648523865301346 3.5473632804390283 2.7139190948026632 0.8444425807697779 1.5035872993675783 -1.107576477384628
Ni 7.520417583369316 2.9152341199737895 8.095398545880371 -0.2339701305667003 -0.5052102012284524 -0.6614664247524414
P 8.739545709951653 5.997747112578737 0.4237734535338742 1.2774549196777418 -0.36355552966772225 -1.7488106342505947
Ni 5.858948549837651 2.6258808574453734 9.906667323479098 0.6904486709174044 1.6290347650408266 -0.7259424929486401
P 9.222754515116243 3.648284052491622 11.198376131552076 -0.12868834120804934 -0.8012673309338846 0.34887838727152176
P 2.1930581499213213 6.710776325134718 6.010677934724783 0.781467522599138 0.8772513997696827 0.0510965615654991
P 0.888717530454975 5.235260407204193 9.265209398972265 -0.154800722024385 0.5620770896188255 -0.5086169129171563
Ni 1.8389161289634848 8.843233724373741 7.057393861220065 0.45768387351271494 0.4242680170564306 -0.8684060335639109
Ni 0.38062675908547783 6.057103532799585 3.9773453858126486 0.3216429485943364 0.2436145956349998 -1.746230275117928
Ni 0.20614469885023473 7.713595244485447 5.690444847446304 0.37675017398112537 -0.36712473507621934 1.2725538828316987
Ni 6.428341168530041 8.100359152839378 5.075924820220237 -0.710568324485415 0.8230900832359308 -0.47018740529636444
Ni 7.983317801077242 3.937312303332346 3.3481738317054104 -1.6160501798557008 2.2911884456682796 -1.0476137236777505
Ni 0.5774306220314335 0.7817218256569998 11.378607184240185 0.6934038968909865 2.3105449958180206 0.6120385091386169
Ni 7.811628055541688 5.987291022283261 7.929560867932922 -2.4054546979137283 -1.2229953551772808 0.11831933926889947
Ni 4.5417133238133145 0.5356749776063605 6.349028102080058 -0.5223784854776229 -0.20480687873918277 -1.624120358458345
Ni 2.831808262767265 4.3304835849579275 3.3386324171595843 -0.6055606147237571 -0.33930462754015756 1.3167719721098097
Ni 4.536290271652962 8.650975382031369 1.1669173204666106 -2.3380280317296376 -1.0462500105610044 2.880767854472432
Ni 8.417681992605779 1.6531301622303005 13.31049615658495 -2.211402743698204 -0.6751341520475211 -0.11360830694647531
Ni 3.628829781471178 3.615374297600714 1.2561107422224411 -0.5095952176700256 1.3357102037752093 -0.09245892656236981
Ni 5.651674667523891 5.354214684899604 -0.018937038134602 -0.447566582573055 -0.41548410021621346 1.725313322459603
Ni 3.402315207246029 4.690392241860249 12.860318753542948 -0.47079495697337626 0.8714466201624476 -0.4515546206865256
Ni 4.386311306855259 6.515490731072697 5.1037597497590355 0.26406129352512586 0.43326687812093123 -0.3851021454902464
Ni 3.3849410110268163 1.7659649341488752 8.598390348172385 -2.164864233817033 -1.1739955282398102 0.5409649902305587
Ni 0.4436455967242082 0.8770133952787615 1.8096780775386783 -1.5448931000949007 -1.142131075431046 0.568780212670614
Ni 3.465228183935054 1.3949501635756938 13.722360253276955 1.4327829749605066 1.1886857832621334 -0.46775411326452343
Ni 1.7482471541455304 5.524632241829049 1.5269569106488308 -0.8583242238478767 -1.062704299462286 -1.181644817254952
Ni 2.6462173030466967 5.705069444787639 10.521269067929497 -0.11585725088165208 0.5652436602722652 0.5845824698101932
Ni 3.340135828366367 8.479694222617484 4.497910105755779 0.1654250345074506 1.136554866894849 0.6042544943178239
Ni 1.572332256669975 6.460907339636817 12.783923363443622 0.42542707036153826 0.4837594875538443 0.6949753551431644
Ni 6.339371540536306 8.052758869664775 7.36108663940947 0.4138933586903259 -0.38635298717821204 0.4139530082836677
Ni 7.358190320969719 4.160047455932044 12.410563865694945 0.28866726499926415 -1.0457738422555345 0.03193695791791274
Ni 7.983243512691485 8.478737759650848 3.326740703809331 -1.5838224301702466 -0.6264253739879083 -0.4184840633848019
P 0.1350544280988695 8.26623583218935 10.597854822017329 -0.6783230912984641 -1.7069595025427635 -0.33984841585876957
Ni 5.002431320189593 7.168448497694907 2.8944491582434506 0.5247068765004834 -1.9242943385456277 -0.45814770052301096
P 4.727062846280169 5.765911632723652 9.849584127862451 -0.5868219006636731 1.8024101647436055 0.5590876679731984
Ni 4.17172001854431 8.798252106797117 8.340201063469559 -1.5376161068175134 -1.1378838701189178 0.6869080047539976
P 6.132821969983689 5.587823799964667 6.43041102867823 0.03630474796830522 0.22065310174282002 -0.29791809417357085
P 2.943435848417268 2.5529389486789835 11.899607419844823 -0.7332655089726146 0.03431831366589574 1.5987847079070336
P 3.8863040404610816 6.096457805155023 1.094002341240058 -0.3238304431639584 0.2102002818406122 0.294703443891015
Ni 4.196950211557458 4.3574781271328344 5.726719866212061 -0.04189098380683108 -1.8199880257263688 0.7217508234647957
Ni 6.780198821625811 1.8446456207150903 11.755188012116303 0.6283485591525502 -0.6698875589366012 -0.6335262466987476
Ni 7.069663516732865 7.466874229334051 9.60652181570965 -0.09197144540298999 0.1258102483293059 0.08700973052234047
Ni 8.374715447492846 0.3829603430031091 5.485220395974649 -0.638353749994378 0.5794667458501827 -3.427426809763975
Ni 0.8544213685648532 8.740771468316664 3.783142544973054 0.6566224663965788 -0.04978812716672071 -0.04265177323225558
Ni 7.289640713011287 1.4610482548041042 2.689142989547462 -0.9419277569021456 0.7012496181876504 -0.32726852231122994
Ni 5.2098166350819906 4.804053472070384 3.5145826016183745 -0.15072423796216622 -1.6691252053038093 -1.4070737431198606
Ni 6.940522444140353 6.011295456931399 4.3007450155340745 -0.3991028306447127 0.6012540169286033 -0.3694695811593121
Ni 0.09137471448265762 4.244364773767666 7.501631907820696 0.5812876011090053 -0.3416726135517019 0.17132443071102108
Ni 9.242988814187148 7.454895227130532 8.487813943180862 2.038238431564967 1.1232571213446785 0.9024317556900523
Ni 8.828608198427585 3.697917980226358 0.7414658780194215 -2.0671954809189494 0.5214086653651859 3.1218216313587916
Ni 6.124074512560655 2.509006654551194 4.629281687130684 -1.7944330600753997 -2.026848444560471 -1.527062756781699
Ni 5.549565281299165 2.7784506296963962 13.354612314467492 -0.6115618266125146 0.7112830911642524 1.143052815914367
Ni 0.9532778520981894 2.4427692725994867 9.063925946365087 0.4781773654803765 0.07257195783045567 0.13973714282304323
Ni 8.265864390260559 1.5997353849665525 9.80713945865947 -0.9519275484273348 -0.47377435131667445 0.8278787628738259
Ni 2.6316753515345175 6.751607079157101 3.1974891272430033 0.1144662840713964 0.18113010394753323 0.08609184669376141
Ni 2.430892416926385 8.220882772683932 11.348230663303633 0.17730558799512044 -0.2432487276551488 0.19439622492882006
Ni -0.13174952353744898 8.57413333301267 13.07927169870273 0.39271955282618815 -0.6605739948451592 0.6372445760905993
Ni 2.6063058677980724 4.085396914293214 8.250364118572097 -0.23288563925326988 0.9217654230216578 -2.020810465896507
Ni 5.074231045024949 8.402815029405907 10.7719830838154 -0.016755365081467917 -1.6120523715502173 -0.6715857725746304
Ni 5.243608564553778 9.318270807104923 3.2754482878625413 0.8389126520904843 1.543268162896968 1.3766089988721002
Ni 5.128312989856961 4.458584620149824 11.536616723538357 1.909482727454092 0.09956339881763497 -1.4610391415927226
Ni 8.831988319979585 5.850108231932418 11.745063433742276 1.0124693145661336 0.9245694681293559 -0.1541458620492055
Ni 8.696272725247466 0.3511519134310669 7.588804685483902 -1.0920079335224095 -1.1578618559027416 3.539753678894865
Ni 6.581978836326338 7.502049779990587 0.3356479273233184 0.8133772268235411 2.25033207377355 0.32635423802707664
P 6.645504692197869 0.9748957723538425 6.489817593559465 -0.6110954284990572 0.5365156962099534 0.8115422304973313
Ni 8.454872615726007 5.759559975741321 5.843698072846302 0.3533053126946238 -1.3783689189860004 0.32547517785623303
P 7.743644896524662 9.349657650087787 1.187107975110883 -0.2272911758846279 -1.2139471289320836 -0.9952501224743698
Ni 0.5268541604023893 1.8559374553503456 6.551996972439127 0.528717026101141 2.6027446994505756 0.3264961629215797
P 2.5020978346756757 2.909263190968469 6.146166949880339 0.7911518397664374 -0.14065374110004164 0.4620645190789139
P 6.381818066948931 3.6953643169659185 1.7829584023910767 -0.09970969458751214 0.031209849943901087 -0.2660706106456708
P 2.4569862124239736 8.872531206507155 2.409900376320745 0.5348601628844014 0.10160434050706374 -0.5648929618010657
Ni 4.9130159618813085 1.9962217858065965 2.0360645042983943 1.2604784397244035 -0.6295343519305352 0.46650378579719015
