# total energy = -340871.93568228884 ev
CRYSTAL
PRIMVEC
9.22323690005850 0.00000000000000 0.00000000000000
0.00000000000000 9.22323690005850 0.00000000000000
0.00000000000000 0.00000000000000 13.49913950230929
PRIMCOORD
 96 1
Ni 6.312171269621631 1.770261993951912 5.6990934828710245 -1.1248229231699014 -0.34783709049120093 -0.8183983341872163
Ni 4.11586028884282 4.887430180233381 9.769975734150577 0.6072963664679412 -1.5219794287215207 0.04557614596790215
Ni 6.770621488036062 8.287078446170803 7.342452036590651 -0.500048711632171 -0.4125065056451283 0.07510655132685129
Ni 4.717473592000115 6.93478588343216 4.288622585772052 -2.0193657630301804 -0.8994374489484187 0.9972674100147148
Ni 3.067740859188504 8.348532874314193 2.9646813312534253 0.5281948350490838 0.8565676461680861 0.24761446082301225
Ni 5.684520768408087 -0.26188182445969943 9.657973355618497 1.4531589675136973 0.40591239736737833 0.5645870005248728
Ni 9.229508803020812 2.883008645278259 10.941997362716775 -0.8468591606310706 -0.20508815742502742 0.5882480915872386
Ni 5.099444729195127 1.3073661753025851 7.691323743157088 -1.6149885713604057 -0.46068537934320014 0.5194484563150215
Ni 5.34220032708407 7.5779037530978215 11.503953513737175 0.23412388253574518 -1.074005326297402 -0.7978745032022516
Ni 0.9097754862449248 1.4986099945361426 8.561343388629199 -0.9902547261423074 0.19374804982185986 -1.2625330082605868
Ni 2.020460744101356 3.898689950397036 12.241195439330513 1.2611422985606473 -1.232825453893825 -0.22280871463324212
Ni -0.12061134794961711 5.730138898619285 2.251818265703401 0.8644244232083436 -2.719351169793426 -3.45298331807684
Ni 8.95452721504737 8.467226711291122 8.23658122358562 1.286346565740417 -0.9160321200823062 -0.04196477446755999
Ni 0.16955998904218592 2.5255897649821977 0.4492113019096679 0.7491199595063679 0.8924566467552113 -0.7634050086704723
Ni 7.236560974896002 5.810076693714401 0.6274688034446074 0.7233999290324444 -1.617048282102912 0.5337224497355324
Ni 6.448112559792039 1.832066905101373 10.886192167237024 -0.1214905379080295 -0.08082751297102854 0.557219504416208
Ni 1.122975221161409 5.032733055960676 4.184665636876693 0.21094281643359156 -1.2513515377224707 0.015498609856231374
Ni 3.931330986146617 1.1565939200331872 4.928022568602265 -0.5406474589901399 9.153127254177784e-05 -0.537742883748835
Ni 6.380183419273343 5.283457530619226 11.856092090849671 0.4717565495556972 -0.23899303770258842 -0.539853759444251
Ni 7.05823891070205 5.680610115919298 7.863937545970591 -0.6358417822058017 -0.11955166901410379 -0.19075631418338762
Ni 2.1441535755332946 2.8995182395115875 4.557444896075651 -0.4009355129780773 -1.1860799702081701 0.6928287411138068
Ni 7.220586328408782 1.9830881877698212 7.870565364080127 0.7247991233728162 1.8164735848152072 2.02579120694055
Ni 0.05507194813810335 4.966030605963228 12.582156375520457 -0.7641334021960646 0.9646611939439194 0.4790533403274265
Ni 7.8441048194454925 9.025546139961689 11.401481505999113 -1.6897948178380189 0.2444298924474435 0.026415770989367413
P 4.355360084070107 3.163911551406893 5.483121242911782 -0.531008393238479 0.38204176139736784 -0.2826100030615907
P 5.748889739444064 0.2122783335399986 12.428604236618698 -0.8686831984846974 1.5707262591079205 -0.5608074788777825
P 4.319241887970826 2.497366659756507 9.549210177921466 1.9576610869315318 0.26544351858463316 -0.7346317931925219
P 6.230720863658209 5.450232102086851 5.58841463884871 -0.10425129121160756 1.1466937551010639 0.11146015025522094
P 1.1074432900502775 1.5302918136375305 6.221510539188152 0.7319033385177653 1.2441097685583928 2.2345565561068486
P 1.7264977343780885 8.527251537699225 9.011039832805164 -0.5344140764859183 -0.39192636750093146 0.12894750840670693
P 4.352076611697446 4.417699942965676 11.884278303127353 -0.35659889584423105 0.061882082216777295 0.234785427379144
P 5.077862354610775 -0.3608102645416449 5.85441463862974 0.5415982529391834 -0.3392382930785964 0.16012033446508553
Ni 3.5441579432825567 4.67171711323389 0.4313246783919617 1.9947759895059585 0.3056871965960284 0.2140721060911926
Ni 0.40390491710913345 7.199483562148527 13.654379812755433 0.2784723267441333 -1.371444681062341 -0.9199047156638351
Ni 1.6793577700615843 0.3594941086214795 4.6240219100498745 -0.8275784580245876 -1.3917774790824224 -1.4055729902046181
Ni 7.294897948932764 3.32291093408195 1.3948522675600237 -0.4433592293599268 0.32794780776644167 -0.2629143244048763
Ni 5.655808831621298 7.318859918663595 2.271527400852675 1.9243061656201699 -1.450631315995837 0.31731963862863416
Ni 1.4520879870987633 7.079175658696271 6.656007088785054 0.7607876256522833 0.223294396020409 -0.5173969731026314
Ni 0.49668330275823896 7.167110000271999 3.637950885001867 -0.3216437199252848 2.4396678534603273 4.171138710880895
Ni 7.46837781370074 3.876784762517619 6.355934606871754 -0.07602237827290133 -0.5893762916544107 0.18290982155577531
Ni 5.291066701145761 3.0425706454104287 13.240104287961408 2.3728862770594037 0.6396524142011436 0.9080565580759974
Ni 3.449988693493571 0.44998882078892466 9.369793315495393 -0.6941142926944498 1.0946021766121472 1.1800779869884643
Ni 0.29139802751305033 6.127503618370399 8.623668490345565 -0.11228778836283887 -0.04221237170199181 -0.8767770312364255
Ni 2.5096612346799865 2.99128944768009 7.372365761158782 0.9122605688550159 -0.01294036221075191 -0.3148552362485416
Ni 6.9046627913840855 2.4556868517451043 3.5871668197459283 0.7719490415857414 -0.8039554192890089 0.043273465976654504
Ni 0.06495464658559585 0.23541297891176285 13.209326346086204 0.9957399176265948 0.6704753131192711 -0.26725434654112684
Ni 7.558534955393917 0.7570285359334286 1.3422871952390258 0.7035630968121754 -0.4198364636476382 0.08843283612211221
Ni 4.523748722013058 8.772110033624593 1.0711148041473533 -0.18776637831712825 1.3243011906073194 -1.5159992998786858
Ni 3.2728379803988545 8.84336876270096 12.15026539037658 -0.3001384988636573 -0.07673020297320333 0.030626466636605315
Ni 8.238988488443107 0.6400142504145366 6.540035951371071 1.495271066192399 -0.39340012383298056 -1.2333970101265792
Ni 2.7678842010210483 0.31739648797389197 6.948101470691744 -0.7220200179657824 0.2144641993232887 0.22551814314460514
Ni 8.448706451391388 5.960083420312644 5.464276325069582 -0.8126696592335553 0.21750530014245764 -0.07043974197880126
Ni 4.510439591019374 6.050674054144909 6.990057053489503 -0.04654725163191984 -0.7110848591105172 0.09987218830730542
Ni 8.236239963816553 4.986561531529368 10.345686498511851 0.481105594870765 0.03608440442738302 -0.1668586816301836
Ni 2.280666706397817 2.6367851102766164 10.114716352863882 0.34691997799357027 -1.4565258271034012 0.2100110486479415
Ni 4.476673320355566 8.283379928133057 7.848089257830296 -0.7333308149929112 -1.5834383073579503 -0.7556461906606599
P 2.188830935570302 1.1527109372554043 2.4933047461808884 -0.2653769270127559 0.29815232167156397 0.13269052038890694
P 1.9540073215029579 1.5865627825858755 12.321717987651548 -2.076959759394565 -0.34487260854623836 0.23044874767700313
P 5.389783006776662 5.0081254596397144 2.252938888999127 -1.8624762767975664 -0.1619764138372178 -1.3968515511712203
P 8.922651707968944 8.016284207796206 5.6565577584658495 -0.2736224548509998 0.10523988037712198 -0.008212103497147148
P 8.725431231158181 3.760839450167243 8.498734211213176 -0.48118067108307455 0.49946172878044953 0.00217463905381561
P 5.294820558605517 6.686164306810033 9.153550834691996 1.1057659065384504 0.2957174869778262 -0.08313764916144392
P 8.656819571101348 3.627268531906313 3.5815378782036933 0.7014535066683404 2.759016092483216 -2.0902688177986453
P 8.194034431296043 7.042374943058851 11.972576040240956 0.07812322666598803 -2.018473333122898 -0.31831516977268404
Ni 0.6299729122906123 4.528185099010952 6.48888756825356 1.015181057070342 -1.2723109135829571 1.5049317292106146
Ni 6.6909142738659915 7.634266954416186 4.915157997632071 1.8609765523235886 0.11954601258714898 0.4818090486956928
Ni 7.520839585767317 7.137512632733033 9.631676984602494 -0.8385964064016461 0.7952272953873917 1.410467342182442
Ni 0.03989326700414309 1.6260751299018417 2.7919190343241937 1.643467909747021 1.3859202489706972 -1.2723199124440217
Ni 3.1706537376552526 6.280480227283242 11.813569278976297 -0.05829847863057701 0.16299559913035155 0.3816514679374846
Ni 8.769324616050032 2.3115737735910487 5.092955259640618 0.35670996750079853 0.30061595272070807 0.9027914530223161
Ni 3.431966488391937 1.7385248354285132 0.6813168280325639 -0.3538462727997584 0.16137786102127044 0.5689231660063815
Ni 8.177423381455695 9.41876962629897 4.048716045792983 -0.6072999660123669 -1.6242954505836285 0.42447859040534
Ni 1.0588368310504779 7.0514598315056825 10.938461173650262 -0.8387668705412393 0.5524033139744873 -0.25291427576937087
Ni 0.690101038953135 0.5535021319844946 10.704763716820844 1.4291674896951063 -0.5923137770161798 0.2820474456899013
Ni 4.799910884322736 2.956536290657083 3.1050184161789196 -0.9031215826682252 0.18285788527191732 0.00982135696579599
Ni 3.541861357269094 4.650715802580656 3.9335547085877653 0.7220063911190275 2.336482284509073 1.2666642568201412
Ni 5.617292593901533 0.18410872308891915 3.5459269601395134 0.21056949225457283 -0.8472862208661601 0.742203949112825
Ni 2.6436840915540074 3.540588550562837 2.2094716176567633 -1.3224597665232063 -2.0359655763703906 0.5299257016972616
Ni 6.901941936468538 7.986262571355153 0.11431187707734702 0.14019171386195856 1.2220430185663407 -1.2618282688840785
Ni 6.370083974756307 3.75184679409043 9.456512034434278 -0.0061248819508152585 0.09661897147733037 0.2773212438588256
Ni 5.080371075075281 6.378255762739954 13.535317046298427 -1.4557688943327187 0.27298353571542017 0.4479692173281124
Ni 0.7830288410416706 8.45748697301716 1.963287742574229 0.5922649260561155 2.8380579743087315 -0.6829065969040884
Ni 2.917595784035232 6.706759795035186 9.133585293554072 -0.3133071750351314 1.9318348698970471 0.39142937325985494
Ni 3.9653001680244655 1.9238750062178829 11.807549272185183 0.8424198939127945 -0.2880915950014522 -1.2343676015699643
Ni 7.156604733326881 5.371373425720951 3.253103942509676 -0.4573951386277026 -0.02623322266491611 1.9155340758544945
Ni 1.517572969811966 4.672482641905044 9.976552262576027 -0.19629267062058453 1.2384320014473251 -0.20107620805215692
Ni 2.3261557112909887 6.27110019525235 2.1685019988945036 0.36679229143746506 -0.7874682202672633 -0.792812515298312
Ni 5.188033920597987 3.5997279462187604 7.449472944818028 -0.5784030804723587 0.9553445445286838 -0.676663444207854
P 2.381329115036112 5.197939677137985 7.816339186775094 -0.6657743080991759 -1.0391715064476683 -0.8680303953920471
P 1.538122341852109 4.622243669955916 0.8148259506055815 -3.1862539908012484 0.3408334054798582 -0.5368422263114367
P 7.852756215753236 0.6417306948205828 9.400220774364529 -0.2966040033478376 0.22093849419372275 0.767701064942665
P 2.5101961824260943 6.738856659801658 4.457766606825454 0.6498818052386356 -0.015431246953405682 0.7273614847833538
P 5.665050515097161 1.4598908456023365 1.905241300503026 -0.8429893932630192 0.7661609741490547 -1.896320479040521
P 2.733343178449084 7.5747770757541915 0.3633346645090539 -0.06455345840135333 -0.32420299601202873 -0.025326908800562833
P 7.6182000755589465 3.5692451479276146 12.63454712866212 -0.28841889643388396 -1.025220700694531 0.1413739070955178
P 7.911443672796069 7.597918177391857 1.990056343324726 0.05663060400985086 0.3442504015812071 0.6623048614933368
