# total energy = -381170.5908529758 ev
CRYSTAL
PRIMVEC
9.19947985273392 0.00000000000000 0.00000000000000

0.00000000000000 9.19947985273392 0.00000000000000

0.00000000000000 0.00000000000000 13.46436866214619

PRIMCOORD
 96 1
Ni 1.307246049893962 5.726170074076335 9.920869662497305 0.3058111237684024 0.8853179788279011 -0.5992045905987422
Ni 2.387743326826725 8.353826629159109 1.6560765167687277 2.29000830931725 0.7318969107598622 -0.8142573154356493
Ni 7.613231724157958 1.6463572665807407 13.085575277044677 0.6175319281530203 -0.864137488095544 -0.5584374359837092
Ni 3.387229986480345 8.337046778384959 4.025778744169365 -0.10273485456708113 -0.30105458292002346 -1.3198688658675786
Ni 3.7333880045338987 5.4657696047709265 13.264852895419933 -1.2995244978832716 2.5795788028570734 -1.3605192923990892
Ni 5.49237449974836 4.950635545588223 11.638236792093714 -1.7780332785611377 -1.9182453041380705 0.32277809064004415
Ni 5.499255710482496 8.392869220543698 9.116871944154358 0.5842747087617872 0.3505696589310156 0.03634074341256322
Ni 8.200425306977674 8.14782268267582 3.033292888484565 -0.989364353117554 -1.8288655307216568 0.2616128319846333
Ni 1.3387450680138557 8.91945663181731 9.98506823082373 -1.677440152927408 -0.9295712922193216 -0.2781005452270114
Ni 4.163583268652065 4.647282706072012 1.8787913179292333 -0.04572012774493416 0.38503555391836913 1.523353683361228
Ni 5.151791366327007 5.1049844141675385 7.5927325237851315 0.4977779133201234 -3.1198704211696913 -1.0641924539720382
Ni 5.6266685028191 4.58829564293394 4.7523159244073705 0.41756000890863576 -1.2388328364301697 0.31292562332599655
Ni 8.144474072104662 3.7260284208610264 13.450701702067102 0.049090843989379976 2.5762052583991504 0.7101057830266996
Ni 3.032442856570348 8.941424989080833 6.15170856162549 0.13098253655886474 1.4760039904326707 1.3838672230964104
Ni 8.311748209509462 1.7661712887751033 6.75115585126054 1.558583967318432 -0.4559545495264341 -0.7917403652800558
Ni 4.10255392104477 2.844212304657045 3.4935722907615148 -1.0304696077982962 0.8790357453636151 -1.0528258640063093
Ni 0.02341175561136625 5.985209020402261 2.930452826083723 1.724420378331688 -0.5995964267205222 -0.4107190747274024
Ni 6.537518176612563 7.41053039084787 4.971327935032463 1.8942579400845374 -2.487167184592871 2.826741520854648
Ni 6.97760288129115 4.442971463833484 2.6598317349526135 0.7930487996788342 -0.18003507111114156 -0.07810882848828483
Ni 0.6899517698521974 3.23205316473783 7.856916739046355 -0.20805778157631263 2.400927499467336 -0.5754707373169121
Ni 8.968526655956186 6.7959223588467035 5.329641225469724 -1.7743229195890864 3.8579629192173037 -0.390333826202831
Ni 4.621965738237331 7.954780802936376 13.254445524158532 -0.595774738981587 0.3972758047383029 -0.35981945966405776
Ni 1.5823012901879774 3.728521479830212 3.546568652789869 0.04379000060175684 -0.27700679794220034 -0.35644771497834743
Ni 5.314870541038269 1.7334579393491854 8.978511771104356 -0.20752350633939742 0.007443857872554922 0.8300778274076736
P 1.3473189829927523 7.929942208040432 3.4552932561829874 -1.8305220924884733 -0.4140584235132804 1.0772539151416867
Ni 5.157053468653111 0.4745634342380361 6.819527303529483 -0.06469666884743697 -1.5396606480513677 -0.11862427210382795
P 0.9133188141157116 3.3321803006072592 9.976908292426431 -0.06021575025794791 0.3051848030383131 1.5063162682629672
Ni 3.1390004286739495 0.10392928078442686 8.710127073461841 1.7899333724328335 -0.39706651694097417 -0.6560812491811282
P 0.42012183396592157 5.886149024165399 13.74967834914183 -1.2716033459929714 1.0368374589978528 0.44148720914819456
P 3.0566466873745073 6.822085678803766 11.532985546092046 1.4867807693332007 -1.8082833356949308 -0.701402855936063
P 7.793486327265786 8.727178308883927 6.473169656768802 -0.6592645320051163 0.11490954225640211 -0.8074508340367773
Ni 6.839509493149291 6.811506277274012 7.332318255260336 1.4587822272377458 0.5068731907531723 0.31519642163804423
Ni 8.519067681574278 1.671941019323563 10.993293476140925 1.269355173388743 -0.8167227462570064 -0.06969926426835094
Ni 2.6980141749954347 4.290444092213202 11.345911368763343 0.6754645388037464 0.4726348383955925 -1.0197452794022568
Ni 7.640360989472084 3.978940513779287 11.111792892701722 -0.3983225008352624 -0.8895788109867842 -0.781383447525764
Ni 1.8872456396734456 1.637571763571249 11.102152758038217 0.17328129732707576 0.5166760357762069 0.37418961234280074
Ni 3.8141686348232646 0.0763584404499286 10.985699305738482 0.8151489740119833 -0.3784679280031804 -0.3280660785118608
Ni 3.8973043318879497 6.477583567076608 9.496984321430668 -1.2685784431237186 0.0834235558329789 0.668335898178765
Ni 6.173347577519654 0.6982809786739708 11.347581074309126 -0.015526891991005518 -0.51397483479496 -0.22312753142524153
Ni 1.2166587743604937 3.0990654877690256 12.813285400315744 -0.44967925804068365 -0.37108243417238673 0.9982169184121775
Ni 6.0850509724043675 5.7412296221669505 9.66811672057597 1.238571355238667 -0.9479040290902385 -1.8873357590434077
Ni 0.13474201772682542 6.011979506012335 7.6409350369985685 -0.2702172858241927 0.47444000992513125 0.49427118571844547
Ni 7.7531926066568095 0.9302605757306639 1.7442553685452482 -0.7337894997968847 -0.3122311683621332 -0.14620269594272886
Ni 7.669164560071788 6.536027860918806 1.2648888860127039 -0.8913788403100003 -0.7716896172767678 -0.7040590626119875
Ni 5.867317689442436 5.275505967867993 0.4583530312505755 1.5122768567217764 -0.21144289599846164 0.48263128748667206
Ni 3.857121005034066 3.0321208747846597 7.026771339861652 0.2325603947033672 -0.7663368376052867 -0.41184676057394237
Ni 2.7035982591072263 5.894695340705522 3.2657959359299906 -0.1568079822624009 1.0479294551459566 -0.23468438302490552
Ni 0.2676404597435963 7.9550843857628815 1.1981319424119965 0.09306159314337521 -0.172679916297651 -2.1343907478185242
Ni 8.23766480036241 6.924144705387324 9.633593833514484 -0.3274826952045651 -0.7618302079841848 -1.0647645244254242
Ni 5.988695623167284 8.46636386299692 1.8854158631827775 1.2874552254235634 -1.8799289250563755 -0.5756555996342085
Ni 0.42436003421353696 4.997856474329289 11.829228107832302 -0.43537029761717927 -0.05734177114426254 0.22624370845672004
Ni 0.6659724063500608 0.1891541796642485 5.331485721127737 0.547574010906644 -1.0280466001791004 0.05199541923068464
Ni 5.673015480999013 6.416259836122399 3.111453506986388 -0.39878092852891966 -0.4301000503571754 -0.2803913981437171
Ni 0.9203527362110593 0.8975748247435192 -0.03626066875624237 -1.3748861026437222 -0.4215652734132868 0.6984918529368551
Ni 0.5394087259797149 0.7137765820972036 2.6676144946866764 1.4511424513043008 0.15331925238285207 0.9216975458981997
Ni 4.549851017722773 7.090406900037102 7.226744107525023 -1.5373703093552942 2.874471737051075 -1.6547080014372146
P 4.223416683912517 6.9879522958311275 1.66093752178466 -0.6043282849785527 -0.32912177346988475 -0.36344574356273535
Ni 0.8316752726407015 5.042694737856265 5.678732037616917 0.9003730733888107 -3.8845658665168137 0.12277377549582724
P 7.851351053893746 8.754666353902106 10.530092319145847 -0.3561265841935028 0.8461405372974913 0.9264049786761981
Ni 7.997512385636991 2.8254269673320382 9.05830161744176 -1.1480721235058293 0.9824043768599531 -0.6440011780881425
P 8.100647751332707 5.055592408242974 4.4517376479358335 -1.00871858927445 -1.2647269305881121 -0.2356014955225362
P 2.373456535021761 7.4451112346307795 7.8160793291935455 -0.39955508769078285 0.2333263263351143 0.22395876907728526
P 6.053432361049789 3.1402975552962933 12.850918631426978 -0.6780590390038 0.12709502857900046 -0.3233930985162237
Ni 0.12404026311850982 7.444090092396168 11.582507264678846 -0.6565736154365145 -0.04270010997168775 0.8560709090373255
Ni 8.80835451679571 2.748970092450485 4.6670192695867385 0.38665329202745025 0.8030383067913783 -0.6984113774079069
Ni 2.2907256150590847 6.968651787649019 5.4627632148405585 -1.3290808713841495 -1.39777534853707 1.2763678572611503
Ni 7.465644473078093 4.271769148643289 6.359288378962734 0.8210326864862698 0.4383718034476644 0.4001168737315238
Ni 7.472847665597918 8.463668415476729 13.239903906768895 -0.5185244018388554 -0.12428892658877305 -0.6471865177946596
Ni 3.2358157518905863 1.1385551926321351 13.196118063707141 0.36347119748403206 -2.299122355803376 -0.0295327193517943
Ni 6.21786385926094 2.4168504802529354 6.960835909788429 -0.4627936839354546 1.4200099915655544 -0.580169171233846
Ni 2.2107637384533256 2.039018653967257 1.7595504233133954 0.5807996057289934 0.838502046915627 0.05519130046016301
Ni 5.683374095018582 7.217046936088055 11.220787406949004 -0.32051397719621577 2.3351116294137912 1.3326274510848275
Ni 1.9538130739945765 4.743279275605042 1.180624412802192 -1.4326593048984486 -0.8948986805378008 0.588789051692373
Ni 1.7704674457441427 1.386729553560984 7.399074278913085 0.028662400931699028 -1.3435885780820216 -0.7713016378097297
Ni 5.531315896857447 8.897074297972186 4.09196991977522 -0.4677857378334073 3.478562709207842 0.15598111548573138
Ni 2.3406879887182974 5.298458669447764 7.863823708323346 1.2099637188043033 -0.8409772479289968 -1.1117763743985885
Ni 3.047686394252785 4.547192368120948 5.336858217208934 0.8721575301865431 -0.5387003625660981 -0.3640540665706956
Ni 2.9569427275662683 2.6003157017380536 9.123119310744666 -1.3919911377551255 -0.3748650411432705 1.0523340119715554
Ni 1.9915953366751853 8.400946363624675 12.197021461988182 0.5839777463466588 1.3012039424682236 1.8857046511978879
Ni 5.533017800581798 2.898967607183216 1.562970423723219 0.30393781800508946 0.635222403454248 -0.7020479457192297
Ni 8.934874959611978 3.0118452217658964 2.063871968030547 0.6425631600900352 -0.06270612077996943 0.2916780268011299
Ni 5.581747443975805 0.979266203512403 0.5089501690015733 -0.41647243227141173 -0.5614777654719298 -2.3515240093335437
Ni 3.436355207496768 3.252586403185144 -0.03002434154144211 1.2842223203085625 0.6238252173608998 0.5311125229165111
Ni 7.837091860527556 0.5486192449463148 4.380806900444648 -0.3890397899817558 0.1898911379696149 2.2664929998041288
Ni 7.480152052393243 5.98502503081044 12.197397720703458 0.40665236085719636 1.2612351153847698 0.9264391743482432
Ni 0.3884563052654289 8.552213406540977 7.620387999331868 0.8597815251196934 -0.45085528062665575 0.5587796498144764
Ni 2.286834235192053 1.5067919617043062 4.379730561332491 0.8443597912479845 0.05564304328560094 -0.3718072281535532
Ni 7.696155833192049 0.6100165717372529 8.584531178344477 -1.243434339757923 -1.7181371164261379 0.8643187508684147
P 4.5758487470471945 3.8654097361456388 9.23436217780401 0.8006227553713502 0.7027449717862543 1.0928211734523243
Ni 4.3039489282529235 0.5742756735779071 2.425377477885917 -1.811766152037209 2.207068377988908 -0.4994411599551592
P 4.870765663778374 1.904365871192465 5.096303785225386 1.1234787504371813 -1.0256876130286208 1.7030203153893573
Ni 6.510131325869886 1.984842918655325 3.4264795661557326 -1.2343133512932614 1.2461550811231958 0.6272753806930293
P 7.645365506369638 4.950331962761716 8.414018824123614 -0.012144091561701667 -0.21776678133396044 0.5227602942970738
P 1.795720017221686 2.932048935792777 5.953028320844668 -0.9468465343600017 0.0419694024532503 -0.8290586421145401
P 4.289376952580636 6.177818524600924 5.018143166723562 1.4652313252971991 2.445293427177221 -0.08354079813713354
Ni 4.477497110738846 2.487005711614592 11.350785253050702 0.2657906175114068 0.13552336185201178 -0.30918955332233206
