# total energy = -340867.9904325881 ev
CRYSTAL
PRIMVEC
9.28735768992188 0.00000000000000 0.00000000000000
0.00000000000000 9.28735768992188 0.00000000000000
0.00000000000000 0.00000000000000 13.59298675970412
PRIMCOORD
 96 1
Ni 6.397930492746789 7.8666517673611125 7.50595216670418 -0.5013491756111494 -1.1475244785324754 1.9376316790844823
Ni 5.220655780833532 7.464843536625988 12.780506197497221 -0.2349090974412019 -0.547879715072521 -0.19905017876106365
Ni 1.355684847647857 0.23118182924098088 2.260907785327229 -0.06257448029811159 -0.20385197102508115 -0.23196518432152954
Ni 5.51082068821282 3.258877988987861 7.004329919738942 -0.7334439435320078 -0.36101425130310727 -0.5309541429617759
Ni 1.6452553641532761 5.503307216072825 4.950239510238527 -1.2306770400922546 0.5933846414828555 0.9730463326838211
Ni 3.095866291829418 4.027081756675912 7.3734067167744595 1.0907419223257926 -1.804382200868312 0.5442254061493852
Ni 4.58457395957757 9.149347273169395 3.5038775485748044 -0.22235157249116547 -0.9918783777886596 -1.7483401223720794
Ni 0.2680507806641571 1.8600162167678984 9.288535969850335 -0.8274074796643621 -0.005511673846848572 -1.5864279861138935
Ni 5.6707582700704755 6.586779618203705 5.847594198725064 -1.738365527657871 0.6396930376310918 -1.3696837325071765
Ni 2.9621654946386156 0.1436299109916276 9.97984784811757 0.4086416233730833 -0.6984972522534938 -0.8565887292140086
Ni 2.460053803938177 4.797356605065098 1.0735934400600367 -0.07644686740482963 -0.347351409104034 0.9526217462808819
Ni 5.986166214874366 5.110461285232749 3.2116285581940156 -1.8602823544700413 0.031759294689467886 -0.976621451629589
Ni 8.474314274960236 1.6209689245413041 1.1563809439610375 0.23128461331473715 -0.166287639618062 0.05346274780483051
Ni 1.052591938761929 6.3801359159603495 2.332610828166322 -0.3122568793937461 -0.9970522086801152 -0.377379322924692
Ni 1.9646475852835676 3.5743602326509865 3.147564366819873 -0.8780525555147394 -0.26539801005867836 -1.1638450700693697
Ni 5.8178421492807235 8.082369217788367 10.526816546344532 -0.08431238619583545 0.1998222810403978 1.094653598675373
Ni 2.714332362307652 7.767564951215747 3.4302585239032255 -0.4550292094986873 -0.2988681167916659 1.028009576293578
Ni 5.565086717525536 4.7818652929149 11.121278932865074 -1.4089563048545541 0.5000109164157002 0.760796881623664
Ni 6.884783055232135 3.3160881105977067 1.3639478095303699 -0.5255062324733272 0.5732405624348127 0.05929503821589143
Ni 5.624823000349323 -0.13128887047293228 5.721029806963646 -0.18086759431476593 0.7417342085652581 -0.30446309438094016
Ni 0.18460015944449668 7.641470499738983 4.10007945713715 -0.11373737632517186 -0.9806411143119435 0.19912474075274095
Ni 3.2403404236090863 6.706883724154765 10.485031796647316 0.7729327456552495 0.07403208731574991 -0.3199843299449908
Ni 7.511493932867263 3.4768615546217396 10.94013831405364 -0.4729194595155468 -1.4505822079254567 -1.0443779903492723
Ni 5.085013925945254 1.3260953269580893 1.0250224183075736 1.0117954284275605 -0.4741271066704028 1.0004974869162384
P 3.6594324264734195 3.5595468975912943 11.467233924907106 0.6651572433404673 1.9620900692371628 0.0584026083086091
P 6.386367732778565 2.906552798502292 3.404336580652375 1.137878470802279 0.8605754817758985 -0.011193554722974269
P 1.2363701670761542 0.07554615133294944 4.529808270436509 -0.00016429349200616864 2.209308580173337 0.5033350956929267
P 4.209086099725936 1.4099973137475936 7.350407504898709 2.0700131528734027 0.46201104013315913 -0.5224551043518293
P 9.498459037993111 4.2692403136329125 1.8646998311068341 0.011385873239438456 0.0458895634432629 -0.3369952626806906
P 7.027269692527305 9.447099951547912 0.9352888998039749 -1.6522029756271739 -0.03931679532175164 0.052911503287050805
P 1.5659320445640401 5.207068376951194 10.505122208184073 -0.6022197232759823 0.7375980749096974 -0.28362764569282767
P 8.752591364862154 5.869544867949881 5.652833670280376 0.932681041492897 -0.36535864431473203 -2.0809079454090353
Ni 4.317571721564347 2.6177066958744 9.450877119804197 0.9937719952669465 -1.2239973140792342 -0.4271057436155419
Ni 1.4622851359332156 3.9785646015963936 12.281806681907085 0.9208925334984011 -1.434963270441277 -0.30822204720274016
Ni 8.373212102258162 6.427715047942044 7.568778353336342 -0.5312472487221624 -0.2794416326359381 0.21135213605686826
Ni 3.2205862144103623 8.784251966253056 7.574990666704008 1.306327379737718 -2.288409854481878 1.5552405047674958
Ni 0.10090156578214424 1.3327079254298768 6.367702001867612 -0.9818001676170511 -0.8528668002777312 -0.6218210424466775
Ni 0.8088248115025222 0.6125931656450109 12.929770748225975 0.5082857548299826 -0.8183417699176679 0.4328922683903319
Ni 1.3786339077936245 2.327783259787621 0.857645663169158 -0.23161988516696885 1.8143699082086429 0.0798054994644174
Ni 5.390837317908015 0.4982091431191956 12.476689803469506 -0.5150850371400032 -0.6832547242721265 -0.6174841056342204
Ni 1.288657989261776 7.98931918395573 6.440737780494207 -1.4414370510910788 0.30903631557391936 -0.3201997883899066
Ni 6.746689337989148 4.7412238169141405 5.330910644257442 0.9972668957940825 -1.2972333878562496 0.5890129947777211
Ni 8.84829758291239 4.206095570641785 9.149507015716747 1.3987909342857778 0.9477417924807614 -1.0541294133090813
Ni 3.3315422733182887 0.1449821502296785 5.364200248137041 -1.7247962736138684 0.8054068070235548 0.0752261076238511
Ni 8.43955169619633 3.3228864562175784 13.05130603595302 0.9031771184965091 0.7023474792375194 1.117723593120959
Ni 7.685130366896106 0.6355106487756043 12.334248674225616 0.5069256412576625 0.6019752113653439 -0.7913806679477919
Ni 7.830914016069768 7.88147438977821 2.3276625241413664 1.007379301637736 0.5127368486228008 -0.040696192167781524
Ni 8.328289154494065 3.4982503387236026 6.724926273383896 0.3579903768751189 0.47995502620608954 0.3835435427538749
Ni 8.072552481012131 7.9365298444702805 13.46609613486773 0.731118894943257 -1.7216831819061835 0.34479933210614166
Ni 4.332998022212716 3.3364645727425124 2.2361820537100385 0.5286679180307605 0.6874939591644547 1.676412740104158
Ni 0.3508067075499837 6.854506270094456 9.470437223233173 1.00943849815961 -1.20796957119241 0.8490448554284796
Ni 1.417325038739504 7.425697325167302 11.770411348745412 -1.4825667312518531 0.8046434464949691 -0.07348624211460893
Ni 2.866960793888205 6.407570769732344 13.098881452991755 1.6097052114742794 0.30703882552791634 0.2535213132257505
Ni 8.023998176502996 8.527075752373472 9.21768922136391 -0.5367761489601917 0.9151574307868368 -0.29779802365593877
Ni 8.912788992727124 1.4316368564993698 3.4453328337059763 0.8232006406718663 0.23800573408865464 1.56229124096669
Ni 2.058338446777094 3.0948725445871688 9.812967037864539 0.40758387153253034 1.1954526696723218 0.30442375650257253
P 6.817941943994137 4.887973351257837 12.932761277310126 1.2171995744311102 -0.04247693821728813 -0.07725522223873792
P 1.0975055991686193 8.551770835711228 8.593934509590536 0.9268361526763457 1.7291658634364737 -1.0777935896952406
P 0.8994926381609832 7.934189430404423 0.8777917988503394 -0.5574326488682787 -0.5029820832288822 -1.3153576082607863
P 5.95257384314339 1.7042672330995356 10.674055524423432 0.4543427249546239 -0.11729732576228831 0.06352553135747123
P 3.608881340122382 6.583835525906575 1.8356108989811528 -2.6607372168049594 -1.9324588766342914 -0.3584632027464794
P 1.1113158996286585 3.3921237056658575 7.5134962871236075 -1.6954507305722155 0.3243971143007058 0.4199305660233412
P 4.542985173121582 7.40459644914497 8.862586182278745 0.8011554879463686 -0.5443673310438882 -0.06010622126327713
P 3.066629690721009 1.4789373677589386 1.821092901886914 0.891142298819162 0.39349114088489 0.27039880570737945
Ni 8.135288580277473 5.633302357659353 3.4290623122695654 1.504222618958732 1.182510507689357 1.836669343036792
Ni 4.789518075415958 2.00509402677884 4.310825385145939 -1.4262739701973952 0.44854797264971785 1.5849061501527286
Ni 7.143742441733324 1.8285692245972915 5.240245603806202 0.318347051451884 0.4414154753699946 0.4699470071507842
Ni 8.952761778994784 3.8518478971735473 4.462183306233598 0.9101707762055229 -1.5052896267706657 0.02451161198811908
Ni 6.817663323272011 6.243305279324334 9.550595476253045 -0.0027122567248404903 -0.4567330795636715 -1.231802926166582
Ni 2.1942217729578823 1.559338020807061 7.408042058741927 -1.2616508627659497 0.0814134673814856 0.9910931628832029
Ni 5.40539060696039 7.276644526187365 1.647687723057435 3.6808861594035385 1.2523308709166046 0.4389379603637795
Ni 3.4761557154590204 5.264845027362696 3.6552354696624634 1.340578073390472 0.4723129362797994 -0.19708508461489285
Ni 7.94369968438632 8.380214769740924 5.674324615313686 0.2583171919524971 0.05262868193930936 0.29095451837154407
Ni 6.68321025013147 0.5139660736911541 3.1621770949596346 0.805836952582438 1.2356865774917043 -0.46302251211680906
Ni 7.31937565760407 2.339726801409417 8.667336210098858 -1.1906038262204528 -0.9924931285545229 0.2666390815546311
Ni 5.660291418275945 0.3798408442669805 8.81540547792969 -1.0803104425798233 1.4283030848122822 0.13899769355385738
Ni 3.6809790956511534 3.0503953899784753 0.16809466786576002 -0.5764510989523105 -0.24360251145014175 -2.5669760264913983
Ni 7.510732369560119 5.807486745775044 1.4165114662308964 -0.4337517881771498 -1.1611328133445293 -3.7164864251056513
Ni 0.6547754142391276 0.07017248633888178 10.555225643908228 -0.6129628207250992 -0.9271356861946356 1.1972799526890476
Ni 4.62840099916797 4.89723284658982 8.896269570112281 0.7545390736394102 1.9701939292912196 -0.09398924716396717
Ni 5.971789385612671 2.7650041843049444 12.697792992455454 -0.6471106702514017 0.5947578676812983 0.18397194427170252
Ni 3.5456901603442343 8.510767152771704 0.6851357855934433 -1.02607019317902 1.1948464035468906 0.4835460859914575
Ni 4.922494458729232 5.33112889715644 0.18823430239675848 -0.026243507077561252 -1.0827337073093353 0.7174555385235514
Ni 0.6242943072385571 5.796601962897327 -0.22503174116792243 -1.6163335154240746 0.6895683251949802 1.304184365252786
Ni 8.513441911704112 5.608737297325256 11.052796745573755 0.5283318748475804 -0.7387794968123084 2.691127656171359
Ni 1.860796354789851 2.653351573591703 5.145420755973623 0.3868024160108048 -0.5540603899619361 1.3942583365227472
Ni 1.8469396175427906 5.8142943787523205 7.576893646236129 -1.3255047239971172 0.9823961493298372 0.1944255355048587
Ni 3.3358144577242186 1.5808289658403702 11.805290948212608 -0.9905889695532746 -0.39117637670878436 0.3369572103539036
P -0.030343654110988334 2.06658562015202 11.44203175185508 0.7652549173950176 0.4603295386656782 -0.03608131910358947
P 8.275481240293809 7.706974231510775 11.363328827740444 -0.11504503939300185 1.1453179577994599 -1.6641609193199987
P 3.3774589683246323 8.753612974176614 12.074976303779904 -0.20366325205304278 -2.0454298071070838 -0.34177571478846946
P 7.24581978696284 0.5475120086351092 7.269161702326804 1.2119455251210225 0.8975870260032413 -0.628328247437576
P 3.195157429837674 7.204769667236294 5.6330831760246145 0.9950480337658927 -0.9548802032977555 -0.19445716007374253
P 6.912607978015105 4.474918130706231 8.15683803566243 -0.7599036803854332 0.9377114048279528 0.42035968314095984
P 3.8515507017366124 3.9565442771910457 5.460778549047533 0.45233906426103393 -0.38702944441994636 -1.852345616121468
P 6.517923150408999 7.725576808391379 4.046741234829113 -0.7181687625404921 -0.33368008226452855 -0.0007111671344116784
