# total energy = -340877.6667696697 ev
CRYSTAL
PRIMVEC
9.14306746767019 0.00000000000000 0.00000000000000

0.00000000000000 9.14306746767019 0.00000000000000

0.00000000000000 0.00000000000000 13.38180343435680

PRIMCOORD
 96 1
Ni 4.400603950981255 0.6074708695433564 5.037392065450014 1.4699642119964944 0.6678381326067402 -0.3852466414879107
Ni 1.0973692095545904 6.554838582465443 3.706304115311879 0.5657653371036901 -0.9877838960043116 0.6488852456533212
Ni 0.39201174843292 2.819968782350683 1.0540859295056708 0.45732546173203176 -0.23713104479318517 0.8122428561087819
Ni 8.381504545949497 0.6920634414361763 11.073696221484026 -0.7961580347317772 -0.399463299307925 -0.029598282482407094
Ni 1.7115913199065913 7.927679263205902 0.9142472884604234 -0.8043747662146147 -0.920168510848183 -0.23841556793256363
Ni 6.797760734476374 8.245062554363093 2.1144056022173734 0.38950875919837435 2.629528138192007 1.231399520080576
Ni 8.195891139047697 7.764896095062478 0.02020160694298435 0.029017984498904865 1.2957629739583103 0.46653566747639014
Ni 8.103674163430163 3.2590005823906116 6.139182862294774 -0.2635103061176623 0.5466242453988651 0.02688268332345693
Ni 4.943025554737529 3.160730896297289 7.312580332710958 0.7893960334175953 -0.06739169918109683 -0.4227068432168978
Ni 7.694649909888028 6.948100188182412 10.98375678390202 0.16595648153088838 0.015132227655748133 -0.12305016908566549
Ni 7.3499014186492095 5.851974435764841 4.0828686517374795 1.8545017432325221 1.5193083096472608 -0.49555750863003684
Ni 1.5472172580731571 3.3688545346060255 5.978186249479098 -0.7534229577570961 0.04588724945041774 0.7601373936627941
Ni 8.666420805536406 4.160772155678506 8.377744916723447 1.525162968655825 -1.049739511771502 -0.9470689347834527
Ni 7.584795957672614 1.5550254374482686 0.996416947549491 -1.640138845373788 -0.4193965478967422 0.945785697195655
Ni 0.05298224571767627 5.071860514426868 1.7892406465799033 0.02984510838589054 1.484495829953766 0.3183542505407356
Ni 3.16490013493318 3.103687300136493 1.4650000550347329 -0.20111811703368587 0.9896862552333471 -0.20423737938895795
Ni 3.0392561056910483 1.6231138587673017 12.953505348668195 0.32452772634129917 -0.4317946644507789 0.6916105524359896
Ni 3.431493687883412 6.380096282445385 13.113324334430573 -1.5214798633772828 -0.6260710759722831 -0.1721746945264583
Ni 1.6114198758390028 0.6561604452181581 9.056229074777988 0.5421857500115371 0.4817496562126671 0.42561347534073146
Ni 8.812453874598795 8.314293859080124 4.417546968779871 -0.7336627444110333 1.5428179627334269 -0.940635006232651
Ni 3.6796548173907584 5.707020248630163 9.091851378833459 0.61957081295992 -0.49604447556878445 0.48533068869570606
Ni 1.4100255349776694 3.4674350849836033 12.471947314542177 0.37505658832878636 -0.893205609106094 -0.3538334172839519
Ni 5.888363843157046 4.66161108988208 5.411440429786587 -1.714172475351435 -0.5009262291411178 0.30682362419331677
Ni 7.2609576610835385 1.2674851175795585 3.6772255044399773 -2.2900854424120882 -1.2154489102885906 -0.1491319537743819
P 3.5345177689123997 5.351537796517363 4.655555636486136 0.6195463874798879 0.5290767234334048 -0.6003615870213209
P 0.04859723069624368 1.9168348920523766 7.992121429331967 -0.5364961558259277 0.7971934179748271 0.49305993901916373
P 5.889095288531765 4.8253177078110845 2.979859998343816 -0.6197821576397777 -0.9953169711565631 -1.3216799509343884
P 3.2364812079164906 2.0695241140246954 6.505523620995258 -0.34904936563174727 -0.9827998125261591 -0.6491541830439916
P 1.7785185716932603 5.052001772503282 0.47821624307027405 0.6847086831098337 0.3584516327822536 0.4794965985124323
P 4.875732580263502 0.1445070911493831 2.9172601602553208 0.8165232286516905 0.18019525083808968 -0.3331265237539037
P 4.451320544650743 5.452221252347254 11.268294520507514 -0.12192659700418357 1.151002666889063 -0.5841070728356714
P 6.135290658594557 2.4350090816367596 5.439020491947036 0.14608391097667744 -0.9746291037899085 -0.11956452452991022
Ni 6.296912657205616 0.26246454380995066 9.446041001246446 -0.16147684849297997 -1.3643646342871083 0.8178589167439786
Ni 4.0471146875145605 0.1705940904386897 11.315746124885607 1.7292481387376346 1.4209402166893077 -0.15087876126215952
Ni 8.312364671904305 2.8089879586627333 12.344780050307195 -0.6939913939633403 -0.07531892444797351 -0.5885285989421347
Ni 3.1817325216188714 7.8229728578150635 3.473140358906401 -0.1867147971241623 -1.7963217924576806 -0.38883255906695613
Ni 5.601408679588111 0.6415242232700571 7.102445219621749 0.9884274431255815 0.16002983163380827 -0.8241727747771483
Ni 4.051421072158211 1.1137627290154508 8.881489517678087 -0.9169173509007369 -0.24657650647680113 0.0583702124087769
Ni 0.21635148446759192 0.27033763896206825 2.3156938834993723 0.06140539969067489 0.6385028739777326 -0.5904690104979573
Ni 6.71772232434789 4.9017537494690835 9.158117586862728 -0.6320604607864986 0.697196016943567 1.6447719732704253
Ni 2.3524746141670523 0.5435745445281738 4.165688382903328 -2.741782502213749 2.5934175085123785 0.5838304221355171
Ni 3.2295781921925926 5.051462331539428 6.789150708109228 1.9526212105147793 0.38514739690588506 -0.8669016811042425
Ni 5.775355532763164 6.8069403739290815 12.720782288100983 -0.23963735615480666 -0.13848193025970343 -1.1451621489478858
Ni 7.813436638742181 5.623489186837402 6.564175482673715 -0.3108782538786646 -0.14574323980780707 -0.2592715854459664
Ni 7.079211771600559 2.1539786256030373 8.40032006390739 -0.23436428068132542 0.5630348255464045 -0.42924901521078973
Ni 6.79917790988989 6.210044375890706 1.252834266723963 1.7294859657800539 -1.5401612418368702 1.9859607052071735
Ni 7.90996914207055 3.427223875508498 3.0915709075042943 -0.6311685450998484 1.3994036281691125 0.10625418057424926
Ni 2.0085307128404235 7.398368817791441 8.645541697315089 -0.36049308869231467 0.11813781938571268 0.08014411375075875
Ni 3.839759066849278 3.6483763845543926 12.077210932088434 0.3401014124098401 -1.013869280237454 0.20823698746665426
Ni 5.47464005308235 2.4750465728353697 2.218770056895531 -0.11959974864321982 -0.24391644314613478 0.07975793405593361
Ni 2.8454687967267787 7.530211846584306 10.99941428645457 -0.8924291359513856 -1.9427468888238604 -0.7946475116245217
Ni 7.953883293755164 0.9328762878477647 6.155040598018653 -1.8816798463092113 -0.785148313884835 0.053944829647571614
Ni 3.1576953979922107 5.674790936806665 2.412993490164476 -0.20292817365923113 -0.7357828760778296 -0.7430179603736881
Ni 3.9533342474085678 2.9996391955829007 4.439653990923996 0.8017283297307032 3.4195672045102396e-05 0.36567026201787994
Ni 9.04461463653419 4.7406803348890625 10.77122710151733 -1.5297904401255074 1.142394870615394 0.5239900529391169
Ni 0.6331025440869013 2.702443796767917 10.058632902719545 0.7347150969349475 -1.0296442836835236 -0.11948919120728455
P 1.676811092338765 2.1817735498423096 2.6537048485303223 -0.5160985660061821 -0.5897758410856746 1.6638356747700958
P 4.631539541913999 8.148612338639381 8.238198853828086 -0.7872175377090378 -0.06931257035289354 1.6771334203202661
P 6.412590743217219 8.61876713937355 11.716036006346894 0.027527258885991304 1.154840038357282 -1.2832668983738287
P 7.903907288527576 5.447668004889636 12.877737665221343 1.7567437730547424 1.392450851000363 -0.3400880426734014
P 1.7617136142091212 7.990089839803689 5.432757490926016 -0.9530999714688811 -0.9253343713198386 -0.11817561460218359
P 6.764809120345341 8.007370236781394 5.667822090999041 0.1144652556301319 -0.015547460816295804 -0.18845234864055932
P 5.48046418687854 2.670507063094306 13.345912991910179 -0.19754531208076298 -1.0712933266828775 0.3798223851485458
P 0.08213400112705002 0.8523030082890185 13.28271062569426 0.7965781529883313 -0.5395004898698902 -0.6212320027124268
Ni 1.5603832748180757 0.2896212819597819 11.661184003390094 -0.6126450323743643 -0.04976704412079816 0.1638764590734081
Ni 5.235667706094896 7.190592616035696 10.285467828020279 0.22199727447554024 0.736781492545673 -0.657706186379061
Ni 0.034713483177383424 2.0138976932774146 4.361798945239045 3.134389440721473 0.044848266662942116 -0.33230299941134384
Ni 8.792613418809577 7.801815800351354 6.549629777090734 0.4843775807538174 -0.7396109915746681 0.5799290301985819
Ni 8.614634473006394 8.874983311069972 8.4904734492615 -1.2306986373588096 2.036225000679364 0.43187102621466916
Ni 1.0919747999160474 1.0014401486603648 6.509042787554368 1.3255798002094268 -0.7524935039642912 -1.1899111710288022
Ni 4.582404698867338 3.22462264977888 9.666933847184316 0.5097715953468899 0.8805303276312707 1.23732128488165
Ni 6.068857132435822 1.8269676847011236 11.29952723800796 -0.20189484729871035 -0.05916236929276907 0.9960906160977943
Ni 6.282667758532988 4.407342391495842 12.06542186126142 -0.5459935537934016 -0.7136022262157322 -2.3507434224137773
Ni 5.344845071338695 7.317736108296 3.95840407816208 1.8110727255146102 -0.7175388422659772 -0.137841211351911
Ni 1.0956868851927397 5.832618562536375 6.849074370432976 -0.48691834489780017 0.42054351701699183 -1.0540754201426943
Ni 2.1841416042429582 5.106247590105783 11.104059433295276 1.2297141619583531 0.4552140718159838 -1.4811461967552426
Ni 3.01190919174379 8.867202560896414 6.946842102137897 -0.8021844434315153 1.5739324247500444 0.9793799882113325
Ni 2.9488951727118606 0.5435343150325642 1.8757541768880757 0.9512449205380135 0.4156903026897486 -0.39413211690299865
Ni 6.601184790020993 7.225747709358065 7.973667976834559 -0.1660313006328818 0.387404568371178 -0.41232395732067695
Ni 1.9471715889687928 4.121374679182774 3.816209268703523 -1.6041156332016437 -0.0604260664965411 -1.1399952600349657
Ni 0.7441405235026394 6.624719044952536 12.083661365986726 -0.07015537796916303 0.3608694981951269 0.7604317849747613
Ni 4.876016015346205 4.70901789323097 0.6252431635355595 -0.6369473565651547 0.5736617091326314 1.8261478746801776
Ni 7.082567277257077 3.9474735413436424 0.8922134108537713 1.3326775875964727 -1.1573859447075872 0.5988358944054138
Ni 8.785426968002975 6.583191233802938 8.723021877245499 0.4484451285232664 -0.8957628283103091 0.8840622520439291
Ni 5.654776762740951 0.18200555259100415 0.26102451072847516 -0.4697402904566168 0.767133365364653 -0.3410347228573869
Ni 2.6310364420611023 3.3733163513918036 8.239898550017587 -0.5918928874286774 -1.2489213310144232 1.3495465954376695
Ni 4.794862151021276 7.165558898085983 1.600677686204555 -1.5803912930015105 1.2565855324279003 -0.32379727593317786
Ni 4.549663375281537 7.5999825922651905 6.028890042854529 1.2650578315649696 -2.318085784279756 1.080872228620564
P 0.34664019183918143 8.126211824038652 10.27002518754655 1.4933008298399055 -1.0946281447540762 0.3192317680496825
P 1.5015933528251408 5.086434563518118 8.8918870136797 -0.4813061409173453 0.9539564059319053 0.7514727760092607
P 2.7248808836373826 2.241029768261627 10.730439878809632 0.6711381435142506 -0.9131092900085565 -0.4018773080660562
P 3.6129561422836884 8.51495675456674 -0.0032119595017290796 -0.7698798177615386 0.5190717897018932 -0.39164200349129324
P 7.477054053976697 3.1560496458990963 10.26789759581284 -0.019425969935095575 0.04102786447558741 0.5720506558917696
P 5.394830219633466 5.353137833274557 7.647111446371688 -0.8760841189344589 -0.1437408646657976 -1.5679335268541321
P 8.65252334341677 7.27866778221889 2.496121342694423 0.11983423325152909 -0.3436487634414662 -1.3274790741146685
P -0.0161868861425026 4.771492471299045 4.830282393291981 0.2452603587685389 -0.6497213684013714 0.17256730197918668
