# total energy = -381166.9857408114 ev
CRYSTAL
PRIMVEC
9.24325349656606 0.00000000000000 0.00000000000000
0.00000000000000 9.24325349656606 0.00000000000000
0.00000000000000 0.00000000000000 13.52843581460404
PRIMCOORD
 96 1
Ni 3.097007597950715 0.05536801374243283 10.924997110761012 -1.6673681134033864 1.3787052192794964 -0.2780956601310049
Ni 5.785241546088345 7.618529990295729 4.375353276283957 -0.174595388152809 0.10938784110722452 0.7025559957038998
Ni 2.189264629120585 7.929630178694763 6.116463373377533 0.3486876114169543 -1.1349988352616387 1.083802514893482
Ni 0.8201723836653061 9.04845208808051 12.73280190463069 -0.06624781538464074 -0.29509450868184667 0.06727317132536156
Ni 3.611487096607467 5.824155643992495 6.448234249934062 0.7792406901511483 -1.4373875636120534 1.1265337352134213
Ni 3.7650545128971413 0.040202607464205495 4.822873721109962 -0.6870157339764555 0.9879466468344211 0.01097141140983917
Ni 5.952932653968885 9.143676087274937 8.198800195520736 -0.05952540905914265 -0.7831222845937416 -0.17776015903403578
Ni 5.921357699469937 6.831531644012368 12.428736756591476 -0.4195431007769355 -0.3266918238721535 -0.3778716891800783
Ni 4.61728250025166 7.827926658685416 6.542486783168936 0.11595315302956805 1.718952927459214 0.4237805358970508
Ni 7.466256629518306 8.697421043874842 13.10100506548394 -1.0123505296000823 2.0362201155833577 1.0306076760380571
Ni 4.404410368486209 4.989619244141191 4.512368798246563 2.10959657159298 -0.4439485262044935 0.40226503042277817
Ni 1.9579244765445665 5.2125387926339135 4.660870911531137 -1.6052533463505128 -0.02578019428789754 0.4761634203741413
Ni 1.4042166093592612 0.6341361902478634 6.893793276333639 1.7436069785624682 1.4139905248443518 -0.052648479433651266
Ni 4.133869577142614 1.6313788112814378 7.3113896117641834 -0.9450434197129917 0.23828778410544768 -0.5801555443870912
Ni 0.010337654892161548 7.521364907832923 5.624744462530562 -1.1327252087361137 0.8968249510262362 1.2253314595096254
Ni 3.366457685362554 7.0612449839444125 4.391452251181738 0.7529192786478001 0.2280609641711169 -1.997414969790702
Ni 9.083742830550353 1.6107755988756545 11.295932577395847 -1.2907840326864803 -0.49896704853221807 0.44069813758799586
Ni 3.828500206012124 6.164122513568408 0.5214359713604725 -1.122848058831718 0.10371290220963428 -1.5431354939738458
Ni 1.1849666325691397 7.97346168754547 3.727165491823769 0.6450224202638052 0.6887879953855299 -0.5420389400210278
Ni 8.285541660832353 6.676328171825061 7.906626493313754 0.34897017565437966 1.1294941033933257 -1.7808555785012812
Ni 8.564946732434874 1.5933982819968422 0.05478568876191944 0.2213077046076834 -0.43064563844800025 1.014171384858905
Ni 6.98782582013143 4.739404367593612 8.400902088122788 -0.5255612540809788 -1.8256184845392687 -0.866866714101249
Ni 5.339624287190717 1.9524339838711544 9.274040163904568 -0.5997522355720961 0.36120477004735857 1.0273290052867856
Ni 8.27261959221715 1.6164047403539505 2.538367530612997 -0.06226054860211858 0.2745822476611078 -0.3346298477723076
P 5.181167189715461 8.252284434167477 0.4057261490817297 -0.5363305767823409 -0.09732679617763237 0.26759321793778434
Ni 2.0737886611594134 2.1003260424142383 12.219438066690572 -0.09409440528326377 -1.51839916756943 0.2161791251318664
P 4.942025731051295 4.669617802468594 12.173468593268552 -0.7017532972969462 0.31042085462627184 -0.41845989501508574
Ni 6.84498057808613 6.981753002477505 1.2204024941214284 0.8916842873655609 -0.972792307691486 0.16651569646846806
P 4.917420189811189 3.6056823333096504 6.508057511940105 0.3231048778518435 0.5854162785653982 0.13168804726632158
P 0.8998889761961258 6.603999711943833 10.601829854710228 -2.732197686738791 0.4940968649241104 2.474862399083589
P 6.356622514269549 1.3827352878558783 3.2704452366310184 -0.5196559443401373 0.36536584340358363 2.353696334394514
Ni 0.20715610370276083 5.852097999803479 3.1221326100464526 -0.9952871463598922 1.612245975618262 -0.30301170664639426
Ni 5.024494040196382 6.378353403621723 2.476231606541487 0.46054885376533594 -0.15139606721821025 1.1756261218646977
Ni 7.759323230028745 8.208258816989934 9.619542818096821 0.27239603864306633 0.5213171340926441 1.9352901754354992
Ni 1.997051169282871 3.739043997100876 6.76045749365266 0.7823416976739752 -0.5442374903342434 0.6429246571945121
Ni 5.74813912590135 3.8670076007552794 2.81912304157509 0.3373516175788448 2.096718430078731 1.3206558805452482
Ni 6.695018030723443 9.194560198667416 1.7998768552064022 -0.5048137371209822 -0.1963824021209134 -0.3132531818687444
Ni 0.16618907916096076 3.7368071297154124 10.8102079165467 0.4783545144881891 1.1043528282410078 0.6911079017679581
Ni 1.3641101317331086 6.989369443492474 1.4016543794450023 2.1426571015923743 0.6461351937120098 1.5424227841775373
Ni 5.714373520285232 4.660716549195032 0.543445082647781 0.2872819546159633 0.3534014719528559 1.619177926851405
Ni 6.206604507384909 0.4034384438011414 11.272136745176265 0.3057185640545961 0.18177699350291274 -0.8407461057547971
Ni 6.152411311182528 6.0652751589396745 6.48215052058482 0.34218323463953326 -0.1792115467685817 0.020128138208442753
Ni 4.118941722483423 1.1541958411385194 0.6167385382110014 0.1254613496303194 -0.30916564206293207 -0.7698664480250998
Ni 7.078187867901255 2.2731841290901262 6.9884386478490175 -1.570272973620586 0.37524942106588277 2.2246318407939687
Ni 4.223658543185584 8.756670299828665 2.5176145774979393 0.9523057577023599 -0.6084057974820359 -0.13538092273687652
Ni 7.9913935996438195 3.7352635063543684 1.3763555941804761 0.20596464649270982 0.3637864147316057 -0.9455005618550685
Ni 1.3697115434504281 6.292548279905759 12.830815517779387 0.36001486350431544 0.15393400314871553 -1.651351426260156
Ni 3.762678996706793 3.4272782944383966 10.661016256539169 2.2929851325573862 -0.9959931712879814 1.0155106724956189
Ni 5.51917448951568 5.480981365396928 10.24070148020753 -0.16688850642685452 -1.9109127750323995 1.59295858814356
Ni 3.4670335284255094 8.938827099685447 8.698608801970016 -0.23593599604381946 0.1295496607670801 -0.99235917407982
Ni 1.9934000840875885 2.268146555846002 9.778462078255025 -0.8579727540457289 -0.3781365128056907 -1.4556819910458672
Ni 2.1236560146494097 5.038331190923819 10.030374940499751 0.8186526162898674 -1.536101727055516 -1.1923154095949209
Ni 7.006922382190806 3.970661447286663 5.202508938088594 -3.822037151854973 -2.7035815656639954 -0.0768818980597192
Ni 7.451818667303037 4.5394635476970215 12.738943122361691 1.64131023997407 0.23608949090254824 -1.9615851045762862
Ni 1.1478272393675077 1.2711322431778038 3.228750768026259 0.25128033971037367 -1.2119357549290095 0.9414883553718818
Ni 2.212150925180127 -0.16031868876216623 1.3252884663655493 -0.47431556853212503 0.9230409472999717 0.6306224427883913
P 1.6685829072586822 5.85217194583275 7.06641658436659 -1.216986944199672 1.1033662959580224 -0.2829043943735579
Ni 3.821577009021576 3.854131748408372 8.497399807671417 0.5670606588763459 0.6682996456241911 -1.6455124509808756
P 0.4469436657976872 3.427269051184738 13.349400869711442 -0.7707089985310533 1.5103755259340053 -1.9499107535621514
Ni 2.63710026889636 4.25001105936723 12.347052275356667 -0.44689449620669486 2.1106813200167265 1.80274723636805
P 0.2625047066125099 2.07801282808155 8.087258156316812 0.13087480733640686 0.2696662984167291 1.2889914595624317
P 7.20568930887271 8.528907286418656 6.361002892178522 -0.971103350024837 -1.700334283916762 -2.0585288063828866
P 3.205985558589649 1.4167689478281054 2.7962875834106717 0.6339957301359984 -0.0976345572260383 -0.20402680604004864
Ni 8.345086700903263 5.4954932736414674 5.21499564945646 2.5459073787465574 2.2835388995428225 0.6139187568804653
Ni 5.009251914912785 2.475380302879498 4.607731446245875 -0.06718112583218752 0.3987991833613648 -0.6170639873776663
Ni 8.411157478057385 7.224157329683278 11.981256057756204 1.7587538615062357 -1.5878870871579234 -1.0169813435038744
Ni 7.556674136810083 1.2998325457888211 9.314070846850717 1.3482628436292392 1.2623630583416259 0.6219693950990837
Ni 8.266297206714436 1.483985888435937 5.1819454716735445 -0.39110232893773933 -1.4557375268741508 -1.2074512367950947
Ni 0.3339624519990643 4.906476177479002 8.363739586787009 -0.05356147816622388 -1.6239452663330611 0.8938576408677962
Ni 6.1111586701026654 2.3246967817314137 1.3825245416724543 0.11548572647484627 -1.12486020416574 -1.7944556857832195
Ni 8.948717381100517 3.3995855064762046 6.436816058689171 0.18100900498863665 1.1671322254610736 0.7231222498910257
Ni 4.1833117409642995 6.4954839139878455 8.771783943886401 -1.3001739585418124 0.2680971541573964 -1.6351884433470483
Ni 3.0183197795521353 6.9268480757433855 11.092167823460551 -0.04505704023963853 -1.1783224377499384 -0.08543390139478835
Ni 8.839166338734728 5.91705034326487 0.7350336985381505 -1.6909615844526102 -0.6146414939791027 -0.7545411305219393
Ni 5.748786153657476 0.7861368750423471 5.881082070301825 0.9163702201480154 -1.7635168301125177 -0.6292173349107486
Ni 1.521920201452238 2.21876909479993 1.107453631710612 0.8462788626475684 -1.2354595490825626 0.6153261787509532
Ni 9.204579885633711 8.859159496399021 1.7234277528440187 -0.8470378523007799 -0.27405671417494093 -0.9283831854484914
Ni 0.6884523217239086 9.343912691288613 9.911567703919896 0.6671171952803157 -0.5746978637066297 -0.6721138771639585
Ni 4.8848469639170755 7.994739657468356 10.443992979555487 1.7943173604331422 -0.23586220538309058 -0.905436346844331
Ni 7.954476044530002 5.6192142238664164 10.315459991475693 0.6722473174180293 0.21396669086157988 0.18561025120607388
Ni 3.1071844202292103 8.213998877512136 12.92110361951994 0.9784549052939019 0.2741202204230247 1.3093409697530611
Ni 3.694925947386743 3.5579039551465756 0.9994147856434258 0.20376429640728133 -0.13109849331143875 0.0319248737330547
Ni 7.023024130064685 3.246378577079229 10.622202910099903 -0.2822459348539526 0.5448743525872939 -0.6491842649509787
Ni 3.0682703223250614 3.541155179516571 3.407610499302899 -0.5270257544416471 -1.104229415289266 -1.9378936744966173
Ni 1.4835237257529899 4.584210138659963 1.4775618271429718 -0.7352575997019788 -0.4375405657956207 -0.5735377819602574
Ni 1.5996097484556515 7.264735213246037 8.836990476823413 0.4529620425570135 0.7557467207942662 -2.150729594187864
Ni 8.5856978368992 0.07980255478984793 7.597056063395273 0.336826084092678 -0.2562088873602426 0.5571482848586404
Ni 8.860499768179567 3.752677796247817 3.455893559115752 -0.9394816093544981 0.3727474805796354 -0.16166993834039256
P 6.391469580563764 6.846699823266693 8.89777411288462 -1.221068313357897 -0.014096587302382174 -0.8388663722335812
Ni 6.595412729294676 2.2037857806187837 12.627198655902633 -1.0417744912881541 0.2693071153050975 0.1719795477965167
P 0.7175399166632356 2.702745856382171 4.710411978166972 1.9439020854742264 -0.4268044103250392 1.8001689341179126
Ni 2.7461429323109074 2.194976959881812 5.141604215404455 -0.4753365535974718 -1.1975146944076729 1.07060247126344
P 3.109883450297622 5.466580376196295 2.4700081238529203 -0.10760838060929855 0.8917336525462578 0.8100998416238501
P 6.932273865641185 5.792599176000865 3.6062073501174785 -0.14805877531486114 0.15541367301803555 -0.45554780100631864
P 4.311155182321136 1.4616172145812956 11.897475206591547 0.7483601985222079 0.8279263282823096 0.2028096458034959
Ni 7.925100984401881 8.250287891377146 3.722348832342094 0.6822028859688444 0.18346955071398727 0.04826423432302656
