# total energy = -340875.19173811376 ev
CRYSTAL
PRIMVEC
9.18476749145840 0.00000000000000 0.00000000000000

0.00000000000000 9.18476749145840 0.00000000000000

0.00000000000000 0.00000000000000 13.44283563427341

PRIMCOORD
 96 1
Ni 2.794465483380122 1.927698983243451 6.305577036023927 -0.418444468396118 0.16585003786001115 -0.13538940737730876
Ni 8.289702637828253 3.9977710460526383 11.871233802176494 1.6710170230098835 0.3122900466245267 1.328631185441241
Ni 6.765398639071424 6.868084338674348 3.086246255868113 1.4812811796712102 -0.912134841910429 0.13980656260839794
Ni 0.7115319907718312 3.0639557438496574 5.313993220742005 0.13513486816434148 0.09426281254032798 0.5636691166962938
Ni 5.179327079506932 6.32738626623029 10.352757538338992 0.9819618900058961 -0.006415159497724435 0.864749153537614
Ni 6.031296919351983 0.9984760647436419 8.287265919035349 -0.11876542566738256 0.3886577240519887 -0.19958702510114013
Ni 9.264858578127187 5.010896814809398 1.2739088697250818 -1.0384929923234052 -0.8484385893030485 -1.5724154738848855
Ni 0.7346068819267889 1.0284459607905418 1.1347082088214966 -0.5817858809016626 -0.75818978301812 -0.5644257923566602
Ni 3.6018983860718112 0.6947753011156974 0.9585269189097492 -0.5755743527743119 0.987818348786673 -0.24752987152900596
Ni 4.385662143157353 2.972493830017285 0.8340916900886025 1.1785546083654026 0.8733448656264249 -0.927084521241726
Ni 1.7338177280629383 5.8764876647180575 13.212681022070646 0.05102817022140889 0.819043681080699 0.015959608653049934
Ni 7.167112811122685 7.559265640303943 11.461670327899771 1.1453932911220854 -0.3161148196872556 1.5097705453601546
Ni 4.1365161424928685 3.3474986984508988 10.915676318569218 2.380594958557571 -1.0575487234032752 1.0589525457293374
Ni 2.190025125136038 3.354047437611622 1.2402990503550477 -2.1370844926006036 0.3404796216848653 -0.24152248899266143
Ni 9.022086806042706 0.9431286563530137 5.90549132323381 0.3144171202698585 -0.9754464574848812 0.9491332735116493
Ni 0.40518968803782224 4.095469416953918 9.858276297006915 1.333022115420085 0.29127462071512417 -0.36920681441622866
Ni 3.3580703657356006 8.869031841983391 6.8742629317085955 1.0271567413749794 -1.0133170072784095 1.0056882870885582
Ni 1.7897254072653535 0.411390324513845 8.556338272587896 -2.4646957429632326 -0.4073717555217242 -0.40816802617077447
Ni 0.5730872362257882 1.683090257677701 10.781059775078138 0.24712517989141955 -0.5384401669261759 0.393525079446619
Ni 2.5636706479935127 2.7294005910735817 9.533430361856087 -1.9740014759627682 0.22104030987890963 -1.2435089017496004
Ni 5.7264636739028365 8.977898890050785 2.501846141627931 -1.007453092298465 -0.5045180602574343 1.5114193938174874
Ni 8.86775515931391 2.8755761643455444 2.393846135603696 0.21814370505740494 -0.2849152541559996 0.19421830459005907
Ni 5.868019309169408 1.0618785141496336 0.5593165144534569 0.17194175258004582 0.19301168587646758 -1.625672533436813
Ni 6.660269791338411 7.764444159394259 0.6994255488535294 0.5709193705008039 2.1352821492845417 -1.5313582988332595
P 8.092524051148862 6.237632719135497 12.88061585973843 0.22964373527720452 -0.8693879378612059 2.1608728532694528
P 7.862932420292483 1.7281599113406303 4.259671933214312 1.6330158611757617 0.998693343827964 0.014544730583394306
P 0.4089526872442013 2.833335419043769 13.318542814242685 0.049337927003179544 0.2583251623722971 0.05756879955340408
P 5.187244349011201 7.73223318010021 12.129390059666603 -1.21923048881821 0.17700811135935965 0.6117536309083464
P 5.037532640287796 0.9045673288742196 6.365572855198907 0.5130075857856842 0.43372376315269173 1.1833314609287555
P 7.198561454722006 4.550694043914539 6.192052392404777 -1.6003445961949858 -0.8728491569369291 0.842313193131601
P 1.1452486478970167 2.2670393998382314 7.612677818202054 -1.1726367002190707 -0.19550334195006974 0.6846816865266402
P 4.730660376474441 2.887507177206385 8.757630716588586 -0.7675627395925877 -1.001366519784753 0.9730967263057823
Ni 8.687862304893258 6.938733569563945 5.083636498760679 -1.876976784406587 0.5731721710907225 -1.37768423421415
Ni 6.197375883593494 4.831591785502753 12.019226122441433 -0.6282056058167826 -0.10008507564905988 -0.3445972433976646
Ni 1.9976409870427594 4.278429983688288 7.294015068469176 1.6392209615452091 -0.6821324377422252 1.8265199133076158
Ni 6.932928796563135 3.3962147047741467 0.40174631873718397 0.1676816917521112 -0.6978950998931207 0.6721820113977326
Ni 6.839143136576959 2.213124815162993 6.165381664810235 0.9801024681996541 1.171311553649744 0.6522791018262186
Ni 1.5705125635781443 6.55408469535367 8.14756836221508 0.7402928481330412 -1.4199693681356063 0.8237418578873167
Ni 6.416965302744362 5.6653114925114 0.9347126539785808 -0.45705086791440636 -2.1388786083865488 0.20310737954957275
Ni 1.8002144116433982 1.874464071356282 3.2261192417458426 0.999043528078531 -0.5414499002867772 0.8467581162768321
Ni 6.311202706060313 6.60651134770908 5.932861011627974 -0.47244226276881207 -0.36594614138708587 -0.34985283536964906
Ni 7.555610102876218 2.5703387891305187 10.206217329800996 -0.8583946720744957 -0.5601513333510224 1.5804514568154846
Ni 0.026201385980077152 7.596959925739578 1.3645689533628802 -0.8181180839426361 0.19780139395562707 -0.12133807149056522
Ni 2.342078949548061 1.7188190028883787 12.678744775391138 -0.2910416787687117 -0.3676096451324378 0.22416625710240104
Ni 4.982837350383018 5.110909747097077 4.836436750309599 0.06335455299724572 -0.11853762592729263 -1.9681622435731716
Ni 4.3678896182260765 0.7052220555636729 11.661270019267475 0.37541397166820506 0.13485847457450323 0.9341293439036493
Ni 6.563168430318544 2.1818690516792048 2.6292168221121455 -0.5186033347059069 0.296738729153489 -0.13987958193817845
Ni 7.9927223685115285 4.268960488492348 4.258716717404052 0.020861673940357622 0.06016664218756734 -0.8565270227381377
Ni 4.799243034697611 3.9874473674879076 6.8855409076068455 0.5364946131640309 0.5987338216099107 1.5925775506550572
Ni 4.112038737354962 7.659012214336837 0.7643232783932739 0.5307029461829182 -1.3698670521625764 -1.0058129855918807
Ni 4.7399002524852225 2.707035682439135 5.117391437455733 0.15041699113439258 -1.3892302871805364 -3.161017584831962
Ni 4.023552688162246 0.40721860315788366 4.595795844263391 -1.1222893581147704 -0.7784045674030982 -2.0562801195580263
Ni 7.315823380198799 8.253082970179157 7.009457197069533 0.3741986112038652 2.4724974983958385 0.9281553857084015
Ni 2.887663318252293 7.624872433887457 11.721722321382549 0.15843266235001743 -0.4658939201273331 0.24067042540501135
Ni 0.2671949870946901 6.2685210919230325 11.231529447952495 -0.6565838998491595 -1.6589045560170657 -0.011615986972373543
Ni 3.72077683061212 4.065931204975116 2.9592255150220805 0.7636317799692977 -1.0715193266507546 0.8671011987095582
P 2.339415367000221 0.3418157114107902 10.954916400359341 -0.8568396688825503 1.0354943147063973 -1.8297019105800232
P 5.937373487854711 2.3772015001099196 12.040277609336773 0.0017131260363647917 0.6512845991234332 0.4744279257402732
P -0.1997494030764258 6.050832919625276 3.077172624147386 0.545892252328847 0.8335760703689192 1.1119229272787818
P 7.654787221329919 5.009785457953231 9.81180504783778 -0.6899743023841471 -0.4939312858805236 0.05503394894669232
P 2.1931846851238204 5.840391528811127 10.404002111129207 1.1001094795836213 -0.9660624451668202 -0.2977589428878872
P 4.4357007559871136 1.6323995263620892 2.682988124415845 -0.9843440170848274 0.7912647111952179 0.7968164942513826
P 5.564361713948273 6.968574878867156 8.05526971607199 -1.7595383050807438 0.3408655442693742 0.027952776459184116
P 6.318219868358759 4.39425908544969 2.736894442800418 -0.9282440887674659 0.8087081034826459 0.005679566883280541
Ni 1.9848098669760972 3.806874840279187 11.85403991759182 -1.6087233071769842 0.760137136552478 -0.7098687273152291
Ni 1.2846917866601295 8.07747940213727 6.379714641574453 -0.6034222282245156 -0.6916925706268345 0.34188421534187574
Ni 0.14162543949885992 8.444888467925837 12.443414501859277 0.5568639208490023 -0.10502107949809655 0.5731423462940516
Ni 3.825079049278561 0.8164670399125693 9.197319309481378 1.748743528458085 -0.15341798274424545 0.4134531858291138
Ni 3.822149108475937 5.2110237118262255 12.174490941538712 0.40440161714980677 1.5044920705700346 0.5379496004430026
Ni 7.275768609539733 7.169803947972743 9.26195251771982 1.5341559161830547 -1.0070746259131236 -0.892247873178515
Ni 5.674992237357686 8.696018378350091 10.068737894309361 -0.19686936905966093 0.6547393904412531 -0.34722799615229233
Ni 3.8855331883471163 6.26611468286257 6.705851036545874 -0.561719963389723 0.5025784200325603 0.7734881039380872
Ni 8.372576794135693 1.2027636613955424 8.557669145385075 1.2349895514246794 -0.8270686082677046 -0.9240228515972667
Ni 1.4097423948975014 4.401790594722892 3.571855930362401 -0.08106045491744104 0.5392624057171551 -0.053351933258579086
Ni 2.1699196692835514 8.618958179810868 2.4199391413283786 0.03840353947886289 0.2616107751021043 1.4159671889547485
Ni 7.9390098487192295 1.2022952382578185 12.829398841250436 0.5818599286727076 1.023365135543031 -0.07288563241613255
Ni 1.9152995472448866 6.321618232299106 2.1697139304936495 0.7724334374213278 -0.32990081772775437 0.5293366619630109
Ni 8.251741994137832 6.106253806155156 7.226841353566139 0.7975034930160781 -0.3188602436428767 1.3017860402239387
Ni 0.5202417584766481 8.128932469147609 10.10503333966901 0.5802781860078845 1.9903675760256174 -0.2868327828936867
Ni 3.4190112974766924 7.518191360462773 9.3124843525593 0.3889431165028915 0.341910697704437 -0.9726262144272667
Ni 4.3854968173440385 6.340254125366579 2.715748352800792 0.27546516448669334 0.2877079864097884 -0.06785706885328958
Ni 2.8546532641938933 7.260797438667392 4.6195366310553085 0.39562207118496384 0.09194033505473843 -0.3246115443043571
Ni 8.867084671293247 3.8860383505544656 7.557199067637516 -0.41201671049290334 -1.1412867251528798 -0.319248737330547
Ni 8.86694689978215 8.816687852534638 3.731140003676698 -0.1348193938064517 0.7439178464801381 -1.3023018035180927
Ni 6.551705840595427 9.354226364990913 4.975234199924047 -0.03007522211882562 -1.454617811447411 -0.807208636118984
Ni 1.043380392593257 5.675708649215381 5.855390253985686 1.5899547683202295 -0.7064928688644607 -1.0506072590884359
Ni 6.690046807269778 3.4527653176950057 8.297710836529843 0.6363904556204201 1.056543679177529 -0.24935304078067377
Ni 4.0613755603415695 4.933285530225794 8.946798349136163 -1.5483772019887592 0.5786990144462227 0.07037829261324653
P 3.532048229946566 5.224552874215769 0.968651288021762 -0.0685180994760562 -0.38497796120755634 -0.24456024737772075
P -0.01870294186953802 7.901673769212442 8.08854061752473 -1.177535937292901 1.6624899593754787 -0.0480577747391753
P 3.08000153250854 4.086275464780168 5.491693671182762 -0.9596334017120247 0.7843080773717267 -1.9971964260219928
P 2.1163357362349413 8.41400927990571 0.21338327181440264 -1.8225784121613642 -0.09593351537453156 0.6078789784442886
P 1.6593292643974893 0.05621720586400891 4.728047310147336 0.9194378033297455 1.1248113532056758 -1.7826180697183427
P 7.755691076056013 0.35650307297027467 1.6349446254103872 0.6976984105012823 -0.3320438322126862 -0.42562633085653795
P 5.153058644724789 7.596969110506984 4.384784079393306 -0.8467048944413934 0.022124599813181253 0.08569769657913627
P 7.8576052551968045 0.3084309188422115 10.781234285658858 0.41336808231447514 0.7092280084074367 -1.113912446904985
