# total energy = -340862.94307939097 ev
CRYSTAL
PRIMVEC
9.26587604803646 0.00000000000000 0.00000000000000
0.00000000000000 9.26587604803646 0.00000000000000
0.00000000000000 0.00000000000000 13.56154620540575
PRIMCOORD
 96 1
Ni 3.24697606015143 3.1810030231410793 8.599606685814 -1.0877501866873203 0.6331153844135742 1.5269966794304541
Ni 1.5218923328425702 5.4842496142610155 9.270537646807693 -0.5912405985566592 -0.5545604695268062 -0.3200522070684488
Ni 0.8941811237914445 8.63559256837539 11.321707934941788 0.2006874572541705 -0.3641653953375793 -0.2683491222672023
Ni 7.398005108368297 2.002902486955117 4.536378298664405 0.419648001785916 0.18875676725485557 -0.4247159032271266
Ni 4.42998751060923 7.534584120381299 7.623677371148423 0.5979192961284154 -0.048116910111884875 -1.9025284076234463
Ni 3.921624490590145 7.800903927930667 12.746497593816146 -0.22319515143838337 -1.2836772464383701 -0.20532161359207218
Ni 5.725116060480688 2.3851291371958454 0.7260026949081622 0.61589953475592 2.3590956510332144 0.8421766675537367
Ni 6.173834636786904 7.158815785701837 12.133664601833493 -0.11798458163730004 3.979783843881559 2.6387332017300427
Ni 4.365422886748538 5.978741617931155 0.8172326566773352 -1.8604078243043123 0.24712929365647762 0.21715485878157442
Ni 8.32507453237948 4.9691132388971875 6.00545977133275 -2.324378559267003 -2.3135243901613185 2.3065795834123692
Ni 9.247029192847165 4.30610274869513 10.931840643364158 -0.445087267794627 0.9558708493457989 -0.3459894957595009
Ni 1.0082292317602934 5.187963963777451 5.233956992402209 1.5017664441087555 2.1607430125598075 -4.081094821517921
Ni 6.717213402151793 6.518830997321511 0.9980497404036119 0.8166669533184064 1.5990341049136785 1.5347567829918471
Ni 2.1201436157882587 8.920694306545544 0.012869375155010718 -0.19632892317515865 1.4520917025914477 -0.40352872762655023
Ni 5.753441843365611 5.883840516096884 6.361965276427827 0.12622316749700843 0.6980678780255591 -1.7203652344257079
Ni 0.6876188036419574 7.097762928839309 0.48302270237640205 0.029676958239142435 -0.19527245688618627 0.3850664071563046
Ni 0.8819900107585067 0.8717289796931608 8.912457869382832 0.6624326453204528 -1.2127783054349628 -0.0020427414616416436
Ni 0.2508624732318592 0.8794131706471894 5.20458231235583 -0.15271041515425957 -1.3099716613585246 -3.0434263819783394
Ni 2.1810760162629874 7.017826216720166 6.290184388350328 0.2093505322458072 -0.13735347308221507 -1.4592164865616868
Ni 4.554039058291053 7.778091341256583 9.877890799733054 0.7718693373877417 -0.5653945840278326 0.18099229281808826
Ni 4.91986510803904 5.348013439659445 12.050952759856962 -0.9094464964449887 -1.7947068825620767 0.3332077706138003
Ni 1.56681329961591 4.453726684881775 7.091291641051664 0.5723964692669626 -1.5447941126231912 2.3292981080558075
Ni 5.03897794382107 3.9927308228959637 7.363227496035299 0.1058183785884113 -1.2762706695616535 0.6288152143763235
Ni 2.280925095873035 2.7908725806854875 10.950433550114857 0.35236557448917377 -0.6391564484013315 -0.9650951961575442
P 1.5768760409351856 8.174707896901394 4.3121376137239 -0.12048112280690863 0.6446897195147349 1.1317826423171864
P 0.5936841326728796 4.791551257404301 2.9821971677783004 -1.3071362487922584 -1.2406122969280957 1.24041277932278
P 7.986249245250618 2.1397131458677334 13.704891238180867 -0.14018657165563597 -0.07210453127573388 0.37097573339119333
P 1.9221411118733447 1.3890289370993931 12.416612950424822 -2.074605914450408 -0.17646226615821867 -0.6119158675178236
P 0.9465555612067967 3.1442638248621404 9.198336087960493 -0.329815971323432 0.9232630906131066 -1.629363609135155
P 8.457817471734858 0.1317199866466775 3.409901663939043 -0.25935128964396625 -0.29943170260461976 0.5255247444160884
P 5.177011698363654 9.117158675047014 6.206238331692648 -0.043800542124718116 -1.5793196572038866 -0.483259150878658
P -0.061799686466887105 6.391091630997818 7.230609646005714 2.287689688486402 -0.002280825614376717 1.1915237669315608
Ni 7.678659226065842 5.605521399147458 4.176142351897929 -2.3173921006468414 0.11487971745973118 -3.016190943301154
Ni 4.934023366543508 1.6160799622260276 5.062267723108361 -0.7316763101086238 1.8419231352365633 -1.0614449731338882
Ni 6.892681295672161 3.814548027712109 2.491188206890772 1.5304545560720675 1.1349160457398455 -0.4784758705574018
Ni 8.574891814800278 5.028544567462411 1.2073556864321393 -0.5307137448161957 -0.8178746004732624 0.011537311215638195
Ni 8.816768241502272 6.769287625185244 2.670471788141597 1.1778663240491263 2.1148691328458287 0.18218631312618946
Ni 7.300926525677645 0.4455737379970433 6.286007331456471 -0.23878889211158227 0.1682049112454329 -0.42054403123762407
Ni 5.312469539382519 1.8223290957672356 9.638489288506547 -1.4402286326052745 0.5090128628039943 1.413607173363004
Ni 3.925228916348154 5.528633160227249 9.931431810934868 -0.5479671325800047 -0.04607571131214 -1.8407820796535848
Ni 0.5580086569569732 3.027254342928614 4.595885607412702 0.19505802688253504 0.590140423513945 -0.3013338047233391
Ni 2.691292211478993 3.8238787648286006 3.295889692886534 -2.4937764623792726 -1.6866925247636115 0.5645157809673051
Ni 2.2879115663654237 7.637537268446188 8.47037921980718 -0.7048892718227667 1.1157865239992462 2.002228589129261
Ni 9.170669108858077 1.9793764278302182 10.704657116210944 -0.7470041987149457 -0.6280647093635442 1.16456163652042
Ni 2.734267344295567 0.9735377920739514 3.9514411529209887 -0.8376232438550995 -0.3001007036471864 -0.49579405012087513
Ni 8.709821500888019 6.735763685872962 12.14020075075303 -1.1561744408979895 1.209289318445098 -0.5414861528413513
Ni 3.0180625939518912 0.0700778200715286 10.595351283571015 -0.4016433376783793 0.7981192722232062 2.0735219373576097
Ni 5.877465593419479 0.08175004404932901 8.295204127967926 0.931365665115583 -1.2795092311036094 0.0744771452729685
Ni 0.4373419337723248 9.128602031887993 1.5678909209929193 -1.2042640973163647 1.005483370166604 1.119597413104904
Ni 6.412718185545874 4.014968925259003 10.267121525630541 0.49875210430793465 -0.3619097665341831 -0.1660140742417012
Ni 6.676702992347123 0.6774949075411835 2.3375219929745694 1.0136209116720736 1.0129467684231845 -3.0027121920884285
Ni 5.801976501772944 8.978105674146123 3.9657624908427858 0.04359639653371202 -1.8705359138772495 2.2160757236938418
Ni 6.517997068482897 1.858669861378836 11.983185849255992 0.5388034638028657 0.8945343552198466 -1.3233593955193401
Ni 7.334042766446604 7.28830640258662 7.233579359258778 0.054271616859371055 1.55436555836171 0.6769400949080083
Ni 4.721640223100495 4.543262844520963 3.090838637110135 0.8899696186672996 1.678018651138697 -1.2912152066866278
Ni 2.159088092551532 5.348031971411413 1.5832833941785365 -0.8128802325824646 -0.6245122161255955 -4.781712976769159
P 6.88645462701051 3.180530463465865 6.886824335462295 1.6079620035309272 -0.17130257633415014 -1.763939519472233
P 4.340562541481857 3.575692276581094 10.68209100183805 -0.3152696980781409 -1.278257103864063 0.7510698841438872
P 3.5574292350154475 5.493237513966077 7.5039557673142046 -0.8231322493277761 0.7526940500108715 0.15806036661226325
P 8.114377778365665 9.395598248384239 8.200097323686796 0.5355579602823745 -0.1591962799889194 1.1924154255078947
P 5.947700933382746 4.77743006240377 0.4839706014896266 0.0023011373293508755 -4.882031251474946 -0.3859277267153354
P 5.409816832476725 6.62663946440233 3.953895683469309 1.2444668947874955 -1.2684401177736413 0.4091854116916953
P 2.683453280396021 7.478516304798486 1.3978296661095657 1.577557165986825 -0.8448300460161836 0.8533933622051626
P 2.1170302814574335 1.6053408119598762 1.3970698642788286 -0.6459559878216682 -0.47276750731871486 0.8811548485891469
Ni 8.797652739346042 2.181428119550402 2.4315715608058563 0.05425490468882269 -0.010162285244982498 -0.8641500865010344
Ni 6.099577906646322 3.9605874991053867 4.863359943109752 -0.41013903385421624 -0.3041316791834504 1.3358166474460864
Ni 3.962681587077906 1.8112934374695768 12.641991484936238 0.7631296435218986 0.38618946501715423 -0.5948889939425238
Ni 8.138033559754348 7.7415652581252905 5.003260771663233 0.36221752758258907 0.698853607151648 -0.9670638898481411
Ni 1.04871184393701 3.3574253018878606 0.8830629991975233 -0.518199671509585 -0.10858411425900652 -0.5684148589113953
Ni 7.44242571783847 0.08298889166847001 10.25826520136446 -0.5902607511418931 -0.006577138996885446 -0.3671321912753871
Ni 2.1424002499032677 0.5198202756740433 6.4497353601043494 2.589445411238508 1.1439678715294685 0.21165141246484195
Ni 4.262321484667896 1.5070020701353182 7.358169254335306 0.7803933156983528 1.3384445719872369 -1.1167427172649285
Ni 3.6395063644870334 4.954065456298197 5.216787324202746 -0.14611836375903867 0.19738358969191813 0.8663458086007725
Ni 3.78534198660865 7.934971887551844 4.229967825492468 -0.7619824172913329 0.6720655404245265 0.7728121609169851
Ni 5.645522185772975 0.3408925040610266 -0.016530322756526116 0.9621988484463558 -2.799412751132708 -0.8698031710217536
Ni 7.422290969323934 2.3058410363956243 8.747156494992767 0.3023956703289502 -1.554643237503129 0.45241079803923373
Ni 7.475995986530674 4.71991677016736 12.491282012046723 -0.29389354639521 -0.9417454656880103 0.5071313295105653
Ni 5.026821114529275 8.07027220867897 1.6295145558160986 0.5648646796662917 -1.9009860028369903 1.2588133933171546
Ni 8.724331862679904 6.954373497977626 9.80273342644677 0.006475323311698526 0.14060926101535137 -1.3473593579783636
Ni 3.5055866588816116 3.5975690097807345 1.105755356261002 1.3207723515184542 -1.4394963824249403 -0.9429497704087566
Ni 2.2619485818565748 6.281606040363786 3.376269313877741 0.3308145877912754 2.7209033447718944 3.6030035879934466
Ni 0.4069952633351619 8.599316663895682 6.8117614741110515 -2.1577577046792387 -2.5398033227313483 1.9089232554061966
Ni 8.088507452616662 4.495265606920737 8.261924807781638 0.8382202540091499 0.8671855308932485 1.270908891029108
Ni 8.407225788858943 0.3660502839468136 12.306804907306528 -0.6139416396986006 -0.42622642633438207 2.523728528656673
Ni 6.112976363320054 6.110798882463673 8.880968716436769 -0.377209373005731 -0.22249272605472 -0.8239632298695035
Ni 2.221095334640474 4.9466527555105175 11.564622139754057 0.4060347818778555 1.1153730906109112 1.7291296108818994
Ni 3.994732252108637 0.6693381569119403 1.670403013360941 -0.8725861330835295 2.5509523973696324 0.45134764688204204
Ni 0.07259813833933976 2.1100808744689834 7.064873702031972 -0.5924405324020313 1.6622932699836404 0.586545507073835
P 3.0351488692674935 0.5468395700451365 8.63683326916973 -0.6934542905129476 -0.3663793722697626 -1.3156609984338181
P 2.2415821864424244 7.003649426463729 10.768966001894462 0.2845874385029357 0.2725654743413951 -0.4264318574769688
P 0.5734242948325519 5.180319616090156 13.093916980920724 1.0174497984998607 -1.4090092695796765 -1.5061931124215415
P 6.946553098646624 6.0559356307588565 10.755702827010106 2.3713749826212 -1.6920558459580535 -1.8942962495216409
P 5.49838007513753 2.4008903922456493 2.9952166501242616 -1.1168165079256571 -1.0373779048823553 1.0475610160629443
P 2.8117856627827296 2.753280921815966 5.219866374792429 -0.12515590257475864 0.00148918295101679 0.9878659141951568
P 7.843147056544458 8.135791217766075 0.39584934111328673 1.3548170998079891 1.5182901527953916 -0.7069479541240082
P 5.055424873693735 9.04962897087125 11.450081087182827 1.981783433901032 2.437746982288531 0.4066757578959641
