# total energy = -340865.63925990445 ev
CRYSTAL
PRIMVEC
9.30775318511388 0.00000000000000 0.00000000000000

0.00000000000000 9.30775318511388 0.00000000000000

0.00000000000000 0.00000000000000 13.62283762852509

PRIMCOORD
 96 1
Ni 4.472040214406653 5.4619104331159285 1.55815321365282 1.3286170443738539 0.5859245856603845 0.05226769905546482
Ni 4.196270109940054 8.591614440020907 7.5037996677713465 2.105813193291148 0.04698176806617715 0.5392415797815487
Ni 1.0962857582113217 7.4102372043209375 11.845411270834676 0.15169482940555165 -0.23479802578463432 -0.26067026556570594
Ni 7.017375567716165 4.954721666999772 5.45950158665191 -0.19099414122580655 -0.8502237062279292 0.1742899410972482
Ni 1.752994267750978 3.6047996408420877 -0.08818072069346963 1.2035632145945983 1.6249438828009046 1.1891717217596165
Ni 5.730373951515082 1.8003241915127122 0.7145794635197117 -1.658147109025751 -2.4346891692988133 -2.8563421173299
Ni 2.1701398318079375 3.063060495767513 11.489991001255262 -0.09328373645651032 -0.6595440109187479 -1.6362467094082336
Ni 9.159145368525918 8.652049679939283 2.2039567598337255 -0.6528912814889207 -0.17668698057451507 0.8780867511867845
Ni 0.10169092410353002 1.3772682043311308 11.722955680670172 -0.8818953262995973 0.5527468133568352 -0.625813194325206
Ni 7.605513861257257 8.717995109605337 6.466025236943189 -0.2606314419079705 -1.5756545496474734 -1.5819046443222433
Ni 1.1461660062819476 8.324454007035056 5.658735900143487 -0.9357532526603174 -1.298997421735208 0.7021934701581584
Ni 8.014747835304881 7.103946977924206 12.921765406874242 0.18139338491124887 0.26569317270159404 -0.47522111106552994
Ni 6.304168997756896 5.194470767541512 9.506452069856934 0.16430146242596863 1.6101975777296655 1.0062721846164864
Ni 0.8138271024732997 1.8525034545625216 5.515954969857351 -0.6503919121058347 -0.24851306137788168 0.5077993021118674
Ni 4.1475626387414 3.0910489088946584 1.5789681415797354 -0.7348264257018312 1.211684301039836 1.031778556417707
Ni 8.196639943495994 3.6342679866886267 10.320402965444497 0.22295089663806117 -1.9850417929373299 -1.0124402611004113
Ni 8.641075839208687 3.7748243640191963 3.2328078479066473 -1.6548134166668276 0.5434731013643931 -0.4616045487233599
Ni 8.974265471637162 1.460516746735251 2.9091028157364227 0.6432092783144664 0.5453795743584866 0.9289169464647744
Ni 2.3153593933675394 5.758958060831167 1.1017698862507344 0.2782650958293337 -1.2493059680473517 -0.40268360601743547
Ni 0.20016229646090786 8.549208317570866 9.910532341094948 -0.25148191419821847 0.3971678184055289 0.24442500735143713
Ni 7.353431988053905 9.36955643176245 11.454395361640316 0.5984440582836339 -1.584679635964219 -0.5837843993889301
Ni 7.076275028397434 0.9264927980827218 4.472772734563988 0.6828801145415272 -1.3942375105871407 -0.549601325749318
Ni 4.172097875523294 4.911543001054701 5.274367588107559 0.013681097031518374 0.29665336852853424 0.6150474711682697
Ni 2.8698780832454296 1.4115393507009846 8.547485452499421 -1.0492170636091285 0.4268697163453358 -0.06377569969506436
P 4.469620198639092 6.780921411719489 9.797680490426481 1.101020421433665 -0.6094900316851504 -0.27204354039965406
P 8.715900865191102 3.7347824108190033 13.194017180724925 -0.8456312017612404 -0.8108506037469455 -1.9929844448231744
P 8.947868684264837 1.4883934668269703 9.601906799482519 0.30634822721879496 0.019717275923269266 0.001030755257359515
P 6.395775902312057 9.124836991144255 8.253110080656748 -2.343832040005925 2.7911703086182573 -1.9397692942527753
P 2.313479227271203 7.578549300954849 2.1233646501221517 -0.9576153428407312 1.075660859622954 2.3801460439456106
P 2.756695807347163 1.6402680717473668 0.6438666027915609 -0.03500428398932681 -0.5754396269686607 -1.37554507638396
P 3.546477260843852 4.030052257720378 3.4298083006897064 0.4797935609275608 0.5056578302888324 -0.7255802245132148
P 4.802390982184719 0.9376351091417525 4.6178284796716325 -0.9930214902541672 -1.4639426883927626 -1.4051323031227734
Ni 3.057373458713743 8.490783552290157 0.5083485121339955 -0.23186902506329746 1.6572569931113135 -0.6195294181990234
Ni 5.063026680351108 1.560928785583154 8.919729485539866 2.0167812901324553 -0.0063907340176922196 -1.7843000854064561
Ni 0.5452416525104725 4.47172375080628 5.06036652455738 0.5035317850847651 0.02816720646283536 0.9795175422304615
Ni 5.072734666680209 8.950949550492 10.237562102619684 -0.6435296377683627 -0.3566917126683534 0.2845383304325551
Ni 1.4939874263512187 4.365028978715669 2.8187561809309853 0.6273419722649067 0.9344990685382423 0.5311107231442982
Ni 6.756218635384457 2.1831055316702965 11.918007089985048 -0.10485344357198072 1.2122949380406411 1.7448089692903692
Ni 0.5893734323578443 7.202413696405108 0.6994031723312147 0.32134598617920784 -0.3328102780650656 -0.21629662454633716
Ni 1.9929109078458567 2.265693223614813 2.501384143869411 -1.2305770241792806 -0.5716680757413704 0.36065146864704983
Ni 5.714699695543644 2.8472788590775853 4.483480373560153 -0.3115930205575021 1.8058574998622574 0.28051326843356206
Ni 7.1406939865793335 4.836373588213057 11.9807813682203 -0.4258114502841505 0.7144506902589566 -0.019258076898663604
Ni 4.391528151370468 7.8070825591892365 2.848126795371527 0.3929707496050458 -0.19100802518287746 -0.6361770540580335
Ni 2.1062234922854537 8.052937545667593 8.295027546076803 0.035786670681306115 -1.5125398805751757 1.0339254275573806
Ni 3.0935620021917414 5.727153468993635 7.801989356773815 -0.5797038015616532 -0.224846056778245 0.36036119110014064
Ni 5.712065601458184 1.2951831310460309 6.427813187973391 0.08770367126557153 0.5420625941701116 2.245958884406519
Ni 2.1550333487665814 3.4473776151622038 6.7095467697564395 0.9218014184659157 0.8530701745377889 1.0366644237550984
Ni 4.387805050189605 3.953216757100297 8.990677832417706 -1.2959514358200326 -1.1030703619841584 -1.4768642815504371
Ni 0.23747242416964165 5.4545573082837215 9.07778164609461 -0.042363552567875426 0.16901532296187022 -0.3128623741882289
Ni 3.5923272518861933 8.43051585192492 5.027494333456236 0.47259112964185057 -0.1816486954551646 0.2989174819723626
Ni 4.276968328035282 2.1033008578584758 11.054686941963933 0.17002808049710072 -1.1191443847278852 0.7262718512636007
Ni 7.200477683791058 3.6872477164923216 7.963038613779156 -1.338728421776243 -2.3592247204119112 -0.5160466297223241
Ni 6.084645644380201 7.237978620435311 11.638398468200979 -0.6020302329729954 -0.9641960813820426 -0.24922088607818366
Ni 6.671034080366287 3.8693259797424777 0.5062710216750733 0.4676785228315816 -0.0038718242505804286 0.9757279932810422
Ni 7.237597002564272 6.06973462415084 1.3162456452014741 0.4078263265606396 0.6770200562163243 1.0610420812685146
Ni 6.180645808328779 4.984739170270489 3.196244201984676 -0.07925219806410867 -0.28402385268998176 0.14009632593467486
P 6.112652673013249 3.0363193215359567 10.111224248698832 -0.3981445804965014 0.9646200562933388 -0.3870829233657011
P 8.04434648969275 2.7602606767278406 5.149528282412007 0.1850417802971136 0.7151209768531039 -0.11858107757071837
P 2.5820172076939745 0.29661388642766695 6.622170238918037 -0.7034723368705821 1.5671382846463462 -0.5658321857858835
P 8.507965664239846 8.528554413770022 4.383297305434874 1.5884496445296126 0.11396517606526178 -0.2832273249306154
P 5.530415494843826 6.661735635167079 5.343844379243663 -0.2922218151197419 0.9602527804635785 -2.001231772433631
P 8.379081209111284 6.6145080966878185 10.73062728440623 -0.7389124228457468 0.7772360010162936 -0.13200249318294685
P 6.381711887601342 -0.04574109033280041 2.062674377772887 -0.8676694125082025 -0.17533509453231094 0.9813713076097486
P 2.819132214150253 9.1590709065023 10.149068641427021 -0.29147850919581414 0.12807076222870847 -0.21389829951748968
Ni 6.950899596131837 7.633893200008393 9.357090558233622 1.509527319001097 -2.6632355577467814 1.3110008739539871
Ni 0.7196149578668303 0.4397001110106339 7.82032563008957 -0.06351910359956803 1.1716568528043045 -0.09983002221546032
Ni 4.417571244130612 3.6533116492287463 12.96945833300111 0.35877944843531756 -0.1492715646760397 1.1754955098241047
Ni 2.156261972156267 6.391643260001297 3.8647986887065473 1.390630767072489 -0.12511656469639099 1.5314829973365818
Ni 3.715673594008219 7.1886568375418145 12.235582966836276 0.02189911406593648 -0.03762912320668358 -0.6555474881648452
Ni 3.8984871697415957 0.94236344764145 2.5159200616547994 1.1069360155871517 -1.5782595913704884 0.5259026965807976
Ni 2.4518017438932547 6.1847039886159205 10.299601068371715 -0.3885772485230405 0.14016831682319086 -0.9918069011207757
Ni 9.236483487805415 6.287117194348539 3.381133406626385 -1.2934240414124887 0.16956425348680476 -1.353532576668611
Ni 7.95162265478333 1.133991465420522 7.707378840340993 -0.8010390169731623 3.1614310182202976 0.5215698735333985
Ni 7.538041960107049 0.3555598858736969 0.30140830997332463 0.883256211202866 -0.6290026477967813 -0.2966834504355213
Ni 0.08402201667444449 4.884382977940298 1.1200791670829284 -1.3569572860794437 0.7656539526056492 0.8034393988845389
Ni 3.1125870492259566 2.4176422905588266 4.813425323309506 0.18294890232382685 -0.5764467280769363 -0.3410357512986514
Ni 1.6762239214015613 0.28159768858994705 3.8578374202736265 0.4118012520479875 -0.02698784144275352 -1.489640350269183
Ni 9.021288239551474 7.3697205557201855 7.864531871960559 -0.041977887093682546 0.3023601891053244 0.16014193173164035
Ni 5.3847863921543295 6.451948191378342 7.410659776304967 0.9879358482011437 -0.4094852023203012 1.1002966558937632
Ni 4.110052394344194 4.623784510785719 11.04739897140239 -0.1773672944709913 1.7861121989145303 0.3880229186814672
Ni 6.823057609333918 7.427624086835574 3.610296799735633 -0.3948422555961458 -0.017320493556318556 -0.23704208462380466
Ni 8.742027727727816 6.630275430188778 5.661474241062012 0.14233832789131615 -0.3193330695142371 -0.19213031171277878
Ni 0.31903533251412547 5.04067876551297 11.398950008079591 1.6891016484257364 -0.5935947006111325 2.235708410323104
Ni 6.871485847944006 2.3015373802335817 2.4141165137405483 0.5832971753398664 0.39674949992118763 1.2842395466997432
Ni 2.2462679432036547 0.4661080676865025 12.15138037975456 0.2696166761257163 0.16537926887117968 0.469114998167792
Ni 0.3153550469968413 1.981816066326882 0.3854498729289687 -0.6969504765916642 -2.067758038290639 1.4893978952410736
Ni 0.20984049798056395 3.2377297876677495 8.267794922489372 1.2347573808092154 -1.2373248844260754 -0.22757913943869193
Ni 5.237053737297645 7.817032547095095 0.4412684673830728 1.668827214447416 0.62310196604163 -0.016208234328746282
P 5.372062693868727 0.3624532077100667 12.447962619822189 0.5063474001566893 -0.20301096318102455 -0.008621423120423861
P 2.008492086287773 4.0835625294423465 9.62242294853967 -0.16470538273260665 0.029730694295213314 -1.337577081780619
P 4.720371063170285 3.5941981102295775 6.9472248952663245 -0.0049797126027785205 -1.0033028175755172 -0.9319891576321949
P 2.250233045961275 5.653631528424523 12.550570357591507 0.12527314487891328 -1.05689823430347 0.02867268534434417
P 7.836988369424526 5.521582437292227 7.4049792546782625 0.5505482630436195 1.9310954206278617 0.5477506456938245
P 1.7037841778929073 6.068189537160781 6.160519654120324 -0.34543002371160514 0.1302687983212918 -0.45105171290817797
P 5.741915565175761 5.791684120210961 13.426355448366156 -0.4137565760021455 -0.23022711858450026 -0.9263715543351013
P 0.1296877142083324 8.82753805409931 13.02506750301379 -0.7735572666131257 2.3694764800469064 0.4458195179749612
