# total energy = -340862.4132708899 ev
CRYSTAL
PRIMVEC
9.34226710278121 0.00000000000000 0.00000000000000

0.00000000000000 9.34226710278121 0.00000000000000

0.00000000000000 0.00000000000000 13.67335223575218

PRIMCOORD
 96 1
Ni 4.1553002044854574 4.91635863914086 10.760463242504198 0.38142675352118827 -1.8967611661223656 -0.6015558644397382
Ni 2.9651234221055804 5.4434026290147255 7.867865707169668 -2.926860792175753 2.5918082550437296 1.337648558448503
Ni 8.911392254132636 3.6290409650352284 11.938996757586729 3.2226345863128114 -0.9087723531960994 1.5167947991967878
Ni 8.412281642433419 6.122165034124815 4.747401872932108 -1.4554328511495387 -0.97076910661387 -1.8041996525438606
Ni 6.330049158252676 4.887705906411212 6.13751624717384 -0.7491577547228387 0.11225333558047765 -0.1361378555075591
Ni 5.217749513151687 6.603170332478723 11.871655828971843 1.654072424735745 -0.3118244198420178 1.5468666788815038
Ni 0.28347614291125833 2.414406127785373 4.927520779690383 -1.2529080835763133 -0.6045337161211396 -0.23669190037323753
Ni 0.6742706431614697 5.594887487577249 11.118800838923518 -0.43525511219555363 0.25471250532037426 -0.7645010699481286
Ni 6.571789657800245 2.265854741044536 13.002277528011334 0.36043755286403084 -0.22327974073238963 0.5872129654545049
Ni 1.254442236715468 1.0909992764594494 6.5003801719294865 0.4680767867112648 -1.0129154009646169 0.533645830861326
Ni 7.76694586846343 6.542557704519817 7.033545215107709 -0.2909889711539053 1.242049029374622 -0.04635544733608791
Ni 2.732958746179755 1.0510517429896162 9.913767983642861 -1.5975762894212293 0.05536510703386594 0.329110203505659
Ni 2.3238795610588334 2.5512423117733642 4.071295474315347 0.6008372411061588 0.2588846344201928 -0.42330642447410965
Ni 8.805301470670654 7.904650883277588 11.404040801834567 -0.12694616170596199 0.08459237933009948 0.45150911216057077
Ni 2.372104343044633 3.902292930998548 12.02416833689865 0.0513852964505115 -0.12247938418386004 0.9829749046514427
Ni 6.112570525969174 3.2030709612722443 9.55789207456435 0.7291867109175507 -0.34039786060433636 -0.8180152398161847
Ni 5.394019405927368 2.8954955065418133 6.8942959235670385 1.527962128667517 0.9964282019428711 -0.5599271331553582
Ni 8.353229173054837 5.9692508087192415 2.119438062301327 0.6580417153416086 -0.5108080070312042 1.0802070842327398
Ni 0.9339398872090292 0.561688852623989 11.965468070984011 -0.47919063723623917 0.022494324447774165 -0.1969022791801254
Ni 0.9666163343132005 7.0422662213037075 3.7473187357309308 0.25326420290962187 -1.5019999002758002 0.43771180126616227
Ni 3.5486040466125752 8.407591824425502 8.099875301464156 -0.6239280614873512 -0.5690710044381554 1.5178497228238634
Ni 6.120875801285985 1.077714572859332 5.714066787033437 1.135547251565941 -1.4786738239553503 -0.35774277964068707
Ni 2.5154520870954102 -0.04244939255851934 13.566617715995179 -0.9669355918003928 -0.11445137167306095 2.0117313864133743
Ni 6.7046366938014215 7.544777418172011 13.518406013183107 0.3933764696838967 3.5514899934951862 -0.2186450701738557
P 4.600515278161412 8.42674347166899 6.2586490146488645 0.5297351829530104 1.1711683432036604 -0.08549792186350436
P 8.235395160039166 3.9795347941249704 0.2682491820126425 0.5657254850046902 -1.1550387846316497 0.9983629570717387
P 1.7074487610260896 4.704737608233782 4.5297625536571005 0.08579822671274256 0.025851413845465153 -0.2786787863279846
P 8.413589559806146 4.502225287601047 6.229264782417184 1.285920791056908 -0.38239451675109626 0.9046945835822999
P 4.523637763445962 7.0068029759689345 9.973849036612423 -1.6021484821729441 0.9489982905956816 -2.2693677502487626
P 5.005268993685389 2.78488306587698 11.33199604181134 -0.15659406647938193 -0.29023306682448724 0.9728627559181051
P 4.272396178412233 2.777315829649065 8.577224970761293 -2.8776424214695733 -0.0674786024679483 0.8202446433673356
P 0.9136241935038142 1.5959394627342443 2.1912772924516957 0.84806989310972 1.1927748657298425 0.3218378382139619
Ni 4.187970112002765 3.979880458002048 3.856773669520902 0.35422731028826093 -0.04341256265768007 1.1099064110693853
Ni 0.6762437299408965 5.968830406706579 6.396872525278639 2.0926067219032025 -0.48118401351718415 0.46911294128526304
Ni 0.1440073080973089 8.926909759533334 0.4208252173546968 -1.334197880895741 0.40812817407177454 -0.3988200092969712
Ni 2.4037839702654478 0.17916506130288043 3.6833690500181846 -0.5801429459816008 -0.7738696556472221 -0.27429171300388244
Ni 6.101565335504379 8.145690712804054 8.112714378930852 -0.49500729255352166 -0.3047752263047203 -1.361675003270087
Ni 5.207024590695333 2.4654896434572744 1.2175159923766317 1.0561960660301228 3.4078098068639955 1.3739741323524144
Ni 8.933944486545212 7.619366077485188 8.85845896960502 -2.52391801895966 -1.982490744380702 1.3086439436860366
Ni 0.17790665794497898 8.212170284406332 5.505342793106949 -0.6904126754731464 0.0974167847882774 0.4666313125139899
Ni 2.247329025686566 4.920487921131896 2.2553783228890003 -0.8949806987286457 0.672872352596538 2.6472512665033827
Ni 6.490838914695449 7.990833295873289 10.43157807686528 0.4518173874296089 0.8484103071682743 -0.8638577520715961
Ni 1.6355039632592077 7.626055140619988 1.6646761260311678 1.236202340785858 -0.7269642493449351 -0.9099023530354846
Ni 7.505502527922436 3.272484004696206 4.747045932561387 -0.731558810694153 -0.5499296556230141 -0.6952977714795896
Ni 1.4692583229187763 5.2676559031881345 0.14315342489825775 -1.054795071917538 -0.1974059582894213 -0.13685005108323528
Ni 4.681409967664519 9.042912688227188 4.110770289077609 0.505367038521291 0.3312812430150488 0.6526287718561535
Ni 6.496023872851613 4.602215570745955 2.993835011117002 1.6943287011526302 0.44626020505680564 -0.07294785311263566
Ni 7.03504464895287 0.42750213554246336 3.202231091473615 0.031789890817087184 1.626497857551586 -1.1955814819407022
Ni 2.2275421042906105 3.9760781553541946 9.640260039565165 -0.41539848248094263 -0.3527152445191087 -1.2089782149625823
Ni 5.069347602682019 5.308817931361214 8.620939306264578 1.5264516055602615 -0.14737203366048168 -0.6970967723615414
Ni 3.78931689679586 1.307328809908341 6.742657851826568 -1.0023669360248093 -1.686030208589264 0.2095225390472972
Ni 5.099233514648809 0.4089371826633116 0.7071983972465433 0.8368696535185265 -1.611347889284025 -0.3408632302765291
Ni 8.384142734385913 0.23126688407211812 7.359463276763928 0.36248286542883373 -0.1769600317302436 -1.9653456000599832
Ni 1.19155009562124 2.394170777575911 0.16826824113468264 -0.07518496997327051 0.5333444975708235 0.06686359459176872
Ni 8.34462494519569 6.09874397088607 13.507699775260647 1.445658031150962 -1.2842901974320204 -1.5253876830721214
Ni 7.3985148868334445 1.4140828943236323 10.911622055950234 0.6313076417808741 0.6369794953546707 -1.640351989825859
P 4.379570664840187 1.8342046389771416 4.660384261671252 -1.1027564302881654 0.9336158946023404 -0.20253505198587052
P 1.308347117005678 2.4398264361509994 10.897907608070506 -0.9106281754579155 -0.8387624996658651 -0.10646912479853275
P 7.8190383489657185 7.95888274291098 1.7139276231545575 1.4967995870217836 1.3339844793333542 0.326098927483161
P 6.663381242958861 2.55976245922998 2.8974106712661625 0.1951935240191348 -1.5075812510183197 -1.297665590297662
P 3.186591202375896 3.8242663174484903 0.8118850379862326 -1.4356438414480692 -1.96940228662786 0.41465080568164064
P 5.8586944216560966 5.751837572304376 0.16625965374085333 -0.7034959910196659 -1.4184423899681184 1.083386767512302
P 5.644616374541683 5.980695085730594 4.3172381255361465 -0.7274869546176246 1.222255648797779 0.5912848215310333
P 0.9290155783007156 8.44755804242923 7.625683318395455 3.157369189446098 1.0894316881548012 -0.9104577113183223
Ni 2.8898714618390913 6.358776629117909 12.037827665403386 -1.5261950094647652 -0.908253761688468 1.0576253422774817
Ni 7.6058851862791625 2.6495416446006765 7.029306628593382 1.750344811506934 -0.8941728581153698 1.0039749039418775
Ni 1.2778819844881084 3.501649812931709 6.834338188521191 -2.120780870344573 0.3688237200451971 0.3929617507439813
Ni 5.876837104069197 7.678166305656173 2.4123891323512905 -1.080829548308087 -1.408146407358749 -0.027092485341417852
Ni 3.2218862869056037 1.4872982403954482 1.6284001034719155 -2.1319723681850187 0.4431921076544432 0.9357907907664722
Ni 4.668256055801674 5.351371957309551 2.0425119677977484 -0.8325152332045728 0.9092199822564792 -2.331805447858694
Ni 8.870790761976439 3.106826927173502 9.754719625759202 0.32362501202137167 -0.7581378467342621 -1.111827025130866
Ni 3.4092921618833527 3.8204359879997924 6.644797605545814 0.7982974496722832 -0.9645390665437582 -2.2640237123280302
Ni 7.74168437863592 4.642807720635203 8.457583229091176 0.028629747921550694 1.2102889633542058 0.1750517589639372
Ni 6.883428998653075 4.083645016993965 11.691057663919134 -2.2613785613956994 2.781576751392551 -0.9789853238760753
Ni 2.415228247276801 7.781594543037962 5.913342012168676 0.9103057591214904 0.38103723139225343 0.028898685312221197
Ni 4.883670047089658 0.8274978345098026 9.495212937156538 2.236016942702459 -0.307717853872812 -0.11382247983981042
Ni 5.926902312643762 0.08754918625019859 12.182026489973127 -2.23372429001354 -1.2666516584146508 -0.5496368069729437
Ni 0.2583164837934828 0.4316108645462128 9.691343555237067 -0.7493233337664256 0.896403032997469 -0.5568482371197184
Ni 3.286927149397881 6.963604333601182 3.4491163774294717 1.0680840757169605 -0.4145150514347248 0.370435287506691
Ni 3.406237240591343 8.438150379612551 11.671190399027424 1.1220541021755128 -0.012200912941566085 -3.0314890071108045
Ni 1.7028149966198598 7.746009848232864 9.825356506153359 1.1560767389778606 -0.044598869656297384 0.2942802403106674
Ni 6.956420130318137 8.043383547456033 4.509471149845949 0.09309707436700096 -1.9723122611858033 2.1244480347835153
Ni 8.063899165673936 1.826777536753447 1.2409034234543634 0.5634606002299135 0.08920905216650443 0.12376287888197395
Ni 4.298657290803183 7.5468233746336315 0.2708640825313998 -0.5705121077600561 -0.9543402716338855 0.0737117278618537
Ni 9.253113694558165 3.6096651033849865 2.7612919733797807 0.07720354306519606 0.1561073566509505 -0.24862773257887502
Ni 4.607344475300431 4.113885935104782 13.104841605700429 1.657367807657565 1.024658400433158 -1.3761122617413397
Ni 4.5713674052835165 6.335607807086761 6.445385983313135 0.08024901475973921 0.2964314823257153 -0.759447309574305
Ni 0.11097211794233285 9.160728016708964 2.910687901052721 -1.2238628453838987 -0.8282744556503477 0.4920664647576429
P 3.8710430480573432 8.589812741247087 2.110221915957082 -1.6957019273510732 0.6723509328754291 -0.18387064280714788
P 3.957627178131809 0.9091987616505262 12.439359233056983 0.5940400156786673 1.7847500284596811 -0.35259645955305724
P 0.5718560417435447 5.544812936735736 8.626367163361392 0.7619376800963265 -0.5794544045550084 1.0425000566002691
P 8.363841988307815 0.5287769803927271 5.110291956035208 -0.9634640883120246 1.7094246762538043 -0.7443037690646471
P 0.9360484368592027 7.1229740654678535 12.803808540513712 1.0825305901595939 0.6094429804972987 0.5720776524749631
P 7.156568857413018 0.5197121787730407 8.90742272490641 -0.8431092066703351 0.880845030658212 2.059782219174014
P 7.551064763828045 6.1843004515962505 10.786005000340149 0.2061993882113352 -1.2202733282604277 -0.014424145845129997
P 7.887956252241435 0.269302055497687 12.647003260924278 2.1172234920106185 0.7374870032531299 1.428223123503966
