# total energy = -381160.92643311975 ev
CRYSTAL
PRIMVEC
9.36614657338400 0.00000000000000 0.00000000000000
0.00000000000000 9.36614657338400 0.00000000000000
0.00000000000000 0.00000000000000 13.70830225476228
PRIMCOORD
 96 1
Ni 6.048048673942219 1.806823340364381 4.212506854876759 -0.6258617881749544 0.9441363345176902 -0.8468213654145995
Ni 2.5671109243711108 2.483677290469468 3.0671095479400083 1.6311592675829971 -0.1467716810723214 0.7546894831743454
Ni 7.7880632906177345 0.03126888041991854 11.693003686870162 0.021532474755137112 -0.04511334739887069 0.24705370322353581
Ni 4.449612729253372 4.355014648606022 8.742606628311806 -0.9648653395349254 1.1747411481565833 0.8926471654994625
Ni 7.928489926572755 4.393359652781294 6.053806044256469 0.8952900024389485 -2.1449906348215575 -1.8692938139400321
Ni 6.328995607318249 7.441965441500817 12.876030424382042 -1.419805331753916 1.2668920565602309 -0.19753939854349203
Ni 2.735551704802986 3.1434848537648343 7.476480628331862 -0.5425017385900592 0.7025107442882611 0.6061874496744786
Ni 8.627597840996467 7.6085704571993364 2.7691593120286115 0.7717171280805936 -0.455122540543442 -0.6067816316150518
Ni 8.216976607960778 5.050591525762005 2.6990546413516467 -0.03115457122593344 -1.1684869397167554 1.0091618474594555
Ni 5.686299993858794 4.340553318257555 3.414134645570202 2.2924793965655614 -0.8226036305178156 0.7952707470308176
Ni 3.1021052180915683 2.995565300530815 11.917011005228426 1.8507389337559805 2.028882958491996 -1.1369384754865128
Ni 6.419350823556367 4.417730366231235 7.771757766003975 -0.16512987186453496 -0.6193229586151722 -0.9847330249931299
Ni 6.55647120976203 7.6739929911915885 6.16193633350969 -0.43624113025790673 0.33111052176513944 0.6709921048546895
Ni 2.8647295986929118 5.304039452724113 10.893864390157168 -0.6920319562441243 -0.11471542396772501 1.326496398486425
Ni 7.675500940793986 4.317325274692662 9.618649481517798 -0.5840299397408328 -0.11813010607622881 2.379961181628314
Ni 6.400375010547304 0.21462899576893854 8.071324598818315 -0.42581736382142144 -0.2919083976443811 -1.6314701139551968
Ni 5.5568598478641045 1.544271518908291 10.922020900062323 0.6294222518327031 -0.4419878029336968 0.47679154087644343
Ni 8.041202134742084 2.359116906852725 11.586215566424544 0.8060490685932441 0.9860075208301794 -0.5402913612023018
Ni 6.343232150148346 3.2616294269614357 12.614654054324093 -1.5923744335053156 1.2023794786991422 0.8705531618139007
Ni 1.2155291394388523 0.38949401615289453 13.32681369403316 -1.2454002052350421 -1.3776492672111564 0.6382293086013718
Ni 3.444943648192122 7.225794778001725 5.466870847957998 -2.3582513007550485 -0.15091989891274007 -2.3038488147447675
Ni 8.07517314845574 1.0523802318352695 0.26492145654557314 0.5233560188995439 1.112797102353619 -0.37677151413736404
Ni 8.310001175979538 1.0298921138516768 9.508311591511253 0.2724662297593695 -0.42800254439819835 -0.009055682444365049
Ni 9.063591965168163 6.413955923115489 4.735012328722447 0.830248548657583 -0.2854330743326826 0.7357335108971329
P 6.436977911455209 2.1043015224872006 9.024641907922613 -0.04562731092081174 1.482712255690782 -0.9123659840846287
Ni 8.985337810335627 6.119353147998484 0.7764685388707261 -1.7298536335321175 -3.646467829824668 0.0842337104391001
P 2.079340741801538 4.697928007879365 9.157790111355746 -0.6758342634383393 -1.6708833256454967 -2.7289550114317773
Ni 1.1281617239657356 7.469726700019504 1.0289620554944212 1.8486951638530744 3.4377423327573697 -0.31978455522935895
P 0.4383543931145807 1.1918983515702124 11.494685835402942 -0.013706550952815104 -1.3127484527727131 -2.0757816799260635
P 2.7169786360976693 4.047795674020505 0.8096284442889318 0.7524168850900848 0.2040170358480357 0.7208671353082617
P 4.9229028491812805 7.92247686045636 1.6698359534404197 -0.694738813652326 -0.9289472854820775 -0.11230295787149046
Ni 0.1414072715039102 5.683330925386991 9.134856164794053 0.3437847747986983 0.6505749746509183 -2.7681486509121034
Ni 4.44506078200638 1.5753952240559288 7.342180388867081 0.2817160304924116 -1.0293002700805434 0.7960595614806999
Ni 1.6964526688447403 8.1465150870984 11.72346333222395 -0.31281043790437096 -1.6302850925081602 -0.6142645702556583
Ni 2.6763295598591057 9.218395636152263 4.198373339659248 0.16149638887700574 1.6400090046641433 0.5977863700949769
Ni 3.283761631374276 8.688103148024375 13.490820540665188 1.2063158376390708 -0.7687261637730696 -0.47309660852335933
Ni 3.8895546272346655 2.3432600206610457 9.533809052397023 -0.8083476348194336 -0.9707433955822572 0.5729510562188519
Ni 8.72051938140264 0.2363425334288149 6.164458636788732 -0.4584091817145137 1.1091111688615996 2.483935565029451
Ni 4.892406675855758 2.1982158744328415 1.914775672832225 0.7845574743783713 1.0907162112941795 -0.374262117451949
Ni 0.946898688840175 3.0006792165737317 1.5251168124991925 1.3392619256822098 -0.2589864501053798 1.2801257816416858
Ni 2.755548427791312 0.8010649764536969 11.33416132207633 0.1440663663260164 -0.069461437225932 -0.4180179223816608
Ni 7.485574220064585 5.5127078327976085 12.659521642990734 -0.3120259943298626 -2.831539199353607 2.0720916326689864
Ni 8.013965380432925 6.215262489169658 7.232842803317282 0.6462048706076806 1.336529100132079 1.6697772370655113
Ni 1.05977948764828 7.420367107444105 7.135595976411806 -0.9187333210635533 0.2805901444180845 -1.4194417777669102
Ni 0.45705858787227943 4.2745688154693795 10.64558001981495 0.5043195710933831 -1.8349726720606592 2.7766579739346957
Ni 0.964188595461463 4.737968284589011 6.797302937255624 -1.6711718034201928 1.178827402410815 0.22661497575320969
Ni 5.332034864907769 7.391706698851937 4.101921698600007 0.5674586656457131 -1.1133830567640761 -1.1558689938424287
Ni 5.31318081180449 5.38078565795425 13.620459248967773 -0.19532182206688295 -1.1882019016471794 0.8170965846566574
Ni 1.070981398980382 2.2981151940550824 9.2661133432289 0.5824908773884871 -0.602517457022059 0.10296702518254526
Ni 3.339855483354175 0.3526906797077761 1.8676461597619873 -2.836893007466353 -0.5619732170511096 -1.0037687014683423
Ni 4.568637720230255 3.3734705834970797 5.880943506015326 0.043333886900944724 0.6372875135133927 -1.093145903781595
Ni 3.0610159329628632 1.71193490917247 0.10655115693667135 0.9396358755441753 1.5346667943812022 0.8176694264409918
Ni 4.151591310627825 9.061203597785482 9.624654118102255 0.4143736407608541 1.0728164481956233 0.49725417960616947
Ni 8.531557373772909 3.110487919297447 7.966497749470473 0.09128470374861053 -1.0097948530577643 -0.3533176539897979
Ni 0.8890449379143717 4.2841316511467005 4.364161627374359 -0.45026726933366973 -1.3125404505269653 0.5913156747689687
Ni 1.4481561225119441 4.821907690406986 12.903131369565516 0.4539750572025601 0.591620093383265 0.48495659318573897
P 0.39987826288692596 6.5754001920380984 12.46646756591201 0.18160678647363562 0.5441590716878242 -0.4079849636256909
Ni 4.088959888322 5.452549073193853 2.486644485711951 -1.5445557713601399 0.23529681979792377 0.07332040596070598
P 2.8408084602797103 2.0076054250017314 5.410598102578063 -0.14510329223096302 -0.2695254019634907 -0.3764822650317194
Ni 6.092725193218245 6.101482540288074 10.521793279907262 -0.2614534235886336 -0.9272202754886418 -0.26760993010833267
P 7.056773296480727 5.891577828863543 4.8923973097091595 -1.8819431272729268 0.36147345032771294 -1.2741888473319605
P 8.186574096101243 0.9048100358693835 2.7319279426839307 -0.5421104166889116 0.8613056750737037 1.4508958825111335
P 2.76707815425437 5.303739736032952 4.4962823645256105 0.7496411221171606 0.9032856190499153 -0.7450437325544652
Ni 7.285269808903771 9.021079025756448 4.321268422410735 -0.5508565383126577 0.4142985645485446 -0.25606721957605577
Ni 4.241656176321381 6.673388817754196 11.97262531050247 -0.2804962991526976 1.0179408792036662 0.36940813179375737
Ni 4.184522682069021 8.06866367656961 7.311803165603363 0.6219753086363546 0.879251718029163 2.1406339005147585
Ni 8.179427726246399 2.4861780516113337 4.639451408204746 -0.191536901103154 0.30565171537240265 -0.2230434563518675
Ni 0.679560766472125 1.5435034948871935 3.9988491285101104 1.1008016205546396 0.24491403117271368 0.7068384251293375
Ni 6.62638949412168 2.0713982494858003 6.367438019418149 0.5291996221645144 0.20564428703881357 1.3731441802519513
Ni 5.585136244445723 1.0385745317487156 13.257449885552155 -0.16260427722920384 -0.6091599020392412 0.8804814766712064
Ni 9.144946314524883 7.8164146163721435 9.129112843699701 -2.8204608300522587 0.601269443547571 1.1549403113805723
Ni 2.7379681706254626 5.892964018560158 7.397342309260404 0.1302430872896789 0.2227030422933132 1.3650128093940683
Ni 2.042971994558602 7.925436562781564 9.236695213376894 0.9585018592107428 0.3797419096195976 -0.034421157792347175
Ni 1.364254181280364 5.327632776006358 2.3999120949782293 0.23433239900212546 -0.1800733805482447 -1.170213949710191
Ni 8.3813150161824 7.972529547880066 13.404307317761877 1.1034827669312288 1.3756355792152373 0.5928241409936952
Ni 2.205465271900272 0.25990120196864447 6.651789547082823 -0.3142523125572201 0.10293488639302918 0.43604984018270715
Ni 2.386269365842494 7.33358975920671 2.930890185037144 0.6428539518575768 0.0840917855445971 1.0145575645537301
Ni 0.37430306298438604 8.677435107048401 4.541149016577591 1.3422950560815787 -1.0490864515685352 -1.138454655020723
Ni 8.179999061188923 6.537795113444127 11.017815037630331 2.306908170396382 2.349648903798018 -2.3568045410061926
Ni 6.558850210998112 8.452591391798869 9.986744662536534 -0.23672301072148905 -1.288844392461606 0.686850669153501
Ni 3.1491607386036757 6.4664344425082705 0.6046596921219414 0.528718825873354 -0.6616016647787251 -0.3423475281315394
Ni 6.687475502238711 6.491086140356174 1.6251051105141214 -0.9393201440759694 -0.0775868945465438 -0.10792694029098186
Ni 4.842297791552459 0.09444822230176982 5.532780421573384 0.2806256256417103 0.1442705119170225 -0.21787091101199252
Ni 8.67505610581232 3.6510925348305543 0.41943290375579095 -2.4225890436011697 1.0348319985320502 -1.5861348803535071
Ni 1.102919958882111 2.6027678444725426 12.833548393254102 -1.4477228840997904 0.5360184448585608 0.4693641380641207
Ni 4.17451027135496 6.750266149036715 9.400701123394263 -1.3069549860193879 0.01129022820183862 0.12131878821685559
Ni 7.045955397159173 8.87658748217757 1.6708774689422006 -1.8555862345459526 -0.17332757718397893 -0.7812592632430738
Ni 0.7937621919506535 2.6135201807679045 6.251931889718415 -0.5716763032714864 -1.8929338219564755 -0.8083872298081175
P 6.7163606983492485 3.68522277303639 1.2781474491394385 -1.3205676917068159 0.7584510070993067 0.15297035368386558
Ni 0.6525609756719157 0.7144749511482762 1.8577217908259545 1.4316352345093086 -1.4204473362132892 -0.605420489601467
P 0.4962353058655205 0.13061747062215306 8.261541670092278 1.5266950890296351 1.5418471141797252 -1.84170484857817
Ni 4.760868513022949 5.781469409448667 6.603028451275084 2.0295401324600206 -0.8433115524891283 -0.7906401902373416
P 4.872091503883075 4.384180829114522 11.042640945804974 -0.07635122236722978 -0.9655304839227502 0.9551018323902584
P 4.8729157247837644 8.790840410066037 11.923276020688329 -0.09027143199274776 1.0381505213823217 -1.3307119792296696
P 5.89482788173331 6.707949898703574 8.21896316765437 1.6388754052803325 0.3254744065252846 -0.3100426453512467
Ni 4.909434330372282 0.16944202150328122 3.1621356614869205 2.2025635481400196 -0.7649798093567599 1.3589887146871755
