# total energy = -381164.89706315036 ev
CRYSTAL
PRIMVEC
9.32396516589661 0.00000000000000 0.00000000000000
0.00000000000000 9.32396516589661 0.00000000000000
0.00000000000000 0.00000000000000 13.64656550112890
PRIMCOORD
 96 1
Ni 7.828074972676528 3.7713761544349125 6.718068086006439 -1.8619862245350254 2.4985204048221616 -1.8868994428369374
Ni 0.09936456638415905 8.292660194384856 11.635321354225939 0.26998717209125755 0.5762348691764463 0.4482296700783506
Ni -0.40997568902477377 5.020293341746322 9.110256338785911 1.0050761074258563 -1.4963416735487585 -2.154667238679373
Ni 2.2269265612538507 7.417923060706558 5.8823116542848295 -0.4644818702711549 0.1100362733245008 -0.8273727697716848
Ni 3.9418275650767325 1.5672000686455354 12.867837686479149 0.33238527471250495 -1.9410769573206055 0.8422314320510721
Ni 6.450794754332575 3.4307903479733186 2.630280370084006 1.1856009736892228 0.13881180279529642 0.39325614205594855
Ni 2.477843792903214 7.740998460232791 11.470252668783152 1.3629610690713625 1.6213142564681173 -0.23704902660234015
Ni 0.31112021114895916 8.517824633725665 6.677346599718103 -0.6169081785260924 0.018002093004375448 0.2352196867030852
Ni 8.355000226743657 5.547750061838644 0.7368981566561876 -0.4298809923678338 -0.8630879637851071 1.0173060738331448
Ni 6.334012088270063 2.5831952774413645 11.770791111651524 1.3579800709170031 1.4761597992842448 1.59164758264162
Ni 1.0806569085278475 2.1829827125390704 4.352340314505914 0.6284156649450596 -1.1451716620295826 -1.7134975607715972
Ni 5.565167229120463 2.5373586637596635 9.098424226751312 0.9019630435837499 -0.4625895383444485 -0.10599989847159809
Ni 3.5683841047066123 1.0760042498160556 5.995387111722476 1.9682879705177585 -0.6699106988650527 0.7767359214514236
Ni 8.431195671618934 2.5389903576966644 8.224717391244663 1.699680709493163 -0.903440656570541 2.4507914741773145
Ni 3.8203456204756563 6.595139061982376 7.468601609596743 1.2346859041413316 0.3439644949096721 -0.10890627348511565
Ni 2.9428392690871323 1.1888522024990569 1.5776932592552562 1.2268936617904225 0.29180941017267165 -0.9736289446601682
Ni 4.059067105441605 8.64762355542277 3.358051297054877 -1.0129709367929005 -0.7773403878046419 -0.2285582155225096
Ni 2.245891506784482 4.4913820830587285 11.17929366791978 2.0052655761833726 1.7988612710500826 0.43890170780920534
Ni 5.292124227685362 4.670532753376103 10.533661281341013 0.6808492001544274 2.313868660874615 -0.7605078896283354
Ni 0.538367624349916 5.424804254676944 3.9888091617039416 -2.850689804140129 1.0950523767756883 -0.340862973166213
Ni 6.628556153812161 6.260716396619969 8.039315002157236 -0.2890860977042376 0.3378344707525343 -1.013155541999881
Ni 4.563493631108827 4.841319826770678 3.147253223531963 0.4808654538355009 2.363953236235832 -0.5061154866515412
Ni 3.4275642559607333 6.1341249190047415 0.8437013826000013 0.7609552615783991 -0.665584560685873 1.6253508884313363
Ni 8.01226058428522 3.1694395990925015 13.85863301411193 -0.48147146285061604 0.06151955667103598 -0.5939950213733447
P 8.297620543953341 6.033519332831926 12.291379798863877 -0.11078446434443501 0.5569022302861054 -0.9794946594123262
Ni 5.710033678830103 0.9311033014346031 2.1048189785775016 -0.12899995891119717 -0.47595413257681257 1.4182958370879253
P 6.887286868428421 4.139486306622378 8.959284556562277 0.23981861892767728 0.9470298540154013 -0.5049302080941884
Ni 1.7585744575423876 6.889160985464635 13.203775496211627 -1.9946772591445647 -1.5847536837352643 1.9686067873097581
P 5.671255306921602 2.1512812303344764 6.28545847108412 0.029357884336826862 -0.203435709423269 1.7362402537847519
P 1.2931221070561092 3.5782581840168075 7.72379201456798 -2.374490645432046 -1.049973739269495 -1.388211616108035
P 5.896401098331701 6.3624501826006545 1.719030588078298 -1.2179158837718445 -1.083569058726437 0.2793899534623962
Ni 4.751753815577345 8.257807211890512 0.9803981738662118 0.4120123396175292 0.30562574723047364 -0.3275932526405004
Ni 5.030186068987226 -0.21958311367972855 8.242566258122386 0.05148171281905973 -0.1387999757207545 0.9206359374029048
Ni 9.154036085710455 7.435377523849794 8.778617809478295 -1.088573453919564 0.7264083768414651 -0.9704284354449996
Ni 8.128977982590254 1.5447386361070448 1.9989761210651802 0.014112271031666018 -1.0258670760292783 -1.1468513637248507
Ni 5.69303608998923 2.534179191573849 0.42379007609369346 -0.21674733893051057 1.611143743693019 -0.046091137931107716
Ni 7.525708100202178 8.189210798778982 4.988256196788973 -2.3269375782434314 -0.537870667575951 1.0704253222556273
Ni 4.265033500117926 2.961897454271306 11.178993436235372 -2.878141729703495 -0.8829859882606148 -0.39676286965762636
Ni 2.7314463265746145 9.094344059512276 7.485605725213366 -0.835373271478658 -1.2844807161762717 -0.016112332180830316
Ni 3.3542219444838692 0.7940083768477644 10.565430828492692 -0.5796711485515048 -1.0735386710736285 0.7388712851951662
Ni 7.062101894856051 8.150479046697251 11.355075589554648 1.1575880334160644 -0.15349537294940016 1.2114711565877652
Ni 6.539269861579456 0.4869776569031979 -0.2031486923462527 0.579809216791266 -0.6412025322970828 0.38477767227129217
Ni 0.47224485924688037 4.43377862509991 12.75079115219711 0.8368334009639524 0.19600316440462373 0.2386227988473632
Ni 6.053901521096409 5.845165908709864 5.440394857145857 -0.9255459731100124 0.10613899515262365 0.0024834285434860454
Ni 0.780761819268921 6.461685145866389 10.503338813612318 0.8138536522393274 -1.781330975475803 1.3351093369664166
Ni 0.82921007564636 2.173239168743835 0.5668308933869646 -0.009689459373622021 -0.11678670467445694 0.9858637961634634
Ni 5.042419111532057 4.361583161361623 7.1170256451720455 0.5636901997422162 -0.7890232234592088 0.5299691533406873
Ni 1.6867146565568558 5.575004012569241 8.034961642733316 0.16803496132647192 2.6259080249409164 0.10919500837012806
Ni 9.038195140148726 5.84139902670673 6.806620582165761 -0.24266303035500789 0.9775845868738067 -1.1386976242694649
Ni 8.139206372583912 2.2385255741545906 4.900250084999413 -0.6711435428308893 0.39423496102945005 -0.03562057741708704
Ni 0.7897762289734509 0.3512319101031252 8.644307953342784 1.0987133705670433 -0.719449943245761 0.048521344639155146
Ni 1.0255243013879163 0.49977013736928705 2.561706334489327 -0.5458945663216921 -0.47283152778743087 0.07296816482760982
Ni 0.9363778686355264 1.6456239412404892 6.791090585471651 0.16782284531566583 0.11007998207824267 -1.2170206256510847
Ni 2.3510751599462547 4.259159401944721 3.3622685265846237 0.07096990345065841 -2.1821338195307582 -0.46410906031276844
Ni 3.079360769804682 3.1510434154484828 6.284789010371681 -0.4820101089629054 -0.0448436386772518 1.1140705697494038
Ni 2.056167459755339 -0.018520192383231063 13.283676284918702 0.41867998144569185 0.20776364737466152 -0.07368344572707955
P 3.638146013487428 5.932466196322105 9.51259756497859 -0.13388814024143394 -0.91175688974572 0.6610421927308292
Ni 1.0192213008084148 3.2966837542825305 9.843704628261008 -1.3384594843855722 -1.9496693269753065 0.5167637103940068
P 1.9338183863763139 9.605176149377895 4.995584833557446 -1.393835904273348 -0.6764420722256672 -0.5049379214036723
Ni 2.8102618057144486 7.919813467797412 9.3999183760685 -0.2655337643055943 -0.17852171979040868 -1.8162288157942528
P 7.1373369712998365 8.416650285666238 8.56339737918784 -0.3277410910722743 -0.7430524131560493 0.37412327788123956
P 2.636397823752957 8.181266780297126 1.6182776832528847 -0.651792134887471 0.06710810650240699 -0.2657718484583294
P 7.475983392967738 0.5778173217639273 3.7210230119355914 -0.7162334931909924 -0.6430526981319442 0.09601244824158303
Ni 5.210623446523492 7.39055722239171 10.317868359577805 -1.0839123009984686 -0.11092947456273154 -1.340044826594821
Ni 5.6117684079612165 7.956540567327969 6.285430499188058 -0.8834343886519431 -0.8452049128570992 1.1174942507189722
Ni 8.22422228868435 3.755889047981433 11.161198648356702 -0.19090055307073575 0.08102188837002175 -0.18803737259032777
Ni 8.119253086725726 0.8205546386079703 9.604507621061993 -1.3503266681368036 -1.059167489953621 1.3012345385958428
Ni 7.015276940846793 7.260525201560748 13.917995904333106 -0.2515816730008764 1.624273081986125 -2.983320160715062
Ni 4.416398753679509 6.796173078986276 12.468239570893703 0.4888548997988807 0.02646256506690281 0.057257953181204614
Ni 3.013701405779755 3.805511191596977 8.721642786784356 3.5930271935070253 1.2834584455593445 1.600979144455191
Ni 2.228474339502663 6.618038720892518 3.3314406999337267 2.1700393502600694 1.2021678769089683 -0.08404010637105527
Ni 4.9444055877277355 3.205280921914402 4.742482064429037 0.6706558045611933 1.5477984466671537 -0.5434245075146448
Ni 3.300618467662042 3.785809652803357 13.448758956309518 -0.13731310676258285 0.5179672437838047 0.4350597083552959
Ni 1.0817851083357168 5.089607700190132 1.4119150200490074 1.5510529490487095 -0.7751971162093939 0.2860259707216751
Ni 7.043537879835654 0.8325806891219367 7.168022141280812 0.828940885589753 -0.46803873438447785 -0.17177823041898801
Ni 0.590786957571748 7.350417551541481 1.8408537898113413 -0.7924435619946674 0.1847777280024495 0.09160712008503578
Ni 9.213895943285014 9.123956973477508 0.3703926589061961 -1.1096613849381147 0.11070116060200934 0.22058368195746525
Ni -0.4199952221944964 3.552477419812189 2.5418229783712984 0.9015521812985763 1.2946396589871445 0.7843803253705588
Ni 7.350268368095812 5.947869387087396 10.239332599398598 -0.8944978455549562 1.4552485030528743 2.3812446763264283
Ni 6.001799202696623 0.7657884633064629 10.709333180184702 -1.4585184320533977 -1.1944568814179557 -1.0342128768908125
Ni 0.17037588652245025 8.34625434724133 4.379018976574151 3.3431483621298685 -0.5734141118981996 -2.182367275697803
Ni 1.8313853029940572 2.303420373020466 12.176680106661513 -0.5425367055930528 -0.0564241444259996 -1.4152166839419693
Ni 7.63243020764741 8.305471322781655 2.202214323478834 0.2157510364555123 1.0425813034601659 0.5958752691151931
Ni 3.060666219269326 5.199956830158182 5.534296512228936 -0.28968773584397856 0.5743538501036496 -0.24165695768799672
Ni 5.973435700088865 4.914056080499513 -0.29536457449327574 0.09309707436700096 0.14786439991586792 0.2751833715802164
Ni 0.912009685182083 3.98139847404035 5.571824540383428 -0.6555356610903033 0.2492561101914933 2.0157811310027154
Ni 5.5232280329568555 0.28947369318243377 4.860483372763355 1.1317757003386508 1.863212126522327 -0.8078051320524023
Ni 8.378916197877416 1.0665124530853858 12.120783866759064 0.7314577663399144 1.0357413977201968 -0.6168349020859958
P 7.504281627818015 4.5340019286932 4.734239679055842 1.368167038752334 -0.928392441419872 -1.7200117077410315
Ni 3.540179109509878 1.7303601383802987 3.8283260024223953 -1.1536547597999292 -0.41386687632776464 -1.0489172729805225
P 4.389452493805604 2.875203224407095 2.1464821853666223 -0.7491081324318261 0.02311447453027632 -0.21915954791642903
Ni 3.6014841817143504 1.7012507185441978 8.52232158221604 -0.9115419455214366 -0.8801937702274584 -1.1157605558573171
P 4.924620133245926 8.986876034838701 12.307892541506328 -0.4088262285800637 -1.3368507451375558 -0.5113602799902484
P 0.8474542786551039 1.080666232493202 10.545547472374665 0.07876163158093533 0.4135884258553974 2.3947429679231793
P 4.082749977441509 6.794215046261874 4.675149981019549 1.2282175228081689 1.361608925918842 -0.02147976714033075
Ni 7.450808686511148 6.270459940415206 3.343299851467851 0.20856943110540854 -1.0062107352509315 -0.20138988263783383
