# total energy = -381165.7637100796 ev
CRYSTAL
PRIMVEC
9.31480233545403 0.00000000000000 0.00000000000000
0.00000000000000 9.31480233545403 0.00000000000000
0.00000000000000 0.00000000000000 13.63315477259591
PRIMCOORD
 96 1
Ni 5.1258145151728645 8.25796330262278 3.3665436736010608 -1.5365223595327022 -1.1543492147637926 -0.9804243703154469
Ni 7.874016473966261 5.117971451786349 2.553217068939173 -0.09077665376394044 -1.0609883452124436 -0.14029970019473256
Ni 5.2622577366522965 6.610389047733548 8.987057083177872 -0.9270762937116097 0.007036338021491108 -1.2781714861287923
Ni 5.598251963986034 2.144379226052906 13.741129023434137 -0.7521677451937563 0.4452960413713234 -1.7732523122327266
Ni 4.168187653441847 3.8630533655374752 11.030843898157547 0.9296193718484377 -0.26906440316667213 1.6840116354973385
Ni 6.9929107116654405 3.653330595766216 11.81548650116571 -0.9112439546650436 -0.22758556719659517 -1.6924420256528787
Ni 7.337362779325729 7.754647284776001 11.650144106103541 -0.19483434090750315 -0.10577724093783072 -0.20985806800984502
Ni 4.808263596040197 4.540127702163428 7.001334087224141 -1.135993080854108 0.8243429818064255 -2.810036035174509
Ni 5.940012053833137 2.9426298234807375 2.3406765715260835 1.1324362167407853 -0.5582492312323031 0.06473035029884981
Ni 5.096416999676614 0.05327414777493956 6.530853678336752 -0.5637444500189194 0.6857780049146125 0.02478080648910571
Ni 8.801621728458871 0.9290527747423298 10.830695813487237 -0.061635770533926104 -2.701938373633618 -1.7344844474359093
Ni 8.777459131755043 8.506025797927174 8.746786419848325 0.6629422379670196 1.1030245963478875 -0.38665174936555347
Ni 3.4514881485899593 1.4337622869865232 12.491022963961361 0.7296417961770982 -0.877048025509625 -0.2504426743004267
Ni -0.019743654577266782 6.132670106117346 1.224258415065125 -0.5280084300698907 1.468769934578077 -0.33852712594418477
Ni 9.349732629709157 2.7462179059414624 11.729775417962193 0.6459824701842294 1.3026800127931177 2.174131003830939
Ni 2.2105143211173495 8.294570474961269 8.917023743425474 -1.291771336300414 -0.7713962544060651 0.35193620026123906
Ni 0.9581391758477144 6.456555090692805 3.4924322927963347 1.4240908465031472 -0.3026823483314336 -1.2810004709371552
Ni 4.4005826515774515 8.753706386344575 8.777569977900292 1.11506635800377 0.7988360957845727 -0.8904393592148665
Ni 6.291124205010479 5.957756751875075 3.848243761644101 -1.0548819752043896 0.7234953169597282 0.15197070877475763
Ni 5.199801988425945 2.2419610930803864 7.83419662637598 0.1773125299736559 -0.0029323431554465628 -0.6394037885254472
Ni 2.5884251579989734 6.859690411720135 5.216004155236521 0.41823183816467974 0.481125649475423 0.7403820654127378
Ni 8.397145075926007 1.0941818608359108 1.670810960262156 -1.5458665197517636 -3.7985012735165613 -1.9859252239835472
Ni 5.292391121516166 9.021274077291919 13.016103948445826 0.4306592652947551 -0.3096307546248087 0.5827865542520351
Ni 1.0932410658216138 0.7645841081191809 -0.01760404452990021 -0.5391096821893747 1.8776699538188695 -0.15654470129868525
P 3.9728655677508167 6.8444327658447035 12.847298309954791 1.1982549150078072 -0.776924897533778 -0.14151737465191758
Ni 2.671280322871963 3.8284023016445556 6.515311930996607 0.3619529610672928 0.5386137163895627 0.2803399760804914
P 5.802106408420589 1.6467172930940308 11.380561623457263 0.05097854793039608 -0.05715870859917897 1.408545956790013
Ni 5.751014718782777 5.816972832606907 11.046413589904057 0.5235681349103498 -0.2118732986676609 1.2081369500082095
P 7.034510617941187 8.246571299627877 0.7619880727678485 -0.11699599247178562 -0.3765671114360418 -1.7965773601119124
P 3.25638030334773 1.9706581664822205 5.831282231626343 0.9683219306249581 -1.319869894308843 -0.5162374055768916
P 0.23673942184519067 7.766402565053653 10.740498721581883 -0.2651527268170918 0.5038904539757644 0.4173394082573974
Ni 5.18908996598593 4.652659826596321 13.283463919305854 -0.5932360317201332 0.30860488446345563 -0.09554553590749351
Ni 7.40508139075087 1.0055049446368263 7.364330062948414 -2.400558031943059 -4.789265078084804 -1.073871628933015
Ni 1.360575886715913 2.32840245677025 4.766669278645724 0.6255002910704776 -0.6672043556774833 -0.5560650790967907
Ni 8.658667460296334 3.9529412060123885 9.824678554733714 -0.7253632234064024 -0.7543490691157911 -1.3720072384340305
Ni 2.335751835644313 3.369387482688832 12.775574333617294 -0.14167935415107857 0.45123194723978416 1.6425119735916551
Ni 8.175024304530696 6.887075929958088 6.603136542801552 0.6288231847961235 2.7606880808690004 2.7327018800687193
Ni 1.9214480668730014 6.070456542746159 12.532781221873178 0.46042029860727157 0.1339398194149758 -0.9932132945499991
Ni 7.379922110220016 8.437487483915318 2.7754514809203705 1.6058578127037313 -0.8841928640845224 0.6129754191305895
Ni 9.271376514260973 8.026527729105716 12.990842205091633 1.1593983471519258 -1.6568188771326302 0.05827379604022867
Ni 2.63432850285497 8.198870197962382 2.7707884909782217 0.5255519981095981 0.4164739749333085 1.0592009142947179
Ni 7.921223891119303 0.48240894448450555 13.021734746328427 -1.7251608560421385 1.2477985302638896 0.12402487429410898
Ni 5.6448352893969185 6.411164059953505 1.347846278136326 0.3684570807343977 1.4252306165345454 -0.10843679004786486
Ni 4.230214920770598 5.23904524976489 4.511605778066621 -0.5134207620637029 -1.3714883898160832 1.2364705068455804
Ni 4.4866793675888115 4.558291566300845 2.0149668172149733 -1.461232488550451 -0.19964616047384973 0.22510419553563812
Ni 0.28242759477217494 4.733195605740993 13.14548282399612 -0.6471638920868403 -1.8459484543458724 0.6509133318269434
Ni 3.193756888683187 9.275596119622127 4.804978265331855 -0.32622748264122525 0.8807463002968187 0.3834651241074557
Ni 5.188782577515912 1.1039344586573858 4.037213152288096 0.04360385273287975 1.1193608716140657 0.6949198193148806
Ni 5.895999613807855 4.390094184388359 8.715852893482197 2.6258586597602194 -0.5093383644642131 3.0866921346455096
Ni 8.412374777395073 6.389497830218307 4.542430321247925 -0.8640379864032023 0.2670183192709208 -0.6530836000053849
Ni 1.6916891577378521 4.123532492070165 10.718822245564352 0.8407659032491391 0.452693105166343 1.9454797143739913
Ni 5.753455196938676 0.6504982746923796 1.8186079940477922 0.7183525964165242 -0.848221845306552 -0.6785745451876378
Ni 8.555235897536393 3.127575219608135 5.096264236921817 -2.3233020383733733 -0.5851663673381212 1.8544078979671352
Ni 1.3483269219258083 0.987406284114261 2.5537079590109895 0.782111326830724 2.4831722045008653 1.404723240609813
Ni 1.0469185548701383 5.964929149508825 9.808209053102244 -1.4716166599982528 3.397140500075607 0.2107121884800242
Ni 7.128664637787862 5.038003875571103 6.17952728671061 -1.3752843665234056 -2.326323855918832 -1.1001359619461828
P 6.990069697018305 1.4200043242526945 5.064880805613209 0.7505422937751912 0.59320569270283 0.9338984588397657
Ni 7.2068437719957315 5.986679212463117 13.276115471912005 0.772338049494044 0.17345767500393997 0.22486379739005788
P 9.104166501373394 1.4511809669542004 8.691054095793454 0.004740600008778933 -0.7055379611503592 2.055416228895834
Ni 4.482394558612805 8.065500861183128 10.928445346952909 0.6236403550436034 1.1682874221114394 1.4742474127528804
P 4.014716973683851 6.500604789926572 2.883984760802395 -0.8986573762492845 0.23956227994249707 -0.4457094747596582
P 0.5952009518965954 4.23357756433655 4.020894550450997 0.5861719257845002 1.8378175977086222 -0.6072377453158638
P 3.5526468996321925 2.7648754545913325 1.075851261740514 0.2851523098674702 -0.1499963586572062 -0.4598898800250983
Ni 0.9541524405396042 5.327517240317295 6.110297814381321 -1.289820126111314 -0.2624507545048964 -0.19340043667445403
Ni 2.791534418263789 5.911853407019079 8.415241873488148 1.557834490746917 -0.019897767365191537 -3.389240785612557
Ni 3.3786277663936106 2.408146477734574 3.3787730773067097 0.1422390833092905 0.4890019668997062 -0.7257807705597953
Ni 2.952801587397691 1.3124928781634262 7.956499978234592 0.6350573386312933 -0.4938904053402591 -0.5668534279615463
Ni 5.583720872676101 6.892916310888426 6.231783326613642 -1.4134235965972881 -0.8252971181895787 0.1425674131829867
Ni 3.4017005312491917 0.5448432686659765 1.288341459222146 0.04558128817422472 0.7341787648155033 -0.451451519449758
Ni 1.2926523496440934 4.1611084038293145 8.511450738682882 -1.082097102166601 -1.2182922932746567 -2.7426872734162053
Ni 1.764745150778758 2.0632379847703195 9.927186089123177 -0.6646620488716037 -0.9576356545557055 -0.2533768172280862
Ni 2.1486267758204254 9.258205384060817 10.999215487553137 -0.6266678290160175 -0.021091787673292707 0.42356456323150277
Ni 0.5414647899364169 8.532591613578411 1.8095968544752086 -1.4386453472785548 -3.2760687948725513 -1.0243601524664487
Ni 2.410903659162613 8.291934385960811 13.138775234988248 0.9043562264062748 0.28837415923887755 0.5423788398589499
Ni 3.553988231137725 3.5462942045851573 8.991461121621036 -0.5816110458866951 0.11387493034430066 -1.5960570245632255
Ni 3.3981143324323173 6.244801694059003 10.465136404219058 -0.6572716699448035 -1.4148711276770924 1.6128440142135771
Ni 1.2169323231963667 4.040109124267749 1.8559491727934738 2.159713799964345 1.5468427676221037 1.1703198791604361
Ni 5.976935929443764 3.5164309489828187 4.6316055793605235 0.06105135878536583 -0.3375701613475541 0.37376383765929183
Ni 4.178853101871254 1.3740730349903327 10.007458259367805 0.026291072486045047 0.3480425216337877 0.9642037946915267
Ni 6.5465640235953 9.14220815323863 9.967308667782415 -0.3758775415681849 0.4096988609930041 -0.5231032794587893
Ni 1.6399174875451512 8.850794568859602 6.7216767146029754 -1.152085101319964 0.2972223536581268 -0.5420158000925762
Ni 7.987815411487712 2.920879760526445 7.577825327578984 0.792940299125428 4.903865830851535 -0.45469059521234595
Ni 6.933948014234746 2.246795475381576 9.577781341174754 -0.2170862103271681 -0.319472680415895 0.9375460828946822
Ni 8.553689640384182 5.526975098150384 11.286479327586925 -0.33072794161474006 1.663650298232167 1.0912183477415787
Ni 8.561355722530383 2.7767890865050546 2.754714868436925 -0.32873353689253065 3.3590426647626215 2.715173384266653
Ni 8.745667712113502 -0.06552776996610508 5.535006320539758 -0.3412062154382446 1.0308002516648378 0.7195360752016641
Ni 7.470657597688008 3.584838855764969 0.3201376396818781 0.7812518070439062 -0.12015022183005115 2.043988446674867
Ni 2.237489988061945 6.548259317581459 1.2912877311332565 0.9568689515930101 -1.1070856537911384 -0.5451286346899451
P 1.0066227208914367 8.557629801681683 4.501858769126419 1.975804847720094 -0.9503226658340602 -1.627336037182165
Ni 7.5354793056532845 6.638128528452127 9.368022243675219 0.3467942510489834 -0.9866055594254944 -0.18105759883838496
P 3.4800100726867655 7.797187986066045 7.060515682504696 0.02103470918311216 -0.9244709948782788 -0.4525820335097754
Ni 0.9500352980017897 2.0516317413266156 7.122654727458907 -0.03309446856112365 0.41178505409807153 -0.9312324819718284
P 8.322188863252265 5.077377544139751 7.903276130391109 0.9821868615325084 0.2817517688263535 0.9095758229340012
P 0.13843938357412344 2.7222695496864366 0.8137625374011859 -0.22003346588095007 -0.9424946851492092 -3.249056785060082
P 6.477671747102817 8.091479844300697 7.79939093676784 1.0940596738451158 0.558826958112644 0.7032648488454663
Ni 6.623113067431862 8.552907197005954 4.967690160274842 1.0763519721527075 -0.20024419906916482 0.5453780316965898
