# total energy = -340856.63557353785 ev
CRYSTAL
PRIMVEC
9.38762572863597 0.00000000000000 0.00000000000000
0.00000000000000 9.38762572863597 0.00000000000000
0.00000000000000 0.00000000000000 13.73973916960531
PRIMCOORD
 96 1
Ni 6.932724177853526 6.149946379671629 8.633942233647021 0.7197628465004894 -0.8309980252290978 0.41453227782590546
Ni 2.89880500216574 8.162399907082737 7.156178775952724 0.37852372094178033 0.056700280905521705 1.901441859427487
Ni 6.157193626867691 6.57908292251305 2.725483142669041 0.6358479528533889 -0.7279155575146109 -0.7730474168562429
Ni 0.649213473141211 6.605912757339921 4.764776831295514 0.6958919534201627 -0.39772111980583763 -0.39315741169455515
Ni 4.89398529791784 5.023938203274168 4.692162606183779 1.1872793898329101 0.7423610435159796 1.1562844841132927
Ni 3.3387185395422376 3.2416974258488445 1.7908379652260407 -0.423321079762129 0.5921787941002123 1.0714095405457675
Ni 1.0628012912017548 7.797174321379644 11.478164762532886 2.5006104545819707 0.08436895046538374 1.4617281972399472
Ni 9.711405118981949 7.8081953941881626 8.167052414479587 -0.45587767354191167 0.8966092354710042 -3.1807155774815223
Ni 0.9494175455618126 2.208166752208386 1.5755909684526417 0.3605190568342436 -0.7674665803343557 -0.6192620234702496
Ni 5.553766421536522 1.601970197236235 12.236323511787749 -4.2490678192582045 -2.0071921037821236 -4.573480103067562
Ni 7.847829950744864 5.390346629840867 5.558384194717536 -0.33707496687869043 1.5191694700765515 0.7080311598858581
Ni 9.29806795053298 5.3928249630788985 8.120309547590168 0.5787789757545387 0.7699852329911513 -1.9169157866933695
Ni 6.469519940615073 2.6091310297190016 -0.06354859477852508 3.2238170366566865 2.5857090841245274 3.267416775624508
Ni 0.40089668660412414 0.5183875185760316 3.838168400386902 -0.6076056701782439 0.8638906621920606 -1.0020113524576033
Ni 4.755658630257256 7.056715940762316 8.789105608362188 -1.0363638617955442 -0.12882872344065555 -0.9080287901618556
Ni 0.4211767748394253 3.0409993716977985 11.411911592732102 1.8971794846067067 -0.851412841440024 -1.6540533985723516
Ni 7.819845437932091 6.047602482092008 11.466458393033548 -1.7172050915301718 1.0940007955827225 1.7100270857244937
Ni 1.2276949401639663 7.0135234739888945 -0.010513202247240559 0.04386019171805995 0.5312228232421303 0.6132561835958019
Ni 5.423165769992981 2.7963484530753 6.71336070712226 -1.4537037842735738 1.5193941844928478 -0.29825233758453795
Ni 4.3526572379259845 0.40423868142510605 8.567922815731187 -0.2908953829988345 -0.8568957189314661 -0.34177082969246303
Ni 1.723765255684042 2.2078663481795338 4.809128669867785 1.490452304647517 0.07615736118886884 0.670727024118761
Ni 6.8753751712204405 4.927724425408315 13.617579358925473 -2.180759307780735 -0.1694156437240824 0.48229164475906616
Ni 8.335592217341993 7.212090537060269 2.912563506687176 1.0677930268391027 -1.5666109513879665 2.086772374609612
Ni 2.3278683700801284 4.907099811302424 12.400897981469305 -0.3866656333226244 0.49325225753562796 -1.1087093054374906
P 2.5226334446613405 0.9665781257100006 6.531789940745796 -0.5915406462955812 0.345135889509954 0.051840381710059114
P 1.1218963962525446 4.429081900391192 6.276698104595499 -0.16491775585372886 0.4892806744823896 0.54220349062335
P 3.9493836044435664 4.8449161773299965 9.131321184217786 0.7143385901611246 2.203913891520327 1.323738890345946
P 3.156007176618724 7.122166468548512 11.72002473997483 1.0420146323234185 0.11653293679243801 0.9306809803437326
P 8.575859114668429 7.519319369943063 6.177812608398041 0.7154845308401097 -1.2329864049517216 1.2302103848684813
P 6.610371879643197 4.125166899451674 11.600901399858628 -0.11749735758823635 -0.18340655868653574 0.22361089881956328
P 7.914472707020568 2.3897234371459986 3.3114146296073335 1.4506259166791984 1.4732624231317917 1.3594918795758393
P 5.4715214310123015 6.640252692888101 13.725683503758335 -1.834238622108112 -1.2184933535418692 -0.6606899515977331
Ni 3.6588929085433866 2.8787718084916514 8.881120301162241 0.9822516533321729 -2.6422558701713204 -0.4119444624940712
Ni 2.437647267373843 2.6216822855494875 12.655055748842386 -0.66473069732601 -1.854447235845503 0.42936445774273146
Ni 3.31455479047143 5.8334050218944125 0.43673958105915506 1.731734138384282 -0.49683329001866694 1.606223680683582
Ni 1.7309280142469892 4.196325103786064 9.056769353119954 -0.8811129396076182 -0.028457741120060668 0.5821064974658748
Ni 6.612258792449426 3.452008408923164 4.815654947394601 0.8408528065359906 -0.06562432286802891 -0.2381088353254222
Ni 6.29387745999549 0.9553880756352522 7.565938320170581 2.9681899899418434 -0.23408762998117102 0.5856001124414302
Ni 2.6665457497333986 4.722557861328092 4.825630238677679 -0.9346638762508805 0.4773371289672682 -0.6024794046952721
Ni 8.430041121538338 4.474527397381005 10.007394147372718 -0.5598363732137649 -0.9061431431033685 -0.4337070509821434
Ni 5.043943234070552 6.113747694194925 10.9654802266921 -0.13525905244703157 -1.0249656472609314 0.19952043352926283
Ni 5.98575680265204 3.6333491784650387 2.374873151732203 1.837865677337738 -1.9192878864699718 -0.6711525416919538
Ni 5.292734095715671 8.303242458484961 12.104009618517159 1.2479209147743668 -1.0974910681241679 0.8453697205697377
Ni 6.818157591349978 8.052339381011974 0.5209850746630139 -0.9049835755776285 1.1731977149288633 -0.08728046768522386
Ni 0.33537762914884595 1.2660903301016515 7.626379610775665 0.23589511550355502 -0.08435789472179021 -0.8140176886210175
Ni 5.171624333958683 0.5257051729663558 0.6479649188962936 -0.10393658818466615 -0.24254964470559517 -1.8885279795792962
Ni 2.0342328195029005 6.520691889404883 8.862791900351889 0.8236791229701814 -1.5153932908635708 -0.10486552775683874
Ni 7.886704109603532 8.988107318512808 4.9159279347003215 -0.6679833999353528 1.1942506789444207 -0.5077077708393257
Ni 8.566781280421548 8.98558204714527 1.7348755109386265 1.8181874821825204 2.3751717306594706 -1.3351047089807264
Ni 8.096526936130967 0.2387911625346983 9.246817145685595 1.1342670993019366 1.2014788212617438 -0.00422715070747014
Ni 7.603460660899414 2.0756134744773056 11.01338997548109 0.7866567801095613 1.2144909172506955 -0.6855067535310968
Ni 4.535002483439334 0.30939174189053126 6.341837901964351 -0.115341230477182 0.12944655953031253 -2.1587748330898435
Ni 1.6924856861797957 1.804198434409247 9.754500893208583 1.1390159268408317 -0.6308841810902102 -0.04452070812019429
Ni 3.3736029573927118 0.07858006137222236 12.271744901839796 -0.5820229366131331 1.059745473944278 -1.0047256660649728
Ni 1.3144459911209714 3.8582673074423015 3.1713108843635687 -1.066617261363447 0.8478852879027396 -0.28215183247824954
Ni 5.838483727507197 1.259941435136081 4.398585258887142 0.037134442958452175 -0.34901079908432797 0.215460501798287
P 6.532576623796352 8.707858522471312 2.587165862634357 -0.8460209810004913 0.2321053094438196 1.647638496184943
P 0.9603635173631185 6.3967376769997 2.169326388802963 -0.6493457302295076 1.1367618406993327 0.9218752091266446
P 0.7714018731142964 5.494023570298519 11.045637409215797 -0.8929438708042752 0.015286750955741417 -1.1841403299832962
P 0.8933142768858738 9.183642178417955 9.703072662231659 -0.14266151555868978 0.12827593626097908 0.025683006588400926
P 6.533064780343237 0.2393872767794521 10.808709690422573 0.13559175319610198 0.6337422193642958 2.0856385181154855
P 8.74673268132998 8.163197855284375 12.82104587250991 0.4640897770390588 -0.7939052341418584 0.274706689054114
P 8.609908033813657 1.8740799216210149 14.034182482425622 1.034951811939366 1.047658460872757 0.7135099236122422
P 6.343631877274153 8.521410884438948 9.076623243139322 -1.6854622519009361 -1.8240010035405039 -1.59568215772231
Ni 0.49462649865640435 0.7601357832697448 11.720643384521747 -0.9991965087166275 -0.07222434468304981 -0.004342079018779619
Ni 7.45330558460277 0.5431567695174945 12.92763860957261 0.5969998696379396 -1.6631890423250322 -0.27301464606367176
Ni 1.045227655513895 4.802653085520838 0.8778209390978162 0.800212407306809 -1.7015578719112179 -0.4342834923109037
Ni 4.414531080243658 3.4907511410192096 -0.24041616057827125 0.1595955723098671 0.9652548616638603 2.7108511027422146
Ni 2.9126893008742574 8.317051656186266 9.852849417204467 0.5385823489309951 1.1880620336352057 0.7694869531984941
Ni 4.39622520973547 0.2125396054633674 2.756397533525714 -0.5049988565485948 -0.6099883114778075 0.47150560988715573
Ni 8.84464561948403 7.493475235835863 10.144365241853107 -2.30030223504409 -0.8178167506521334 -1.1025882801414173
Ni 3.345130288033054 4.6850824587287665 7.059121050518313 0.2582755400812842 0.39580667639194417 0.4033878311733118
Ni 8.350499767273789 6.444098249673446 0.5837864144197689 1.7464213080828115 -0.4534333257664771 0.30966854984127956
Ni 5.5166195858437534 8.143540166646353 4.819680361381223 -0.23773602536703572 -0.06494992250882362 -0.9556805877118638
Ni 8.40696633707212 3.9840239440205982 1.8539988510548282 -0.1637890415659244 -0.3762446950996165 -0.4156584210105487
Ni 1.06323312199323 8.873869298915817 5.90828072608585 -2.89292814398405 -0.6871203778751198 0.9765648873600409
Ni 2.6390400058416095 9.097369896381933 4.405276758629827 1.8475723631025405 -0.37307015402637683 -0.05611818314980658
Ni 1.564410306003795 0.1424253051292391 13.689012620698781 -1.755566979137822 0.5599271331553582 0.9438427145366713
Ni 4.006967301724194 6.933268660155821 3.3134066838236604 -2.51238944949477 0.8932529174042616 0.5159286160872211
Ni 6.48604216220195 7.891182007158612 7.052636078545465 0.21275287305913684 -0.3398802975379695 -1.6240229136485322
Ni 1.6942130093456962 8.669848025195593 2.3040857586209276 -0.04306623506185486 -0.9361779989025618 -0.39067783980581106
Ni 6.068912392888719 3.6012153350037432 9.61641642629626 -0.5142412010824692 0.376025637110275 -1.10424509901855
Ni 3.3200841021274927 8.152589838015528 0.5121269108622315 1.4182564992095574 -0.20309221004092118 0.5526452547819644
Ni 8.90288645057777 4.3952395090157985 12.67925141584126 0.05763024891895881 0.900747940229726 2.401654607441348
Ni 6.896450391369609 1.3671105724291412 1.8959324371948396 -0.17685075984588897 -0.6172714754027822 -0.21292385141936232
Ni 8.987318757937071 3.348829012638298 5.175430077499206 0.829312667106875 -0.36146907945233875 -0.9068437687148189
Ni 7.781947592167192 3.574563865069003 7.382252521678478 -0.3869433124640433 0.3782624968605937 1.2524136604383977
Ni 4.28767609143487 3.5887861183099794 11.427313870548915 -0.16790409217556243 0.2506583898556587 -3.371106537905691
P 7.86308484283502 1.8193876131180917 6.163358480797293 -0.9775899861904453 -1.6786169468443284 -0.005293901409087656
P 5.823397812683269 5.427803257188389 6.677746870739229 0.77247380374096 -0.05964033737045213 0.9217232569298125
P 3.7433627664062943 1.0956485942315743 10.356383834078933 -0.09893656386691349 1.4794808932376777 2.0017061409668884
P 4.600997493527826 4.9922549658561515 2.607363339761724 -2.7387408871739476 1.5282215529764909 -1.6919121212913377
P 3.2005326862701766 1.3232703594685078 0.7461669959281126 -0.6774149776618978 0.043629306654176477 -0.026574922275051007
P 9.19142452029041 2.6415371143314443 9.196556735370834 -1.2687573919037438 0.5148423250015778 0.26480048568399556
P 4.1997891377437675 2.839071538553639 4.465896414127042 -0.15171128446578386 -0.1918354061801793 0.24170478020679667
P 3.1184191225085787 6.962773968364658 5.517920710793721 0.08957054927098121 -0.9375147154361144 -2.0162693834930434
