# total energy = -340872.46624236833 ev
CRYSTAL
PRIMVEC
9.19518264215885 0.00000000000000 0.00000000000000
0.00000000000000 9.19518264215885 0.00000000000000
0.00000000000000 0.00000000000000 13.45807926010196
PRIMCOORD
 96 1
Ni 0.5806334879065289 6.1640366801949344 12.604016194790015 0.6092933422933119 -0.3219409394507294 -0.586889263566499
Ni 7.44092572196425 8.435329556862177 1.5111537911896353 1.404079436378227 -0.5975068911813451 0.4283105625569204
Ni 1.0527564641354477 6.632889849465633 8.800494168248548 -2.6218814202800265 -1.7380305129159555 -2.0140410083831575
Ni 3.3948522473783136 7.499572597047278 8.969728746774827 1.666729451378123 0.6037256183975473 -0.5945717198124212
Ni 1.2301039523333723 1.7037845925069548 4.150458107798549 -0.17616967461846433 0.8919804784497412 -1.6502083137946484
Ni 2.1326479123364357 0.10603149042919621 11.889917388951904 -0.8655199702653674 -1.0952045860828363 -0.23132060875899516
Ni 1.2895783938568945 7.655458528888384 0.8199657024974751 0.9859499281193667 0.5264313153907579 0.4697179218591136
Ni 7.445072749349394 3.6141757444746423 10.477505147368976 0.949486800196326 2.140732887986468 -0.6733834879050016
Ni 2.488234821451484 6.120626222799673 6.985147182935092 -0.5449116335831325 2.2159340559096545 -0.6729821387015249
Ni 3.6774018205284054 2.242934933306307 2.2876851288169013 0.8163198543916328 2.4443706582526357 0.6684019755300102
Ni 5.538644721113406 2.73382895544217 11.323075755535346 -2.2615582815066726 -0.10068105736184596 0.6637495643596633
Ni 6.768813039725482 6.348492044598437 8.808663168534492 1.0251211990021896 0.29342072052384954 0.2073188465277591
Ni 1.5637787411406665 2.29977035740292 6.245315658388947 -0.06838568766324997 0.8565357644888861 0.9233890746680097
Ni 1.5055364540952132 8.95347810043832 9.02501478259118 -1.4033320166892413 0.616737200165867 -0.03510738522609437
Ni 7.511397601963674 8.927805150417653 9.054662810081021 1.3604465301796247 -0.6351370428292933 1.1449438622894925
Ni 6.73476327829048 0.6276319055804664 11.437470264604869 -0.6258923843025738 -1.0082696746624893 -1.1162385239350001
Ni 8.239950315444151 1.7630935207423781 1.1446779467542165 -0.3246778787659183 -0.9901068877105336 0.27343604987180653
Ni 1.0646458353305488 4.475690799394534 10.998897751391857 0.1495065635049812 0.07552486981119251 -2.2084025234192994
Ni 3.616989470372323 5.537311419625943 4.672590924026537 0.9755968670198166 0.5968499743236367 0.2933978377057141
Ni 5.4519433436976215 0.574568345415973 5.427334276312123 -0.8786554792060609 0.12334276062541982 0.9461677631254222
Ni 4.3409445925167205 3.4464188318037796 0.13454575189556028 0.06695949673968468 -0.9541356118222472 0.09112940911766886
Ni 2.202420958452776 4.557831366204928 0.7233721475629826 -0.2945520059148153 0.19309036163320295 -0.7209707507656615
Ni 3.536081058039999 0.7893328709434457 9.92930398826542 0.8747360895469968 -0.0415647108156639 -0.23790803216852574
Ni 6.562289236908799 7.541475044484304 12.528758222209731 0.018988625287360845 -1.6299701323709024 0.06671189950525284
P 5.4727244565366995 8.619132063295957 9.627923600521013 -0.6411004595015798 1.6536646477743648 2.6240928261090484
P 1.9806883234963413 2.5913771854850878 8.432051474239554 -0.2104890167256246 -0.07905628000321868 0.6113967617895599
P 8.769050321582833 6.5686431081352605 1.7289462903710497 2.5382519190838284 1.308606662690198 3.3451934175843547
P 5.402574407930801 3.496799237664537 7.316579266688648 0.26063041346670596 -0.07987826168388179 0.4170190488035012
P 0.5204859590114046 3.9558227566586983 12.894212481850273 -2.7285107248055076 0.5690067268591232 1.2790698295733456
P 0.01495320606146445 7.664837615213985 10.590620606528805 0.9176475441985422 1.2114315615990816 -0.40735632890275647
P 2.213114955900496 3.5481635280712154 3.0597209416357494 -0.712384037537915 1.9263771892165853 0.14591601794024547
P 8.598424511918257 4.894558955659378 9.006914065501036 -0.8087050181588524 0.8794826030930467 -0.05166117581971748
Ni 1.5115225180147887 4.751472718097918 5.019366089586856 0.6700839912181235 -2.2807106860654076 -0.7185744826193431
Ni 4.677635401240483 8.600006083337869 12.30137054990992 -2.8669620589375913 1.0571717996798309 -0.5212844810824957
Ni 6.720188913755107 6.253993152276663 2.628780430040628 0.25296929737702234 -0.5027326862222374 -1.9821356750341284
Ni 7.1955982482710565 4.831231732596222 6.854199506019148 -0.11326609311570815 0.38527183829889133 1.0286875761972092
Ni 5.545669840674935 8.40607048559937 7.658938905529796 -0.9377615413395978 -0.31294799192349976 -2.2242880843013046
Ni 4.953362148847834 6.9529005968221 10.650589748880089 0.45656235831376213 -2.8394455986848777 0.9282847121974143
Ni 3.0568833082631213 3.1472903442957856 10.500249431708562 0.517827889992463 -0.5742360935788626 -1.2421793843048994
Ni 1.06158383950072 1.937572111946589 10.417361296546922 0.171534232728982 -0.12350551145552924 -2.0439552794440865
Ni 7.700413776972567 5.911022033787816 0.2853191621709462 -2.020413487568404 -2.009303236587856 -2.3005074090763604
Ni 3.706697672521903 3.0226680335400187 4.913006331136263 -0.6126221495562288 0.1906681253449555 -0.6765107206800737
Ni 5.5794437466297735 4.287906778863709 3.7490175812522466 0.2610592734740085 0.5697957984193219 -0.3337325327690188
Ni 1.449307912054963 1.7977593594164163 1.8007854940338237 -0.45649962339662675 0.5638138698042741 -0.3368553946687166
Ni 5.151196504039327 7.5123171202308905 3.6295629631582327 -0.6815796505625489 -0.9578914793202535 1.0736749395411767
Ni 9.062551357295467 1.8145773485237944 7.870688330659068 0.8729239760389226 -0.2342763489532094 1.346246584530159
Ni 8.627803120555804 6.774486467434206 6.767112850449401 1.7356113619515012 -1.6783030151483354 0.5133986505765158
Ni 6.812683256254353 2.902955950331185 5.644426102573919 -0.10366636524241502 -0.534405591845486 -0.7475089062655061
Ni 3.992373607780529 7.735566960328231 5.768671410840127 -0.20249365722497387 0.08865472232493118 0.39326359825511625
Ni 3.7248397679340726 1.7563810373917021 7.321598916909379 0.8731867427820059 -0.24798341412665684 0.04461738159905865
Ni 7.216232238187381 3.4773422311302493 12.933577978388051 0.4550263812852099 0.2996921553548581 0.8403529840814367
Ni 3.695911723247461 5.2125007869146085 2.2999321926179497 1.4172686813749915 0.2434700996373355 0.3880488868233962
Ni 5.762308344430993 1.837666452213585 1.2859371015187198 0.5726180983594655 0.13540714798912165 0.7329397502020796
Ni 7.663467532995834 5.5943215521933265 4.581708497049722 0.708235048366548 -0.5486919265611712 1.0040427810653354
Ni 8.776774275027448 7.744955241836505 3.6998141587735254 -0.06612440243289902 -0.6016291408798349 0.25916591310603754
Ni 3.5647976135251507 4.9180986233001045 11.860753028070619 0.11974835840594215 1.2488051171515333 -0.04848303520205199
P 0.8551473909194215 0.6364877860120224 0.1501233108604643 -0.27101124248039776 -0.569458212574245 -0.2030454159633858
P 6.67210730356239 4.217333751854891 1.4851801586955884 -0.6684803941764293 -0.2144821970454177 0.6391091401031639
P 8.571105624199273 0.9709101431705632 3.241647630804409 1.0484089658855362 -0.07192583960602451 -1.6712108841882445
P 8.937441701858075 3.7553861647709836 5.504475422303664 -2.2132210278538653 -1.3059926221061187 0.2121301518734734
P 5.948933771945127 5.008579220794146 11.646877676707543 -0.6622169297652207 -0.01906755815441232 0.03263681219841476
P 8.691268271359043 8.786484387929246 7.213328399499512 -0.637951886570269 1.946282412780945 0.053575619233610955
P 5.458545484856232 2.136905281913645 4.004047811701102 0.03341559934596826 -0.5808780243754126 -1.4879987009007019
P 7.894799938662002 1.6776059074393188 9.990349886507614 1.4996938778504432 -0.18537962325250654 -1.357132121094411
Ni 4.934153412245694 4.438652603591079 9.489883679210033 1.029099466923647 0.10860134065018716 0.45134276178603566
Ni 5.076972989509662 5.733067663533529 0.19697000802031114 0.3111109387147609 0.42180952821360895 -0.05068081418431916
Ni 1.4349726222690677 8.55844385765971 6.290400558548807 -0.11631413591341258 0.4225587476748077 0.11179053701144617
Ni 3.8844957246707637 0.23875567663740185 3.0801370057227437 1.264658539244022 0.0326201000278664 0.31079932101161317
Ni 6.963180811049574 7.858534138203008 5.7342722324635815 -0.6010622126327712 0.7370460590609693 -0.9815744247594902
Ni 1.9808538367844402 2.5230201975002604 12.822103859335204 0.660939605714694 -1.2041360563789325 -0.16637711400807476
Ni 8.780351201086917 1.6975962345685918 12.065033206315295 -0.26448835376021546 0.4273507697468124 1.5291651478366828
Ni 7.831693399982977 6.159209209292051 11.025720099246545 -0.236912758134792 -1.4881341980373017 -0.045335490712005794
Ni 3.3352214877493647 4.105529525744115 6.962160145772963 0.16640025393652633 -0.9323838219674523 0.6753452396170627
Ni 3.3881857399409987 0.6636521946621136 0.5973135492738247 -0.6034574523378253 -0.2236432947193955 0.0984835354898949
Ni 7.83856220143908 3.2332285215497802 3.2177861317701573 -1.738590242074167 -0.8875167862514328 2.0897363423339432
Ni 1.4758819899775018 6.017143637007199 2.8267757009288847 -0.48854636741952634 0.4600742281217625 0.2141314985742183
Ni 0.04968800860554388 3.8357520613256506 1.7172913963340886 1.3404415478126077 1.898651955387175 -1.8129678856547937
Ni 2.1688493465167245 6.8699048780231955 10.598520187962457 -0.07506027146994815 0.12528625750503583 5.257849143449791
Ni 0.7902790552404109 4.513253120610302 7.33490894382733 -0.9966554874623288 -0.5765716836905747 0.7036859955432848
Ni 3.0278081406537556 0.7169465539116782 5.05847504052808 0.3356613743606155 -0.3412926045044638 1.5707599405593335
Ni 5.076844256952253 8.246662798794826 1.229745340209158 -0.017987437716356115 -0.954627463857001 0.521604583426076
Ni 5.657336139045629 2.1075542588241145 8.949784395558915 0.29486079540448573 -0.6713638863718115 0.6033962600825866
Ni 4.722884895170176 6.0267801884476215 7.756833578812399 0.9376106175840304 -0.5713011793202548 -1.7341918558961553
Ni 8.71813659512709 8.29728227940506 12.662316411486303 0.6624526999251107 1.2716640240275778 -0.27831471812034647
Ni 8.51908847582287 1.1052425668281294 5.368077760617931 -0.0393569045310677 -0.22216362485007546 1.100301026769137
Ni 6.776022062940455 9.160949007070236 3.6743517784360504 -0.19039738818207208 0.8316246030695033 -0.33607506485926636
Ni 1.5245245063132211 8.819826120298494 2.8516863703060302 0.23551947733169115 0.07862304912054201 0.6377693382458177
Ni 7.005506236889519 1.0915325494639407 7.214660781468708 -1.1483945398422544 -0.006861760116839795 -0.6090771125174478
P 3.317594322566836 7.548739238795311 2.416694461225555 -0.9445011740562764 -1.6949851037897068 -0.5901162551442288
P 1.1265110243488323 6.727931257565065 5.272741187154723 -0.646097655605855 0.7568029299729224 -1.2847532531113681
P 6.414108868146962 0.2729038265269976 0.0006307895313100856 0.3903824200525792 1.0813167723571506 0.052451532931496764
P 3.814805435198473 1.4959366833854797 12.109377894270049 1.178059928117171 1.0074512925262522 -0.9427859911373828
P 3.26065775146083 8.881654528586088 7.513538240489752 -0.25206298351266915 1.1330324555638873 -1.6889939192032786
P 5.6145785396200925 6.171567534803432 5.522764640638588 0.1989159671760445 -0.5666341128618887 -0.18837830086951426
P 2.749083763495282 6.809998262914081 12.747250474792498 1.0289140903857183 0.033130978226013914 0.02455634918312545
P 2.9841402181436743 5.3125259840223515 9.330715067154966 -0.2800640967112854 -0.677579271153904 -0.23664124964096017
