# total energy = -340863.8007400328 ev
CRYSTAL
PRIMVEC
9.37780899966541 0.00000000000000 0.00000000000000

0.00000000000000 9.37780899966541 0.00000000000000

0.00000000000000 0.00000000000000 13.72537139447459

PRIMCOORD
 96 1
Ni 2.5269069383458778 3.295615330970833 8.332672938299739 0.21910864007383557 0.05843166177433162 -1.062456445117538
Ni 3.2968063127310088 6.027765000050627 9.395085873012265 -1.117145866240618 -1.3522634801482 1.573401749057555
Ni 8.434711003938483 7.900457217503723 3.1020714171331325 0.6258985549501608 0.27836074086693346 -0.752077242362479
Ni 9.106152760212705 5.042119748700108 6.332817628972753 -0.6257324616859417 0.1678128180133368 0.4928107991228351
Ni 4.817924465703869 9.271211578802106 5.715368608794691 1.0288991779873828 -0.6447403702470121 2.090479905368187
Ni 0.6345925930581995 6.136988343048794 9.891738395938356 0.6054302597934799 -0.6781040333091225 -0.37632697040077767
Ni 2.4239573496591866 4.678935956510441 5.865537342039155 0.9117172947570362 1.0171291819356485 2.933310661566155
Ni 2.8760709058783585 5.261551104655646 2.3554111915660463 0.3550490348586079 -0.17271616885222513 -0.020961689853331644
Ni 3.143385355278443 1.650785119885856 6.176924681032138 -0.858308797228909 -0.2794303197820284 0.7061532261368548
Ni 3.106202342057207 6.193742843935282 13.576107991267921 -0.6036546559502959 -0.054201682853384066 0.45522898421431923
Ni 8.361592226110998 4.034042777898091 0.420151169343525 -0.9736081187245619 -1.116088628620697 0.11800129380784839
Ni 4.257356546835618 1.728077022778524 9.027492634967205 0.24021122638040568 0.5496689457624598 0.05711602828670164
Ni 4.795445857206692 1.6406852194472 11.701922826600494 0.27034172721719896 1.3270196179797469 -0.782311615766988
Ni 8.575781386759935 8.126293617098632 7.474741256219346 -1.4721997861952323 0.16923309539963113 0.2914540837157819
Ni 0.705057450900411 0.5372528097962105 6.626636580331774 0.688534227503511 -1.0343172636791607 -1.2936251016797011
Ni 3.7696542049482016 0.6912073645885715 3.9017800334164594 -1.106886907516771 1.026518593570348 -0.7380680725675806
Ni 5.358414495213565 6.253929622965267 13.17807250920804 1.7904763894204974 -0.18698373451483283 -0.004189355490999237
Ni 3.894735423194065 4.288359583836729 12.327661830054112 -1.3860480327978129 -0.5248855681701928 -0.33998519854695
Ni 3.285665475478341 7.936749338857112 8.14315304236197 0.443931556923629 1.388525547804028 -0.6286118401162657
Ni 7.2912372248418365 0.09407443012109773 5.2491995922436185 1.2682570552285577 1.2774621187665935 1.225201104579348
Ni 7.271553203466962 1.3208081498440816 11.848358254028218 0.7242836171889785 -0.36992183820538227 -0.7305604513366257
Ni 5.581456307686169 1.9698181866668028 4.293858731113636 1.4322391866418946 1.2181827642799858 0.7783855412397046
Ni 3.6788957681373256 2.5893537693774573 2.578214807686616 0.8079565700286022 1.1512821458026947 -0.9882024715989691
Ni 6.097554655635101 3.9382297019633192 12.430396666911605 2.3247765660363706 -0.41151765936929774 0.8047388344222527
P 5.338224072145387 0.9318316314088428 2.3890794019233934 0.613388338298292 -0.26085307100047334 -0.5060548086169349
P 1.7411403109039167 4.331591283950197 4.057741439363761 -0.6493984378443138 0.4758199209917935 -2.7665946761614224
P 7.362217862186486 3.3629386227527385 4.411059776343155 0.4222198762781503 0.31523473107514743 0.07269717055441027
P 8.330757989674321 3.4761662902516552 11.750152898983046 -0.9714195957136753 -0.14692697570326307 -0.020199614876326502
P 3.4609836172616975 3.6993112586247485 0.6644234039174056 -0.7431747976665265 0.2649426676888147 0.25774435016816255
P 8.417165123046445 5.528856176246595 1.9201523717056455 -0.850610914364019 2.1716357482129114 0.3836330171438877
P 0.483189740131538 0.4252573864176644 1.9820806098920458 -0.37325527345398946 -0.25339944293590555 -0.12850167911854
P 2.7693795713467058 8.83184246519773 5.200227735158469 -0.3045284004012368 -1.5228088666013515 2.0050663156883726
Ni 1.0143882363500358 7.153749165110047 6.437254538188294 1.0440566024541116 0.8648730807099879 -0.7751534074556521
Ni 0.7722541422589905 2.906811364223683 6.262351833349629 -0.4630394813976735 -0.42603410781791784 0.026590348894018723
Ni 8.828438320481636 7.7501590704931935 11.217924719321498 -0.08124171769031169 1.1834957544207616 -0.13488315716485158
Ni 1.8058190605096838 2.2133317564816424 4.104201919162493 0.38222276705992236 -0.28770772929947225 -0.02668753659351533
Ni 4.086145885453497 6.941004187067938 5.146629804826904 -1.7926278885458609 0.17124806894713088 1.4710229922783118
Ni 1.9325507731633496 3.7024059356393786 10.571487015544575 0.9199656508087576 0.41301969783612097 -0.5129412513241232
Ni 1.034044124297504 5.51589604402169 0.9000539873731606 -0.8047447479595238 -0.8297533541887194 0.6727741364557768
Ni 7.119670206712576 2.6872487189402525 2.3292508552023734 -0.5682976166072405 1.2104434866541993 -0.5622246709402834
Ni 5.9170036963542785 0.44576384165369903 9.987404240269704 0.494524182269516 -2.1935271489693644 -0.6911297561448291
Ni 2.7062669158665242 0.5843659851107548 1.7657007930291166 0.06343759962935526 0.3265239308357215 -0.6944845315496749
Ni 0.947196233896024 8.615777742721745 9.174930550191487 0.02037830654603587 0.031216277701804306 0.2368664782778888
Ni 7.54069632564842 2.2454507527698473 9.614100854242198 -0.6467645997658926 0.8638490103208476 0.14524675978736276
Ni 4.755055633261203 0.7448859440786991 0.08615299474455847 0.28098172342954836 1.105381012395206 2.9019606864999634
Ni 9.013471872529104 1.7644535444141294 13.474019285459846 -0.17098324532151843 0.12453446694067584 0.7668767692691567
Ni 2.538132175880763 7.442004262309128 11.19415197316366 -0.6751351804887857 -0.05496607182323437 -0.554690053126135
Ni 2.706923362505991 2.0127216634605367 12.852685038957052 -0.5106611970406947 0.44987080522619943 0.9898382074301791
Ni 0.8812824268271457 3.7132654386179893 12.767120970626188 0.9762872082186219 0.7520528168824467 0.6585402522445819
Ni 1.0029191757776343 9.023177904984081 4.182985831488578 -1.1463790520741226 0.9820904451639602 -0.8091122808996
Ni 7.151901736710404 7.545028873468901 9.414809281185505 -0.34392155748687864 0.38722381981893955 -0.29226552387348376
Ni 4.3740915149511155 4.41025234697661 4.180446320774754 -0.8657562546458896 -1.1240531348834126 0.7178877409649637
Ni 1.4396156137784677 2.4501495705739185 1.2975352409131504 -0.07639287423844263 0.5020230617497224 -0.6226610218494696
Ni 0.728383813343413 6.96120398794525 12.980413612721796 1.3198189864662497 0.9190940468370816 -0.6340276118151984
Ni 5.02786547881454 5.937278519704672 7.887202622071972 1.0501912545969396 4.775456711446801 -2.3819278184363815
Ni 0.23124270656137488 3.9073298208626954 2.5450680035171884 -0.02656103831798006 -0.8386069479246073 1.3909704098000948
P 5.306864678397137 3.5770340053103227 10.455329720471807 0.1330342768815709 -1.9952305605448735 2.851393257965057
P 1.087244435521734 0.3407014325688378 12.479025296182405 0.010985295366910112 0.11809179663912564 -0.5841854914820906
P 5.23231109577196 6.19558089452579 3.663301409326331 1.7052183514819406 0.7232559472554124 -2.0012304868820503
P 2.1458865531809788 5.923680696458571 7.716472104517576 -0.25107310879557404 -0.5235210837224985 0.24411878896492797
P 4.337949438543891 7.935220755968067 0.5404722116723392 0.2866859729031772 -0.8144231515895521 1.6627375566099105
P 1.9474239784518437 5.401308594198163 11.869961912933075 -0.37551990111845 0.9618052125523631 -0.5834018192385307
P 7.24069083360288 7.552240408693903 12.735347077714158 1.8421740749051048 -1.4437764978575327 0.826821268143589
P 8.448721450786536 7.617781916740112 5.329081646019439 0.14352000690424316 -0.624519158104131 -0.8697337512363988
Ni 2.5834645052405247 1.1070785018427718 10.648527593152417 -0.4614407694519859 -0.9225035867392628 0.38322549729282385
Ni 0.3958926526724799 2.078253793697611 11.0225849550344 -1.0388709444881141 -1.6243196189533446 -0.027699522797797457
Ni 6.3243663473800735 5.024114355160443 5.638148915032365 0.3396571257835699 -1.021873124378537 -0.32086596121899574
Ni 8.363242720518802 5.549824957472997 12.340042413674459 -0.8846258378568829 0.5321250233414254 -0.8399004699250502
Ni 7.557932738838995 0.5041350768351018 1.7864810802919002 -0.35570723726789705 -0.22180058508370187 0.08610213110640655
Ni 7.055122746434702 5.069718640985127 9.487883045529141 0.35268721949465065 -0.2896954491534624 0.9233430519214227
Ni 8.81694112648183 8.844896375513986 13.690564151763557 -0.1690034958873283 -0.729777293313698 0.414207547496635
Ni 0.23851801088849595 1.5872317073763182 8.585041035500074 -0.1175976306115265 -0.02049914839461631 0.5604614083922734
Ni 3.7097862714288143 8.096622228994724 2.7797992550768735 2.3777945129942983 -1.9743809707893738 1.2443013157439085
Ni 6.65325549156216 7.722044398705737 1.2811765906576336 -0.36654546553398165 -0.8852063929507014 -0.9309139222901452
Ni 1.3678191070390515 6.720635050198877 4.086083991913205 1.745716054485671 -0.7692851216003332 -0.7379485162705807
Ni 2.0831208766388016 7.765332365674015 1.4759986998804675 -2.640797540458239 -1.1390002431115482 -1.4868309058448457
Ni 5.131490269758968 5.793366660715243 10.779549653485457 0.6530748582546365 0.7817248900255827 0.20218666750751632
Ni 4.94488124577678 4.106852088024113 8.619587946573393 -0.19684262958678359 -3.1336134817873966 -0.7185207465632723
Ni 5.485746387651886 8.522130940697213 12.31853440842278 -0.6885231717599175 0.8442248083320171 -0.9962050301884714
Ni 6.187328422486776 8.369160118083139 3.6105962464244414 -1.5669529081084175 -0.4863059081247818 -0.8634702868251903
Ni 5.613715971111404 1.902860629441172 6.96833018510712 0.769040866800011 -0.7925777735796866 -0.2622005861673033
Ni 8.689477944715614 5.731379342331291 4.12422729278989 -1.061998788754829 -1.0753677538625672 0.09599316496787338
Ni 6.224286368288767 7.2814561699137785 6.199146337559008 1.0542852221606553 1.0327388634484471 0.22446681906195534
Ni 9.673960347733361 3.9471761318783405 8.459330566261235 -0.7263399854973748 1.1597878692808605 0.6021688154333887
Ni 7.261987838149015 3.574755197690459 7.690489946527473 0.6609594032090359 0.19910931413377322 -1.4350835980692251
Ni 3.0378850025069664 8.923041659037962 12.913296632740865 -1.1255734281826808 0.20596901736808398 -0.26614568685798035
Ni 8.955366967127143 1.744947701412825 3.6933601009475234 -1.0926370824659764 -0.38415237998246743 0.4652565436536503
Ni 6.360086422376211 4.918614002388966 1.4583074629468329 -0.5357448794821998 0.6723103094454808 0.4116487856305233
P 4.514017805058067 8.01772672073993 10.468121052132277 -0.22244413220497175 -0.27427114417859216 -1.0276845888539914
P 5.842112512600233 8.703741592410317 7.8955751300679164 -0.5480558356390691 -0.053223892321147055 -0.44282675389522447
P 6.448444140048466 2.02736042352065 -0.11413075051864066 0.7318118072452235 0.9133427461756012 1.5597414779616428
P 7.901348109371572 1.4815344206130012 7.014392108017604 0.5435929147717089 0.6769442086730664 0.10969200261120464
P 8.455267161562935 0.29276113448856506 10.112016568058806 -0.14577666414890378 -0.6229890946128497 -0.4483325142048021
P 2.350688526885538 0.9033784207116039 8.466261704993093 -0.4343104888940972 -0.5270540365764212 -1.099756981340209
P 8.510661880124811 6.000184863383878 8.24768560523069 0.16233688250043007 -0.03656520071854348 0.006483036621182383
P 4.13321310950328 3.4855253437686273 6.768255564987638 0.3777022534817495 0.408652936226993 -1.3244935091237835
