# total energy = -340858.137722609 ev
CRYSTAL
PRIMVEC
9.38128914703069 0.00000000000000 0.00000000000000
0.00000000000000 9.38128914703069 0.00000000000000
0.00000000000000 0.00000000000000 13.73046494192049
PRIMCOORD
 96 1
Ni 5.999043498459881 5.396924226279915 12.146751345646198 0.5692638371752519 -0.8439851815173852 -1.1931047382654354
Ni 3.244687665430728 8.702843565043436 11.988178479473143 0.3936983717996897 0.34342507746643436 0.03991560524801513
Ni 4.7601692350950975 3.4385050962650316 4.63248051045397 -1.9144081897801677 0.4747102328673824 -2.1379465834905824
Ni 1.8927407256939277 2.2225962283834213 1.9595570803711377 -1.7440430376586222 -1.1791547038432466 -0.9807316171432207
Ni 1.2534058800328545 1.3191593346658472 7.606993619455542 -0.9946698244908675 -1.1687759317120838 0.8198188686838268
Ni 6.020479743835312 6.220179242875477 9.820564109687673 0.42556950947667355 0.41938343527061966 0.8552193596703077
Ni 6.442806612242799 2.953726986954159 11.209166559952008 0.7829099114726195 1.1301073114972926 0.6387229604083386
Ni 4.749024263757675 3.6669863899712007 0.6417730426733597 2.5135312764086972 -0.6304746043566174 -0.8451097820401318
Ni 3.9228891914377124 8.07942876682311 4.01551534842428 2.1584845555429344 -0.5105688944372045 0.8045863680047884
Ni 8.521024802845972 8.82084141814285 12.36527252481622 1.4678453658812785 -0.14046759323116453 -1.1251754214133138
Ni 1.2319414907904107 4.583416368960097 8.076671605984668 -0.8015547802673163 -1.0825575867427872 0.076097711595527
Ni 6.759087389742686 4.144709769950641 2.616545635681001 -0.577719681252089 -0.924885199597562 -1.6925929494084464
Ni 5.928139716163383 8.72215025781483 10.755993075168613 -0.5754090308410413 -0.8085546086239171 -0.5765799112206909
Ni 5.673925546717693 1.1515063188652745 5.979466624565156 -0.3601395620076378 0.2421629507901378 0.3563525841613798
Ni 6.121159737432298 8.245224287400779 1.6949709578020014 -0.520892902071032 0.4667606390030026 0.27310951977032316
Ni 3.4842576427402925 0.862931302182566 7.080498794199172 1.0947291891083146 -0.24381334190936718 0.490319143049233
Ni 4.9129435265344314 1.6267342759695003 10.224074926738705 3.5502682052729435 -0.9160547457901256 -2.0466420822476303
Ni 9.390013603338785 8.326606969515376 2.581986843245986 0.2869428261089897 0.3257104337954907 0.26758936128304234
Ni 0.44807193982271293 2.713040636253051 5.924997922475754 -2.547820793719186 2.1298527507388547 1.589329733141721
Ni 8.4701125474182 4.648475608206752 12.433842242408383 -0.36644133585594957 -0.04057483609856883 -2.6507165993441637
Ni 3.1352174040364647 5.526470446143948 10.604175675207744 0.09077948197741785 -2.1307240976002144 0.23001654523559095
Ni 0.26557772481691894 5.106751576079731 5.544018147226986 0.3148914888031158 1.1986868603389036 2.635150626585107
Ni 1.1699405517592438 1.1261017882409137 11.895978233007382 2.22604234798825 -1.4833169791543164 0.4346748142120514
Ni 3.973398051438288 2.604161396066075 2.512180671763021 1.241808888339358 0.017171369572963977 1.0766563907670037
P 3.508508274817092 1.6103545453675305 0.5199288610820755 0.13329935761749945 -0.8680599630784018 1.4372212132375182
P 7.121768022659152 7.793580890854027 8.461329784652126 -0.09381132682520618 -2.341670770688548 0.44921877346449735
P 7.911025247902172 8.447719410564304 0.6135044045159054 1.4593059609516996 -0.2859868899536236 1.450937020161714
P 7.009652237765602 3.980443399480716 0.41726566298952383 -1.001644713146804 1.3851134367986855 -0.16787992380584635
P 0.1406180171472188 8.90009454765341 6.717808779993703 0.05218902329872947 1.4960621946351267 -0.4747238597141372
P 4.887445183020025 4.300260922935325 10.188567685985328 0.8585862192600116 -0.7805365261444364 -0.0037802929780386507
P 2.5115117858569955 2.490197497238625 6.102628877261582 0.8300040367469448 1.6275733500039518 0.9910473972469318
P 7.829248551649382 0.9512720863518489 3.1722453517374807 0.08933889287614936 0.10762637833142755 -0.8317976383122576
Ni 7.951937049251077 0.6280838657578991 5.348936118634867 -0.18767484704458648 -0.7079123749198066 0.3781948768474519
Ni 6.12964980398143 1.32588571888212 1.5800332811758775 0.6624560423592204 0.8341229440113248 1.3940089395161024
Ni 9.086491378885103 0.8328286220247192 0.9877474761304962 -0.520219273042775 -0.2622589502090644 0.6767624316795635
Ni 3.2698670451189793 6.6785584049275055 1.902053531288759 -2.3695505278179514 -0.8239292913077746 4.9133241480509575
Ni 7.100997848803047 0.4013118429083614 7.7515198816020625 2.113526759885321 1.1535156631189036 0.11856950760649258
Ni 1.5305948262507227 6.916158311546111 10.064416645427821 -2.2330632593907733 0.0919642463141384 -0.6402111149180909
Ni 5.303505350372463 8.722075207502794 8.082808845251453 -3.3720575889650513 0.10687793020117721 2.0081616667842446
Ni 5.55666881544964 6.053783319801515 0.5412093770600297 0.8709694234157128 -1.3365774368715109 1.204016500081933
Ni 4.899790959350032 6.246775197203418 5.339598921688624 0.11049470101815807 -0.32286653658879233 -0.22847131223565814
Ni 8.674493309671643 8.828984376998813 9.381875335127326 0.8763864806662262 -1.6386640606004748 0.9359789955178783
Ni 7.185457593711141 2.0795972400868443 13.406700674759735 0.944917949878721 -1.1025165463632174 -0.8870809842655948
Ni 6.228068906928315 5.9618091624007645 7.545920489906927 1.5411742564824167 -0.7658820094560552 -1.6605734590790562
Ni 8.948258085402845 1.5887869619460369 9.411162781270676 0.18219659753883463 1.549922434988692 -1.546467386560556
Ni 0.42702689419877327 2.715029469522019 13.674952066942955 0.45902830335575134 0.9031706907386059 -0.5472773056018316
Ni 8.906117335194342 2.4272021415729745 11.437916158523707 -1.6698697967793175 0.8422633137302721 1.570342650516257
Ni 6.630507442646125 3.5124859413550276 8.758182850752462 -0.5916941411543101 1.0635090547517685 1.0123474442762888
Ni 7.8958650848707945 6.192410627421967 2.8712044782255073 2.0115578369499874 1.5752236327576419 -0.7306684376693996
Ni 1.8531892112506836 8.962358162776706 0.3787808011060988 0.08283297343683153 0.6394351559840149 0.24931087468882868
Ni 1.092591823916609 5.9993624622860375 3.394266689835107 -0.20772585215819064 -0.1178611686855583 -1.0326151933863892
Ni 3.6725119691948893 4.686816936368407 6.69316225752091 -0.7785305514580012 -1.2005912764504678 -3.6576212753383266
Ni 2.428947061327823 6.464017706682118 5.22834152473899 0.13597484756713357 -1.7592094609864155 0.34868349765189627
Ni 1.6613230885293298 3.3032550526862248 4.148178970624529 1.2877416463157307 1.3147228028902649 -1.516567256567014
Ni 3.836252987480559 9.260382951873712 1.94846276799434 -0.4803761729039082 0.5783948529422426 -0.46914122342003717
Ni 3.047933891137996 1.220064778910632 4.5030159078042775 1.6815513468823042 0.06962187406319623 -1.3466075674140034
P 3.978604666835821 7.4441466380120085 0.3678572281891838 1.5984692335491437 4.025220893168435 -5.258476492621144
P 4.309266960379707 7.182521250252712 10.764602284088102 0.16951874496084998 1.3874965923188813 0.3373773286104577
P 3.148585740867969 1.6341548755721107 10.85342432838332 -4.982933937929295 0.41052778465220263 2.319356423462063
P 7.886117925595053 4.527775943874024 6.984536650842581 0.5592856429166174 0.43935884995128205 -0.25143974810637343
P 3.46341241857215 5.032442385874574 3.477432754989472 -0.035762759421906154 -0.28629696499487467 0.4819072648364539
P 7.166272857696806 0.8503312929205354 11.429980526154745 0.10421375310545279 1.9915471981560153 -0.1660744951659914
P 6.5875411390052205 7.892075044112951 3.8959236143229923 0.17191244200400715 -0.5894102302161397 0.44786843008419
P 1.3272929122328048 4.777290087528428 13.243417463377488 0.28461109265201956 0.9809010528415494 -0.04375940447413754
Ni 8.789395337399549 7.472252979869683 5.2353990684571245 -0.15049669533239243 0.3070953897974647 -2.7881688027877725
Ni 2.7908302846789 4.57450414440576 1.1871936803675383 -1.8965783606875979 -0.9356169841927693 1.1894193189940483
Ni 6.429241268342198 8.077486839999164 6.104853180884564 0.16553790593623105 -0.2716360205485902 -1.1312455388667937
Ni 2.862981778413006 8.214350465286756 8.690629126759493 0.6463079718444482 1.4437926958074487 -0.02579793489971041
Ni 3.7172982429026806 5.524838101857154 12.988662931685136 -1.5141601897874182 0.36187531375182197 -1.1587691982083592
Ni 2.316080773313907 8.615935303705152 5.793089494040373 -1.7198564131100897 1.3030970457258784 0.36301071290784576
Ni 6.500661021533947 7.673294003237501 12.965554002480193 -0.48496970581186155 0.27739272052670944 -0.7209694652140809
Ni 2.953267303792935 2.990267107626938 12.858195469240856 -1.1975915703921955 0.8766564464981611 -1.7779952262343508
Ni 7.924065239618516 2.3219159350747463 7.250907094580386 1.5516648716010955 0.9906059388341389 -0.9223302943861922
Ni 8.912552899451471 4.910607585572294 0.784566580740737 -0.20409314050160982 -0.28014174402675623 3.171335936038835
Ni 4.02420711268701 6.05229169484979 8.25573039295699 0.010439964386401374 1.4290181086014357 2.4462488491119543
Ni 7.194294767953441 2.7226939826387477 4.369212458989975 0.8900128132004091 -0.8308915815582205 -0.324085496597558
Ni 0.8724373623308912 6.683905739660107 0.9815014139112572 0.5584904007088317 0.3845904959611505 0.08728895232565612
Ni 8.83483830133766 6.977024114607725 7.398276825424189 0.6830426082613205 -1.0899340817125167 0.5350098010883882
Ni 5.318102636063565 0.8438535128628835 3.744050864756997 1.0524697662184714 -0.5202133595055041 -0.23203897498225845
Ni 8.513857498046484 5.8966842541310776 9.416462271429353 0.07799390017697534 -0.5788085434408935 0.799710527969726
Ni 6.083446955633948 3.4700637524763867 6.253540044704609 0.17702276664737898 1.1302116982856407 3.053003227033497
Ni 1.8891101668491612 3.4676339986242044 10.092440431942256 0.05045815665055182 -1.1838091718961226 0.9626963569080647
Ni 3.466480100076643 3.2486840945466726 8.287886637277936 0.05820489047550621 -1.5173277888821222 1.6240337122818096
Ni 5.189184962562839 0.49209645286333337 13.392297581751027 -0.44723182494145564 -0.7340111288893875 -0.9720819118880227
Ni 5.584174754811024 6.227506029588042 2.776505994497831 -1.7348963381623477 -0.5257787694084235 2.2608365728493
Ni 1.4381140792437255 7.211049750115593 12.438167016639486 -0.14127466251349216 -0.9984215782238158 0.023421207137417726
Ni 0.7954216702479187 0.9463844347804707 4.783707827336451 -0.16057799082779442 -2.475009980405047 -1.5793260849617898
Ni 7.151609902982671 5.14650009759207 4.742365424822235 -0.5406140346490431 0.33509033234849384 2.239216937696995
P 4.028259829536982 7.831500061010478 6.729465969710775 0.5298303137699779 -1.167928496110124 -1.1944815640083042
P 9.022557894318997 4.3061898975862105 3.810725561970238 -1.1825693859517503 -0.6687308196243387 -2.266568847347387
P 2.086023423054971 8.715095528483397 3.467710925194042 -2.0117902646757675 0.5265017636173771 -0.7857625504300662
P 5.22147535931655 1.931082053855583 8.035027125964506 0.9267335656602104 -0.44212612828377407 -0.903632975087005
P 9.158455246839118 3.8409623945608504 9.899047035370959 -0.20962178362932285 0.353847558351339 -0.4729508269741145
P 1.9087545860247195 6.492564969123008 7.863024944581417 -0.7715713465313486 0.15742530413142564 -0.8252510954429916
P 7.810091959502061 6.63288090876428 11.395008957003531 -0.2401744596051993 -0.13840274028233582 0.5520775552039524
P 1.3514215875525446 9.056574448249547 10.221205190432208 -0.2304351208302483 0.45358347819109623 0.17178645794910416
