# total energy = -340872.56214372057 ev
CRYSTAL
PRIMVEC
9.18117848081977 0.00000000000000 0.00000000000000
0.00000000000000 9.18117848081977 0.00000000000000
0.00000000000000 0.00000000000000 13.43758275442236
PRIMCOORD
 96 1
Ni 5.8648174874180965 8.945139607778595 1.9559610276427002 0.9338259537306175 -0.5442043231034628 0.19037142004014312
Ni 5.3822455628858465 6.443351089909501 12.061103981296883 -1.2229171936411778 1.3071439621017422 0.08597074773486484
Ni 7.781875107290387 8.476807691140971 13.38564690001759 0.7523256109278592 0.9882554363240916 -1.0571810556512116
Ni 5.141092727708356 1.58235775668812 5.881670458721372 1.2301821027337072 0.09403295591770902 0.02997443487490321
Ni 0.7474581062007869 1.6028868718734115 7.352091286814198 -0.05327942814943082 -0.2725114811750081 -0.8383652642274464
Ni 4.076232098667356 0.18316267536830516 4.061361343807957 0.7904288455574838 0.07398272213505323 -0.14251393423723197
Ni 3.6817535820970346 7.312625072800112 2.6682469570262537 1.3282748305430867 -0.346553595793087 -1.7559667856794015
Ni 7.615199992320001 5.881784305335099 10.161029705462942 -1.166934507627971 -0.8681723202865501 0.2989089973319303
Ni 2.155116397886345 6.808881350585715 5.971876455862251 1.1457774139343817 1.0597197629126653 0.6988119552804352
Ni 3.718230404382886 0.6488504125902911 1.7267832036173456 -0.6462421516035193 0.5004459470705898 0.17753055952173294
Ni 3.4459533740005033 2.7981753230621096 3.796103324409096 1.364499874313392 0.9563359619076756 0.1248993064792623
Ni 6.166960891547238 6.620345849543692 8.067159113291286 0.11671137135183125 -0.5277685461449426 -0.18322066792797478
Ni 3.761014696316454 3.4929977327703754 6.121262493549354 0.7630198574169117 -1.3660026841111634 1.191386212912432
Ni 3.373688317818289 3.848639864173531 9.44770905725945 -0.894959358572407 2.022868119756484 -0.3915391593648418
Ni 0.5808142072373909 6.418277291353584 10.416128750822212 0.06384049149472876 -0.10481564835550981 0.41547612979641346
Ni 7.1851903148520595 6.497510862037423 1.0682907173385066 -1.426793333035975 -0.8066231959291593 0.9135551192967235
Ni 0.7174990025509099 5.885970922743192 4.510015240509696 -1.36856247441854 -1.2969027439897085 -0.5725216819909171
Ni 6.467332328220763 7.942251933791583 10.04269808602393 -0.43925652004546284 0.23354718409666872 1.5816171949888116
Ni 6.446500234144096 3.2892582000884407 4.7272345795042625 -3.114641054449952 -0.09400518800356712 1.4189442693052015
Ni 6.398115423309352 7.229599675384822 3.30936773541507 0.05749038090698486 -1.4522899346451827 0.4385872618925802
Ni 1.960337695446291 5.393960746685682 2.4254571177174853 -1.2789767556389071 0.07546573443848294 0.56412960127248
Ni 4.04635654374207 4.728472202369637 2.5431029031205665 1.9173847559099884 -0.2339477619691971 -1.0627330958176924
Ni 4.530048572054556 2.2809719931278374 8.310003121553361 1.5166562167363944 -1.2388714029775891 0.1304099518848464
Ni 6.626735949798148 0.372433588810302 4.342489030289902 -0.15509717021888128 -1.3144235264822912 -0.1374930839838729
P 5.470963290987578 1.9184531590083211 3.4517384345900615 -0.5899707307053002 -0.03215447324535753 0.0017745754019195244
P 7.793645378161382 3.2049382565009106 9.2925590756934 0.9250204396238456 0.031844912424738706 1.2575070158009052
P 6.064994722831743 4.875903567148444 6.477640955470336 -0.12350576856584537 1.6869270093719206 -0.21394740758787026
P 6.576753613899791 8.83637018577495 6.987986863163152 -0.22069783893782635 0.7979164121837807 0.4058141812266173
P 3.240478598577057 1.37731449665542 6.93324224996309 -1.261705884373601 -0.5383980008343308 -0.3433965382213441
P 8.072808292438653 1.1042754284553364 1.5846539694376018 0.3163757866581261 -0.6846207513817177 0.22871736680819318
P 4.540763007395 5.843599783843317 9.561324305289391 -0.20729827770246878 0.3768283355172285 0.43977254044993297
P 5.633286527336396 0.6808605915229919 9.722480613847488 -1.516391393110782 0.9135124389842461 -0.5519762537393977
Ni 0.9732967355960475 3.329058609000891 0.08558878245989504 1.081065061357661 0.010002362628350515 -0.021239883215382775
Ni 7.882225388585216 4.078564118013091 0.59075099675664 1.4095846824671723 -0.669899386011143 -0.7537985959289598
Ni 2.977401109078244 6.7587612970094595 11.34607655200531 -0.30729670717499336 -1.1873400678675163 -1.2373513667886369
Ni 7.271153689395836 1.1063595559808557 11.19622043797765 -0.451003633279062 -0.1534480646512325 -0.28332091308568624
Ni 5.590529778938407 0.2774864310783283 13.069836393533874 -0.41506578173187225 -0.24776512746826365 -0.4497607620108964
Ni 4.073220672110659 5.716155844716736 7.057647218997393 0.2681938276362607 0.6283364749676921 1.0912034353432434
Ni 6.272269009246387 4.42278486332926 11.555837101564935 0.7515146849907897 -1.7092146171255271 -0.021264051585098864
Ni 0.0945147242233747 4.715030957006816 8.684185724872965 0.26295109118008264 -0.1088183417569997 0.32911688837387837
Ni 6.352328885997613 7.141910239278059 5.636501776056382 0.5985808409718143 -0.14403628441902938 0.8060742654042247
Ni 1.9656444166346176 2.8506549395196794 11.085858081499657 -0.7438399420543512 1.41077561745148 1.8704230424484691
Ni 4.104904919205668 7.877561349893745 8.686376354069392 0.24759903420404453 -0.1236266104144258 0.9903159183975461
Ni 0.9177248982107465 7.53499321671235 12.619234250748807 -0.023916144495965262 1.883335379634763 -2.0550367340692284
Ni 4.705528437231871 5.198043578108339 4.768649039601675 0.3436888726507823 -0.05561193293734938 -1.1183771675445577
Ni 5.719093821845222 4.389824432419064 0.33076572818555805 -2.76331471985857 0.07066368506414926 0.8309190923620463
Ni 2.754004673171037 1.3532139030233132 9.654365450359261 1.0338387813808452 -2.2580482114708857 -1.6466874451255835
Ni 8.563799357679718 3.4300332104355227 11.657398380307413 -0.302731199291498 1.0818091386125368 -1.2072620036024242
Ni 4.444562618794158 8.595097995276614 11.062933596836794 -0.1269055382760137 0.811529374981525 -1.124850176863411
Ni 5.806599634381453 3.979159498106494 9.358295395825408 -0.620884132454705 1.8607505523557113 0.38158899013066544
Ni 8.504020704293568 8.045228032144996 2.212538242744739 0.4769288377852561 0.7579802381104752 0.3859320975907095
Ni 7.453611250253305 1.1532570158943036 8.534248816474271 -0.11868109348369238 -0.8335747848173386 -0.4766457593271985
Ni 1.6761251329794362 7.805837983244595 3.589997802020878 -1.0457242199645216 1.3630988802008073 -0.670607210711445
Ni 8.716647617789171 8.822616780342226 6.424212923270977 0.6105431555400129 -1.880967650733535 -0.5019384724557162
Ni 2.0873133944680182 8.709486298538488 7.684281933907071 -0.022829596300005844 -0.032045458471319004 0.9576806488610281
Ni 8.264162415288316 7.853240407977002 8.699450352291151 -1.147973650254752 1.1420963655383685 0.8880322924352707
P 0.592893883824729 7.1032574776814235 7.7352237029614495 2.996976318045916 -1.159200886429139 -1.5494580937577636
P 8.576955986508217 7.614722571036622 4.46403222597749 -0.9885369721202522 0.32364532373634586 -0.4121344670176902
P 1.2531666006198596 4.952979560878553 11.864525767865631 0.46605050030985545 -0.09513698761516519 0.20049359607580952
P 8.59922034443502 8.466056531086421 10.990988963785156 0.31213398066263665 0.10390702049831138 -0.001726752883119607
P 3.094277511720803 4.030895439103416 0.6551468648237763 -0.11724590369906258 -0.5995205791772643 1.4919576855484498
P 2.3376657705290786 0.7435404973235222 11.783926955934898 -0.5877266718661297 0.8250590340368436 -0.5302694581899254
P 2.364116745863974 4.552055856982617 4.928112338839482 0.9556353362962253 0.4447103440711825 -1.995039270469674
P 4.371480437723084 7.2950982029929925 4.692887790636563 -0.44795636181230597 -0.13264346920105544 -0.17157845570335611
Ni 0.33402229220891355 1.5557231577826947 9.976249306438264 -1.547764765215741 -0.5281938066078193 -0.8479138271478299
Ni 3.229791706772191 6.1008196814422115 0.3119020787849766 -0.2030032498715407 1.3083698640890435 0.4218203268468864
Ni 1.5849284866755449 8.48645710977234 10.223729809856232 0.2902580065251517 0.6988929450300158 -0.27737497991489646
Ni 0.16777502015786297 1.3871842635714255 12.30268465939371 0.10505604650109004 -1.623528747620933 0.7832498113105414
Ni 3.3350998244713392 8.57515647551702 12.999356158457216 -0.9182854348928572 -0.9872547629737191 2.0993746367546553
Ni 5.864991929810101 1.9643865951764847 1.3790855459931852 1.0261596675690325 1.733697689868556 -0.6300951095300116
Ni 6.609337616490399 3.1497501923780176 7.427287893299929 1.0171140124269966 -1.1773613593882497 -1.6733346153994668
Ni 7.577079739077903 5.229195316848811 4.640145592473135 0.36611943374015654 0.5735074429429542 -0.36313284030800685
Ni 1.2529003464425907 2.512300967281955 5.008845195976702 1.1871215240988071 0.15266362107672415 0.6055061073367378
Ni 7.871768026243513 1.6093228780205 5.825917752119098 -0.10337608769550584 1.349297969761973 1.5541339019668783
Ni 3.757351406084374 2.2241404980486985 13.203419786741136 -0.23772779783691964 -1.0597827549401166 0.12660883297120132
Ni 8.965889071248522 0.6594317208421017 3.85423487436759 1.4731341250840435 -1.3312776219251523 -0.3532428348878045
Ni 3.562434985966422 4.407847085866617 12.01708206649794 0.37116085281880595 0.428817584100326 -0.7690650351697271
Ni 8.350281869867043 2.8354509078797676 3.8485232632062436 1.1807230767716312 1.6710293643050576 -2.1891326194460943
Ni 8.303310960525383 5.931215770521867 6.750893945130088 -0.09982050913376357 -0.45702772798595487 0.050081490037423425
Ni 0.5430850722005227 5.806728170880825 0.514798779278177 -1.0979132432632512 -1.3320139858705449 0.5537868245855753
Ni 2.2333584012893213 6.210323597727977 8.725842568083477 1.174031009463436 0.0203803634285649 0.3306526082921144
Ni 1.296070247874273 2.64189330218374 2.489245191766166 -1.0101393808813763 1.0674562123249747 -1.3619817358772284
Ni 1.8756596858962262 4.577138836717061 6.97320516573546 -1.6824466050030638 -0.7133091204553458 1.2916108994631499
Ni 6.691224547768401 4.609162787417551 2.5528450516550536 -0.3354250899800933 -0.03469420894807573 0.7309833978066572
Ni 1.970308455326088 0.20765714155919937 5.448416152762158 -0.29268898456414755 -0.15409315443439914 -0.1543312385871342
Ni 4.3615923084500245 8.63000483603443 6.383335562117366 -0.16948686328165005 -1.1540460817010771 0.6273149756817132
Ni 1.6053015218258857 0.8299849656220887 0.5810529178790802 -0.3129970999938803 -0.26673986879855355 0.773093696713146
Ni 4.594124016991116 2.3381615541695107 10.927442354731724 0.9195452754418872 -0.3395041451454734 -0.06634294620160833
P 6.101287921547064 2.3361233325366237 12.608605200368661 0.14653925334654117 1.8168916461892322 0.0427391907397393
P 8.859993358123678 3.5696330299312113 5.928742361026823 -1.335861898861725 1.2367193896315927 0.5790057470533642
P 4.952841843200655 7.447000801714212 0.6469590898138285 0.7069075878043761 0.002833869904369313 0.6232449193773976
P 1.3269924571515812 7.75250451718406 1.229928119651393 0.9839323834687055 0.3675877907555669 1.4439811576691712
P 8.982305018453934 4.726231994809167 2.4265992563261842 -0.3173394361229761 -0.9104317431763934 0.47047922550517035
P 7.474424981972919 6.22647329075612 12.50549872928017 0.7454623081491226 -0.8347487505207817 -1.726367217645414
P 1.4866715140847617 2.9182284134748433 8.745286467966935 0.3885692781032405 2.1492746069088917 0.7003265921527487
P 2.273930029197999 1.1399167634952747 3.4854801837928635 -1.5357934517864777 -2.3967749107515433 -0.7343751970970255
