# total energy = -340896.2348906556 ev
CRYSTAL
PRIMVEC
9.00380050024791 0.00000000000000 0.00000000000000

0.00000000000000 9.00380050024791 0.00000000000000

0.00000000000000 0.00000000000000 13.17797215022278

PRIMCOORD
 96 1
Ni 6.124790232338699 1.9304688377787582 11.08407181139456 0.8929832086826428 -0.3862681407738896 1.6942867921711013
Ni 4.684263195665 0.4546739147698839 5.9714924263764715 -1.4629350730638546 -1.9394332510695953 -0.7276515052199468
Ni 2.9740723357238834 1.7786107395073638 4.760951265178041 -1.0769777786621646 -0.8554574438230429 0.08433012680764831
Ni 3.4926732336389645 4.328649093368843 4.950516379324614 0.025310196630014475 0.11465371749185416 -0.6407142798067545
Ni 5.158628422003693 4.569671827427123 2.735904706786074 -0.06523762895257151 -1.068718623977166 -1.8987234320550594
Ni 7.364577538136037 6.168530694890723 2.6122032932599843 -0.39806899006355956 -0.4032461633891249 -0.14471865519803462
Ni 5.226724164753993 4.29040094908704 11.720290254876407 -0.38947996284296793 0.24946334110629298 -0.5777507916003405
Ni 5.544252191176321 7.750750539135687 12.2818041660828 -0.6286473213398915 0.8374602359146739 0.8459564463111431
Ni 1.7468453315445107 6.52969113825976 0.5553742196843228 -0.22223767262112049 -0.6566597473924175 -0.8907512340283305
Ni 2.562562640277672 1.4925149804314983 0.293377132494108 0.24666803774934293 -0.8538782722613811 1.72669888995322
Ni 0.5587074266083161 0.31238955750951625 4.80922153973293 0.33221866722765364 -1.5571161245236538 1.0368945374880336
Ni 8.629431424366645 2.356987868563426 1.1999454888371262 0.10705327943677692 -0.32314370150957894 0.5987173665496786
Ni 6.851802099107568 0.6669601193343312 4.73647983595405 -0.3468682988200284 -0.11540036584989158 -0.40774379414916234
Ni 0.6892463261908089 7.431601828633622 2.5419646460042538 0.43212787942048153 -0.5244788196500774 0.6988299530025641
Ni 7.635654958073003 3.7896005646477415 3.7879420646061437 0.346469520719713 0.09905097795759071 0.0565778963950445
Ni 7.645334043549211 3.9433854762139346 12.398600565049165 0.24149497818883572 -0.9000501428317531 0.36581141558143454
Ni 7.927531157033266 8.854130268221793 6.823553575597744 0.23023945987967442 -0.4242731592627532 0.2941645406684095
Ni 6.641473320759425 0.7448835102681495 0.21735894573402537 0.7893806067986275 0.20750216618315875 -0.11529649328217562
Ni 1.7470434151542567 6.419304544828757 9.277898637971129 1.1972861233366348 0.8459327921620593 -1.002596278426796
Ni 0.0742876563149408 4.875170776457622 1.4581555775610213 0.5405620983651851 -0.5973307706147971 0.051410750371808235
Ni 6.21402689852913 1.7966543555951069 6.839565033925505 2.0723225177328697 1.2409861353277467 1.2358619267273037
Ni 3.419490343638378 4.3286400895684 0.35611201246065405 -0.10343342329600252 0.41552189543268436 1.166295074271759
Ni 5.944867288086519 5.35425399422844 4.702322118213496 0.7739601584784993 1.5851545187181086 1.5424438672234597
Ni 5.314673287481075 2.9018708599715826 9.166175880554386 -0.42369157572767036 0.24825723661333376 -1.3272031947454626
P 0.3076490565762844 5.446777047580559 12.431848898944978 -0.09368508565998704 0.535643063797013 -0.18020373547852192
P 4.112287768723901 6.0678321907363735 12.496618637811638 -0.8738683422300628 0.07793450769394965 -0.546546083862762
P 2.307277886317703 8.493483041478006 1.3850447179639784 0.7451810294632779 -0.33230659895576964 -0.1506360491237341
P 6.293512448839806 7.759178096350321 5.816730602462215 -0.2988118096324338 -0.24760109108657358 -0.4894909907209828
P 4.57940493570599 1.018951092332231 12.392815623264546 0.281049086332374 -0.07025642232340158 0.4661626004076875
P 3.838968402476631 6.000375717817525 8.274000999599526 -0.05564124351338804 2.292674029074871 -1.2959023277496522
P 4.7329557484606655 0.9411402489039496 3.620990895652173 0.6565682161198757 0.12452623941055972 -0.10871755451307728
P 0.3218984711573533 5.600363875537007 3.7179411176821087 -0.2849165397075803 -0.7507970900984747 -0.42235820162822746
Ni 1.341494235601302 0.8477141143673989 2.7200913320680584 0.34748999156442734 1.7151145275497302 -1.0631074484379754
Ni 1.962198230539839 6.424013532460438 4.924041604502059 -0.19939110704025015 0.5892652199978433 -0.71794044857977
Ni 5.861753206197321 5.580744594371741 9.086330178225992 0.4015556630605794 0.17872663671236316 1.7714296572016912
Ni 8.448040860642259 2.429189344315727 10.170494896786721 0.2875511491169499 0.19421187683215585 -0.2496790566615248
Ni 2.38441344471276 5.103831292507683 6.917117468281074 -0.9109899296727084 0.38357156777833296 1.121942516298313
Ni 0.5585165460389248 9.057913283647885 9.003493413390435 0.0814450919503694 -0.6658283012655629 1.0347407243698243
Ni 1.4268952828030197 1.0931514117828747 11.386585100198166 -0.4210392257064878 0.10845838731441966 -0.9989522539163054
Ni 3.9641932590376743 6.880029013496327 1.3380646880125686 0.7464992340540693 0.06103104707039167 1.2057900470425877
Ni 5.651793583667341 7.828975557384346 7.996498467666446 -1.1105147340773454 0.5367339828683466 0.2707011674391467
Ni 5.261352781257715 2.801847640850456 4.708700410447308 0.619050678790392 -0.0761661029396172 -0.012938819548855136
Ni 0.9299935439555337 7.541214095226528 7.08024742432704 0.004236149568534639 -0.6126051802753643 -0.6028465582267036
Ni 5.133363757960676 4.767674402968819 6.997938282197444 -1.0487848611677162 -1.195006840384155 -0.5126568873144849
Ni 8.107256017675699 7.0816151016143305 9.208450524394292 -0.1720703077381101 0.6116734124897143 0.21560576912689963
Ni 4.450551547566424 0.17593426065593748 10.311881575142923 0.698377695956494 0.23258302041118653 0.08150756975718866
Ni 8.18705670100188 7.147549932258314 4.779743097082595 -0.1800525546126383 0.6028522146536586 0.36130684284286163
Ni 7.033858944064734 6.153809481166442 7.101239785059861 1.4704120981671902 0.5563646126150805 -1.5460989474775437
Ni 2.344472585947676 5.131184838253474 2.709628015573265 0.6126398901680417 0.7891474077418991 -0.5160283748898791
Ni 2.3204324387649047 5.140989976935885 11.434855374753056 -0.11441100535342875 0.9122482275598419 0.9446287007730765
Ni 1.1239264016969992 3.376047006500973 3.703853771509013 -0.4970891147832148 -0.7946626811331734 0.45526986475458364
Ni 3.690423702768256 2.6229781412501048 2.490807753027343 0.04597749517137888 -0.283140421643764 0.9656127592239111
Ni 1.092287046940348 3.2687307090210282 8.316156793273583 -0.10652646039902945 0.18481320922607525 -0.5494665999436666
Ni 3.798676395494271 2.6439660000827043 7.100053984541521 -0.6141468137308713 0.7616180919733787 -0.5465422272080199
Ni 4.0601737717599 6.874095509004399 6.0673225756313 0.8804326257111417 0.054154117444900285 -0.14934509822645248
Ni 0.7990557760134164 7.388428605509506 11.376358583655023 -0.5980267682405572 -0.5061226857403929 0.4109551019976083
P 0.13155722941259465 5.649704701964568 7.962645078380865 0.5242793020447616 -0.37482621748553513 -0.5585261390427735
P 8.496517322227293 1.6157860122964134 8.006355828391426 -0.011835816292663486 0.9248492041533041 -0.1542415070868053
P 1.7819511494717115 3.2286277818479703 10.443041736955983 -0.09750291674418046 -0.8980053444875825 -1.1923071820648046
P 4.098106783026198 6.133136755349347 3.7395790509066913 -0.954919284065807 0.6972916619811669 0.04941454587738586
P 6.78286900291607 4.002162285505744 10.317179411323577 1.2281434750371236 0.1670880240321703 -0.4085030409126901
P 6.178326829772692 7.611092590464538 10.249813876789204 0.5522680739482037 0.36077565292973995 -1.5680690239907318
P 2.5115831221694878 8.49114205336283 5.725341127585867 -0.4343853079960906 0.35278029342908923 0.272761135291969
P 7.0510381953099515 3.9799679174137848 1.558427301574374 -1.1852194219800878 -0.040654540296568696 -0.2837780552277629
Ni 5.146041108984399 2.7082261238442924 0.6868738247740823 0.6953072845612864 0.4367427524846736 -1.4073817612785826
Ni 1.531978637773104 1.0689852113939013 6.979488594709722 0.2267551008754998 0.8923509744152824 -0.3528779953492181
Ni 6.89583968707421 0.5982935356359462 9.051316199063308 -0.5779055720106498 0.11503141254624703 0.6149657100877408
Ni 2.7876576513523106 1.4826288075451002 9.107032616584549 -0.9050074868370284 1.085016846916557 1.2033433852743083
Ni 6.455796948024177 1.933674190736461 2.5294592675689915 -0.07250922291332028 0.18179499122504175 0.20069259946049306
Ni 4.001613053678722 6.836405600350061 10.368125615370122 0.08139135589429854 -0.5667372140986562 -0.09150890394427466
Ni 8.142929075030807 7.140445933708798 0.3399979108078428 0.26506273820644677 -0.24825826505459822 0.2753947162600741
Ni 7.59776696580892 4.0277780977660385 7.95100856668835 0.5083348629003633 -1.350525671521487 1.690421395678424
Ni 2.976755468255893 8.162638394200503 12.332671136685446 0.8800420751409423 0.35848839955746004 0.3894575942454647
Ni 0.2706434367556138 4.895096186837949 10.139013108537823 -1.7938301363840783 -0.8778581801157461 0.43594956715941696
Ni 8.6132515949706 2.2846153206027084 5.876479822201867 -0.0020535400949190444 1.0564560045597289 -0.03146310360528775
Ni 3.433860409145383 2.7546407151278824 11.748623414110392 0.5584582619193156 -0.03936281806833866 -1.5848066484603867
Ni 1.1156789204912243 3.226232770930136 12.604032176336368 -0.9052910795157183 0.8655189418241029 0.015012414248432209
Ni 3.1674109426361117 8.417788091153827 7.9558580136069414 -0.09235119733991193 -1.2382867341187125 0.3555221178402845
Ni 5.698784418179282 7.789736995053814 3.5093203602780005 -0.5037066200997324 0.07433779148162681 0.026079213585555084
Ni 3.161621498951272 8.33699698977892 3.5398666536608734 0.21669385998475582 -0.4997265524060619 0.12131004646610719
Ni 3.510401716711203 4.431400464024194 9.50965916251371 -0.23495460596715667 -1.7858689725554726 0.4513882703119903
Ni 7.336755794767211 6.244459744026421 11.462740144724982 0.2373752995935073 -1.3709075776119486 -0.6738606846517363
Ni 0.5236916466855452 0.0031630350956208205 0.24427580715833064 -0.37742123190622096 0.30021640328944427 0.10903919951855416
Ni 4.547747573348453 0.2809545890229208 1.3542742299500754 -0.2365234931161733 -0.1593096656383321 0.7239719994858306
Ni 5.971491525996428 5.5918822955197145 0.3922208537572033 0.6579401567667379 0.2791562401850353 0.9917436519830081
Ni 7.858165878420504 8.778498344500715 11.256966389020945 -0.14025907676478425 0.009894890516208765 -0.011923748020779465
Ni -0.06391437782457716 4.891179533645251 5.824215461770469 0.15878953146880392 -0.48382042269876674 0.10016426562642748
Ni 7.887095089243817 8.861558403587257 2.439374443376832 -0.29213028384720013 -0.03951425604453839 -0.3233401337911012
P 8.444970564691202 1.6423472236032208 3.5750255940106874 -0.10024859781011766 0.9428196725887956 -0.3834355564211009
P 1.9270383898099805 3.239405330978224 1.5584795236169433 -1.540307280496431 -0.08895785538764679 -0.027591022244391195
P 4.704341670652857 1.0039147455924449 8.213751168555243 0.6588338722256009 -0.3486534157449092 0.00017406368401905506
P 8.33130658789895 1.625294025564206 12.23577313669808 0.1348150229310775 0.3619089952032348 0.5976812119756804
P 6.318624048275292 7.785091034025234 1.2497788231489182 -0.49868576984637336 -0.5370921375387137 1.0208948196256675
P 1.8378647502226517 3.2130241956802763 6.037949477446149 -0.39606455803902113 -0.5378321010285319 -0.33168439199073846
P 6.798184467469588 3.7483451510179817 6.023980081058856 0.2965178713919345 0.37433642233331016 -1.5744409889553466
P 2.3131753756078584 8.409405552941408 10.233538607108464 0.06310618443186551 0.4419620919020841 -0.9969689049376894
