# total energy = -340870.03763370536 ev
CRYSTAL
PRIMVEC
9.20745728515865 0.00000000000000 0.00000000000000

0.00000000000000 9.20745728515865 0.00000000000000

0.00000000000000 0.00000000000000 13.47604444087758

PRIMCOORD
 96 1
Ni 8.048395098405114 3.209102773235653 3.272657248399437 1.2323297452043294 0.6822882465937993 -1.0870217931617279
Ni 0.9073921711044339 6.361248214582401 2.3403708745423306 -1.1879694739213993 -2.301052225836237 -1.335849557566551
Ni 4.930087063248427 7.268164360135808 7.562729339409951 0.43044972038711027 0.519679341378905 0.4472619068484426
Ni 8.657035659325302 0.6186278900343012 5.922007376880004 0.4522048526760148 -1.6555374393170454 0.5322921450469091
Ni 9.07600259643181 2.45926585206387 9.84617787040175 0.5291340590339016 0.6147628500483154 -0.3526581660289281
Ni 5.2326441156036525 5.203843188647866 8.70943253753096 -0.8157228442375822 0.45672793735734896 -0.3335656681738513
Ni 1.8443550126088688 1.2297756416226684 12.461554322321746 -0.0838830119679007 -0.003826572834941797 -1.5488353725721005
Ni 8.83984051986884 8.287503561357422 12.486215576400514 0.8556600467521521 -0.04686144043822898 2.040412299287835
Ni 7.978344761998584 2.806055530089043 0.37190393901129937 -0.33065749338812084 0.4198835148354898 0.4982908484007999
Ni 8.93254120164341 0.7142187927076642 3.4327390246609455 1.1169162667283152 0.6809340465587498 -0.09910702800650673
Ni 7.532455219259495 8.768703703481242 10.631117302419517 -0.409408840556411 1.9021928786608984 -0.3432677259529637
Ni 3.1037234225294585 3.176480751431193 4.652509843000316 -0.6138989593861235 0.986394986076585 0.7576161699028371
Ni 1.3481006775270201 3.834887619958807 1.376173294597192 -1.4089907576369152 -0.8570229885379498 -0.26831518370547336
Ni 3.57437181839646 2.3291552706021634 10.885099492163507 2.5399357345441547 0.5238113612694075 1.1801155250946191
Ni 0.47896641294240355 7.079568008845726 10.3865534209182 -0.2892017973464955 0.03707119382068454 1.0995170974152613
Ni 4.84617950335454 0.2768397029050307 1.678091349404229 -0.6454872757153657 -0.6631119307756644 -0.21041034096888925
Ni 6.12212133671516 7.738637814310942 13.171041402637282 2.015422719222032 -0.4687997809202184 -0.4106288290064412
Ni 7.488609306803148 9.090973922272637 1.6127994270164816 -0.5932020931584042 0.5611280954419948 -0.15105616738028824
Ni 2.9628585307466655 7.210682203171301 1.8675642506451384 1.0801978282613591 -0.09421858956595387 0.40187499407321114
Ni 3.961186314029307 7.830786048637512 13.289872848702302 -1.528624187731548 -0.004884067565178686 0.1279190671421926
Ni 3.281814064850054 8.598089516623594 11.149863614600982 -0.7038086371640783 -0.37568907970646265 -0.5430519546665744
Ni 7.401221327986853 4.980820153889854 12.896695999959977 -1.0126364362716176 0.6612303974822354 0.027855588759687508
Ni 5.040797531827832 5.161838767684855 3.483570635097266 -1.2398697623351163 -0.7359309716199197 0.36248980740736925
Ni 7.977792314550584 6.893181447347649 1.0602543799663158 0.20719543357601738 -0.9943929166803972 0.48320001550594843
P 2.250146078080551 1.6262487601380666 9.540055690515425 -2.734935654495245 -0.3081333441436758 -0.5731760277454645
P 3.8508165213761703 8.426416472157278 3.4853771382522294 0.05618323205978711 0.4490012581370525 0.4083233208017161
P 1.7433492041993492 7.423577034715961 12.468184612443507 0.48660287053991036 -0.22143703109669605 -0.5144175787593335
P 4.866408287408844 5.500028680436146 0.17844328794156916 1.059885599066568 0.7051764640458823 -0.8871920559221624
P 2.760506238001359 5.453300833792726 3.4686398220692922 0.525279718284818 0.6913166753446545 0.07501502005430953
P 7.477983900886595 6.825828895978859 11.459570257679085 0.5340381812037382 -0.8692845795141223 1.35824129499819
P 5.337765657500779 3.2259892502295506 4.4870509115782635 0.9151150075846757 0.11523427258567251 1.123234752747175
P 3.6933505837809464 6.976849613347404 9.636140112909002 -0.5142537994879596 -0.6380583302411463 -0.6489484947910888
Ni 3.9946738368356356 0.6936640646590396 8.665042464338331 -0.5115299727988932 -1.2325804277625547 -0.6580712830279635
Ni 0.929308682112381 4.5540637077665345 4.159219388476992 -0.2035580939337462 0.23689990261898555 -0.3271124563493399
Ni 5.533562240529808 7.45909019816496 10.796696851534382 -1.4435936924227655 -0.7085577218132895 -0.5572009924734469
Ni 8.735400329824246 -0.295243568889438 8.516846594920564 0.4833915626914642 0.8978443934296859 -0.5688889703343363
Ni 5.512099657174968 7.300105030087733 4.384026828492047 -0.4216992278879899 0.3984214883069719 1.4292479652240544
Ni 3.5743810258539273 3.293516743290209 8.536589225220627 0.1874125945221353 -0.15861212535067523 -0.3640532952397472
Ni 6.565359131703844 0.864974335301169 12.645906956465433 -0.2597474966411204 -0.6707432220686771 0.9023335395492911
Ni 1.7413051486417457 3.6661333395094298 10.356178939481357 0.4290379276412482 -1.4193517891562655 -0.6930218309612194
Ni 7.133532917057959 2.835602261099631 11.579453195386801 0.31096541427583224 0.35137492844113033 -1.26020770256152
Ni 4.522730730007409 5.007880871384438 11.405436852995212 0.36020152559382485 -0.012651113105107243 0.7187680866873879
Ni 6.5953570281303 1.4487658100102725 3.3775688602663236 -0.72824568716052 -1.568615126302189 -0.04001716382288592
Ni 0.48740688920211245 3.643906537184855 12.274237807619535 -0.7957759688020102 -1.2363077560154707 -0.20245611911881908
Ni 7.760395036304716 4.2324011811679405 5.4395108247448745 -0.7237323726711988 1.2673443136063012 0.6538880981845513
Ni 3.0177810145354336 1.8578163154251606 0.713569666956263 1.0719350740319347 1.1680030581018013 1.2677914284460488
Ni 6.558039203017831 4.984521551791461 10.594907134440291 3.501974660373879 2.325697278078427 1.0872724757199532
Ni 3.680478558242523 6.17773437981393 5.511122745937753 1.1388470053631354 -0.9225069291733725 -1.4870371083183809
Ni 3.6321394065424335 8.662670623294913 6.184426359900716 -0.25994418603295877 -0.4729765380057273 -0.08132450721210509
Ni 0.4925188695876152 5.665670840261784 13.229271205148084 1.2454310584729777 1.4298349480757762 0.30670329656536854
Ni 0.9102059701062523 7.743619048800418 3.9847049226364573 0.381258346264124 0.9013745180701316 1.7788442044982073
Ni 1.0868298644524048 1.6091505116224352 7.51734209857368 0.5325016899545538 -0.06710347851671669 0.6728556404259896
Ni 1.9290267914724917 8.694058845798837 9.230187916931655 1.3126646348096553 -2.0206217469244683 -3.3221126245054915
Ni 4.3936882136118385 1.1206212333551338 4.7628253116543995 0.4688339765922635 0.01902642050383175 -1.0211575863687512
Ni 2.392760386782014 6.855127025637846 7.159984100868248 -1.2029122112741608 0.9212308906744264 1.1050891921864
Ni 7.397823776181646 7.749907742250163 6.8361145467148905 -0.03976468149244765 0.1633871781418154 -1.5440407793969344
P 0.4075809952032052 8.352729190051408 1.5023228278567313 -0.18345952341165822 0.37851009409502556 0.8709455121563128
P 1.6476100614607725 2.5130097812969026 3.1180198417379787 -0.4400934141244614 -1.4829637095799557 -0.11973061779412929
P 6.364848330451874 1.804974717023863 1.3729396355348928 -0.45793789850505 0.39526417362491284 -1.6546717488826406
P 4.093166009356751 0.8799760457516366 12.456083251095045 1.6249791069142143 0.1464592920382252 1.6503934332222612
P 8.877913356493577 1.4381956488385197 12.252958452668283 -1.3907798910558435 0.4488426210720012 0.03509015883491376
P 6.720449545272664 9.170894653083451 5.083474097185911 -1.250774325062762 0.7290062194756283 1.0668648585978788
P 8.49154081881913 4.697405405607865 1.457973267476956 -0.5392390086783875 0.6619503063673955 0.5397092634465867
P 8.198844953410724 2.6033165241301357 7.451363299858919 0.04512568869404487 -0.8115620279916733 -1.409732006678314
Ni 2.8502789483015247 3.8532472901473747 12.61006048305614 0.09369305607978702 -1.872728550653194 2.657364443677985
Ni 3.4413793027476816 4.717109364586569 1.487553145334424 0.3687663844447004 -0.5031844290476754 0.3366977860449298
Ni 7.399379836493517 7.023071049830155 9.0635964682412 -2.8167527850730525 -1.2073926156430173 1.4085495563344386
Ni 7.133090959099558 1.7054513092664794 9.156878140581918 -1.7860216960832531 0.5597733811863134 -0.4852517558286546
Ni 5.48432996545545 1.1596884753862726 6.911028262155322 0.2580066026906137 -1.3963512144960337 0.4425729860132055
Ni 0.5979092692427695 0.4401440892798786 10.604528927492977 -0.6033996025166963 0.3785265491552578 1.228186155349601
Ni 6.163564102772702 4.097318572674225 1.5680723608805727 1.2547453938953679 1.7589335816172094 0.6662941851583879
Ni 0.5135744833224274 2.509998942705297 5.222978126755128 -0.25141583684697344 -0.739680668470339 -2.2974346836883077
Ni 1.8743344941203908 0.6077023210043343 4.952217187269602 0.2093693012988846 0.2026633500336187 0.2891411193118892
Ni 0.026620601027675772 6.434263352293203 8.094426861264052 1.422370521377931 -0.5231451884403184 -1.9807938162942536
Ni 5.265901451973314 3.037356069109603 13.244189127735604 -1.0559494972369556 -0.619834608144268 -1.1611796074220646
Ni 0.39512238450503556 1.2670750518202039 0.9028805169457589 0.7964169448201187 -0.6534222142917263 0.548701696753184
Ni 5.654060236396297 7.14663512903305 1.9579078233082383 -0.3475900074774013 -0.38518776322551723 -0.23423058331693852
Ni 5.826313350683014 3.4760822099396123 7.138220433654248 0.0800564391329589 0.8522186251707711 -0.18909923819593882
Ni 2.403505489645634 5.492653507005332 11.366854843972568 -1.8675187243174804 4.365074451233528 -0.29016801791450675
Ni 7.319634047374569 5.646270727379482 3.4939345492217653 0.8672814330411643 -0.8425939575968133 -1.2897288519490884
Ni 2.2723544654901917 0.31185658439657526 2.3849229989863727 -0.6806435119015246 0.17171883793596235 0.6118914420377913
Ni 2.0084963568674383 5.452352465673658 8.98621699569119 1.3252537843285757 0.2436768163315029 -0.6903658813956111
Ni 7.001240168176648 2.104668250106949 5.454873467528036 -0.11641980825334143 0.7777131977630284 0.9295196130457799
Ni 5.346512742094129 0.644537675345549 10.358914475094709 1.140186035889533 0.5904654109535313 2.303715117380381
Ni 4.614501458577846 2.635340061199261 2.604986756914592 -1.2576574253358406 -0.2028045035971733 -0.8738827404077659
Ni 7.641858228878631 4.278613410193226 8.65524572959378 0.5005135670837315 0.5917054540082197 -0.5234210678095244
Ni 7.665926522696542 7.8606090033721 3.8474511956720976 1.829125983471895 -0.15665628717588503 -1.2231326520860937
Ni 0.521688094842069 4.00968199250633 6.7512291548380405 1.3227215048250252 2.384129454073391 1.9439730479214776
P 3.284769658696859 1.5819885120957182 6.886178255198489 -0.20903454366728513 0.13922112241857312 -2.009233045471553
P 5.546572377930232 3.3742937676454248 10.002567456219118 -1.2304127306872745 -2.6002414734127477 -1.127627225387916
P 6.3247866830143336 5.883086533422586 6.3656788431153695 -1.0221299775843495 -0.7288444970867836 0.20429394365850623
P 0.9722154339071268 8.576774252588221 6.8431352330332365 0.9485925705168307 -0.6119472349763911 0.1930800772205578
P 2.9290303320140696 4.567930138711359 6.849226886893195 -0.9871436913171517 0.6377425987729404 0.23822196386451877
P 0.02342929626972322 4.987044395137333 9.97851205284166 -0.10518614432105111 -0.5861541851726872 -0.47590785271990943
P 6.373936090971491 8.99684608459073 8.485999770915681 -0.1555280871087128 -0.8451660891993638 0.27840702072383666
P 8.88575811025519 6.075577639221074 5.15334765040908 -0.0900675435120578 0.997861849065604 0.17972705295241947
