# total energy = -340859.18983552774 ev
CRYSTAL
PRIMVEC
9.34799662174945 0.00000000000000 0.00000000000000
0.00000000000000 9.34799662174945 0.00000000000000
0.00000000000000 0.00000000000000 13.68173796591045
PRIMCOORD
 96 1
Ni 6.874039767739504 4.12042852700385 9.563302206002877 0.18842406650578516 -0.6341142579917337 0.06696721004916853
Ni 6.21129487053637 3.8521597277607853 4.521882904238955 -0.8871344632113496 -0.7331510948819373 1.0119026434293863
Ni 6.241685206669174 8.188816758329041 13.260586199841464 -1.495102658935335 2.3854340318174274 0.47857023004342086
Ni 7.0997097476170845 8.545330643113068 10.974641194485686 1.545025511907707 1.0524839072858583 0.7703678131415507
Ni 1.5613771342940481 6.585289508494294 11.416247085641928 -0.06557444346669997 -0.4617246192409919 0.7017880071896236
Ni 5.2219216328791305 9.16339211776474 7.6327128686834005 -0.9763214038906669 1.890001221690713 0.3199647895609651
Ni 1.3578712537615538 8.432537719157851 3.9795112212309913 -1.1933981011361383 1.5848863526583867 1.4060324463395397
Ni 4.278989241087091 5.259304270281493 3.9503146242320413 1.2819407233632374 1.8486684243801967 0.012722846883307121
Ni 6.722536790900269 6.13169668161886 4.508447029085562 -0.9285294812183686 -0.9293334651769027 1.4740095857104616
Ni 7.876976948100126 0.6566303727908098 6.348462694973373 -2.3737864202761694 1.0425530213253915 0.07552281292866347
Ni 8.518342977651546 7.0446033091357325 3.119354402315718 0.1758912241460971 -0.43035073291540077 -1.1744056191940355
Ni 6.29845558850077 5.42523120548828 2.4628904238599323 0.024286640461506557 -0.138459047441568 -1.5736812279711865
Ni 2.722762852781716 1.797591654054066 5.09119364312742 -1.8765245273605167 -1.3402410017660271 0.34719302914929884
Ni 0.8316108424622609 9.4463372712768 10.704043809351917 -0.3479365921835427 0.7879014511499398 0.7181525645905761
Ni 8.046203726018351 6.190336662720391 7.8920636794088725 -0.29592214678946455 -0.9415330925668882 -0.1244298230420115
Ni 0.20703100995595772 5.158121557792576 13.075157474649979 -0.7706514058202406 0.7128442650037853 -2.7647010586831358
Ni 1.2339448661538701 0.05098303729150986 8.374933496051865 0.21254692769591782 -0.7836017953333214 2.971832986011069
Ni 5.4179117243464825 2.5385138447295588 11.439957343583252 -0.023957539256861966 -0.46112040999808973 -0.5219851066939462
Ni 2.8256936405880224 1.899260462353166 10.902114764806708 1.6916421554594028 -0.0400439032957633 -1.2540231710173628
Ni 6.110691733821133 0.6149355046723401 1.3656001771434676 0.6391870445289508 0.548461812828236 0.7079977355447613
Ni 0.9187911912189947 3.5801236859888004 3.585135146831863 2.3501988627642167 0.024559691617235122 -0.538436053161118
Ni 4.097722243870481 7.8111857497910915 4.422744598551712 -1.2310639911180283 0.5291263457244177 -1.153662473109413
Ni 7.546431797175506 3.607933975129093 12.11407033914723 -0.07008133019811802 2.2062006306719746 -2.476039707221142
Ni 7.01240880970744 1.4465276511419016 3.912320627868409 0.0327684526802726 -1.6220048547772388 0.8252732069301787
P 0.8121913148454395 5.8115838946204805 2.6650520625173426 1.739787604816378 -1.035337991634191 -1.131590323800722
P 9.024078928165487 0.7799968154171478 4.6738598244931175 2.082228206882356 -0.26153415622789794 -1.183998405088793
P 6.690127287555935 7.539841459748983 9.191418345620711 2.185715880455062 0.5472963317652252 -4.689964960230884
P 5.2308302734003735 0.047209251165144774 11.60851667456211 -0.7964578253603831 1.1798735842871422 1.7863163445055363
P 2.537812745003333 2.6326762119598675 0.6774810786487669 -0.840509821374275 -0.8414529020138348 -0.6707668762177609
P 1.878461170475132 5.976641466166748 8.714829447725068 -0.7148376412847302 -0.5405042485440562 0.47481410543509844
P 8.46656442587068 6.486780322961386 11.5556088848222 2.705282864625818 0.5561000460997843 0.11772644287990693
P 8.111247084619412 4.716335250306785 0.9300312220298478 -0.5274690126266528 -1.0120029164526763 0.5397704557018251
Ni 3.013438799274959 1.3819236483692756 7.412696556998105 1.51511972548721 -0.012441053976830187 -2.174193738748075
Ni 4.636559449458631 0.7411072810032165 3.5535305059732356 1.1166974658492896 0.8419344696359435 0.6761109141384936
Ni 7.8138592767471 7.913555657816418 5.025356639636271 0.9173315556200201 2.592028598584652 1.9243480746016988
Ni 3.540693837385858 3.258019775767939 3.687201244975824 0.900147844751882 -1.265332682492911 -1.6071603335652387
Ni 4.719924880905061 2.6076890177171776 6.011290749436465 0.4513880132016742 0.17268017340796712 0.6792862265426818
Ni 3.315126685468123 4.829072086283904 7.3664389318613575 -0.9536833547761769 -0.07361299750046031 -0.9079331451242557
Ni 8.620656797698775 8.354248249729295 7.656109033947375 -0.007470083124800038 -0.22724566735867313 -0.42578471081127317
Ni 3.809345904479259 9.22152730706339 1.4313427658714843 0.8632455724088939 -1.6987990782191582 -0.5330945863435463
Ni 2.128015281026141 6.03090658497663 4.52504346180478 -0.13840762537834228 0.31605979807960405 0.12023069735899938
Ni 9.212123222735613 5.391185802782753 4.514823297395678 -1.6116183693365922 -1.0043034909258897 1.937553003327747
Ni 2.431619506470989 7.859935550754663 9.63008242232571 0.04133151175893527 0.7802339073023531 1.3182791527829556
Ni 2.0947925019993847 3.009260244906653 8.613885109143068 0.1597452105138539 0.739742632056526 1.6541958376874868
Ni -0.011866346566281489 7.434676500815104 0.21439255708132932 -0.6087143298613903 1.2199074602805764 0.9782929257947409
Ni 2.94979764012635 8.870968095954106 11.940654724064714 1.0630812231857305 0.15559416445995786 -1.0347055002565146
Ni 3.319950251584557 7.3125823204919564 7.600711872779548 0.798113101575619 0.43188748127490134 0.6365742894964521
Ni 0.9443626352335394 4.166102837168378 1.1541148469268883 1.0843401325645068 -1.0704271220278403 2.049291346945019
Ni 0.062297852073160326 7.427637459563796 9.677065451979193 -0.4950682276984441 -0.5592756156142883 0.1656806021616824
Ni 2.551348643717667 5.971584200141572 13.630677114523765 0.01196128612693424 -0.8513279950357016 0.34696754340205405
Ni 0.6320376639940763 2.9514896274656417 10.763135298677138 1.7022705817075265 2.3444727589137173 0.8690770914890066
Ni 9.089075546784798 1.8540161600207237 2.4155792795345765 0.5790401998357253 -1.771928965435613 0.2977100919278228
Ni 0.732529559552752 1.5315663739349243 6.946437195068857 -1.5899881926613262 2.650456917924874 -2.5371921103607464
Ni 8.587219014755975 2.5657445580961715 -0.009156362424509781 2.977396339031459 0.362183331910544 2.5086194409293765
Ni 4.780369025302081 3.675557380722665 8.681924500574201 -0.7557654898473435 -1.5774563787429026 1.056897977193154
Ni 5.0252397896819 5.76075883846728 0.539155972263674 0.06489104424643019 0.9174197444584521 -0.1652589412432315
P 2.7421786411999975 1.1268448719756072 2.817903955229836 -1.5116981014001707 0.62632895761936 1.55373795208004
P 3.4023808833960194 0.45348439011777836 9.124856872412462 -0.26305753485095984 -1.014359332499995 2.193601453850725
P 1.9597419987355837 7.923754321833917 13.463048843981335 0.5957693396649482 1.1064320793675397 0.740384379405583
P 5.676140775509992 1.8979984828459593 7.902120253881856 -1.0850991222177182 1.2536027956504925 -0.6951553323644545
P 0.4218489008711974 6.978597106910654 5.845125440322761 -0.7319048811796621 0.9310041680111063 0.3929573798686071
P 9.397447250367984 1.8483045342510702 9.110600243179569 -0.31594924064366875 -0.7623760531853258 -1.5114073096326293
P 3.8766514781969423 6.359899968507204 5.876086939032529 -0.5055498439560584 -2.918457398603406 -0.33678571777304583
P 7.898467991708038 8.493103387507416 1.9223116865518375 -0.14074372971068666 2.596896211089599 -3.1357588102651737
Ni 4.447402743322893 6.711655723149244 12.13032463520005 -0.39945095801275077 0.4984060338224256 -0.8923944260587083
Ni 1.4387594661753191 1.4752727399171623 12.674610787860427 0.13454145755471666 0.918794770429108 0.8425317369003104
Ni 7.129922471819245 0.7176251141728249 8.768926302600656 1.7895235385889245 -0.22325660080393808 1.2332126620299149
Ni 6.954189488441645 1.3620404601335103 12.956332288650314 -1.9112308204934505 -3.497406581387222 -1.7704066152538158
Ni 8.263310941239627 1.7159649499286762 10.984875380889314 -2.2471151094981496 -1.648478475587735 -0.9375275709519209
Ni 3.7791331802770993 4.266668581898215 12.38684300303157 0.7847598201971645 -0.5190764176875834 0.664402881672946
Ni 5.533761443108044 7.435256076588783 6.441867874499358 2.0836857652644887 -1.801519534608536 -0.6410734629183863
Ni 8.544601499397793 3.011812247910115 4.9676748281605825 0.06085904026890164 -0.9591695747017288 1.8620821266829417
Ni 2.0711233752419993 7.491802106507986 2.134953363916872 1.1396731008088565 -0.870901546292255 -1.7445009511316472
Ni 0.3026114682325123 4.268584921149899 7.822369692623846 0.1618465731275729 0.07940595003315357 -1.2788757112846685
Ni 5.894874542096113 5.334219113027814 7.522834649990013 -0.5001793236727644 -0.3937305105892058 -0.42501980762079056
Ni 1.7143851385455804 8.504246199156233 6.452116082897509 0.3988927715164356 0.49298846235127997 -1.9676094563934956
Ni 6.171322838145145 8.090494532723126 3.0183418233603656 -0.9310962135042802 -0.06183014593291932 0.52702755421386
Ni 7.303608243996266 6.3588436449196895 13.39959277516045 0.8848304976685214 -1.6550144769340398 0.5115662253534673
Ni 3.51943649368669 4.30458405509251 1.3753978121175656 -0.06366951313450325 -0.15286828088836255 1.1133421762238116
Ni 7.768661714396405 3.569065006307131 2.8157015672898513 0.3289803627960141 1.177387584640495 -1.4909248734085612
Ni 7.387796299121467 2.994630630619407 7.23347957538098 0.43058110375865194 -0.14923505501114942 0.3187185758586898
Ni 1.555272892677708 0.5709157898617057 1.195461034781515 -1.198426407588665 -0.5178751982906307 -0.46562961072235287
Ni 6.095005795946373 3.1236423282413153 13.887510509832268 -1.490186195470324 1.700208042751543 2.3555526708769627
Ni 6.578185031268539 6.187289215910396 10.717164657028325 -0.9323717377825943 -1.507137735722998 0.39308079282034886
Ni 9.043803200463307 4.991886138706249 9.92098365553098 0.2649804629052856 0.7253976761887636 1.365469437315513
Ni 3.9484066981770716 5.938389465103865 9.726703312595982 -0.49604447556878445 -1.4688717502632638 0.13038475507386577
Ni 3.9975210709982814 1.3713604124941394 13.264280527998858 0.5292957814227465 0.46940296172185614 -0.43375230239778206
Ni 4.862463129244954 8.20800819483493 9.772673954244794 -1.3090033839079842 0.3701514377176851 1.1593147862991842
P 2.528651708580649 4.110790742767332 10.728097138759274 -0.162806623047997 0.27701682524452936 -1.2252471273259349
P 4.381817200933551 6.9042431439453145 2.3762718896838146 -0.5362141058091346 -0.45892545922929995 -0.8904391021045504
P 5.763142577536448 2.6456044909114724 2.7396584213841244 -1.6449275250116833 0.46553782233949503 -1.8055618229987098
P 7.626366513961605 4.818097538569382 6.062213959551337 -0.5643586865641507 0.42660926359509754 0.6997817753928722
P 8.889645392660764 0.5075401138094274 12.645304819304187 0.40801401709141344 -1.4667377346393966 0.41637370191001843
P 5.735435116356001 9.065453160009163 5.13928441034834 1.7079432066122715 1.3566808924896054 0.0883922126921639
P 1.4114165768525107 3.5273729425875664 5.878892272737068 0.20814725596632538 -0.4682896740530193 -0.2186918642513911
P 5.974108159155985 4.984547961571751 12.4049715723525 -2.4962910012710107 -1.0590649029374857 -0.07818621869343954
