# total energy = -340871.0828002382 ev
CRYSTAL
PRIMVEC
9.21231837695032 0.00000000000000 0.00000000000000
0.00000000000000 9.21231837695032 0.00000000000000
0.00000000000000 0.00000000000000 13.48315914007946
PRIMCOORD
 96 1
Ni 2.858582426987628 3.461316788735999 10.864096405829637 -0.8455147307880341 0.10453565522124576 -0.450073922375941
Ni 3.5724173497075453 1.7181526720198341 4.330683284497592 -0.9238426172656605 -0.42947475806835067 0.20699205931595965
Ni 3.9078747151484974 7.361840073730658 5.573156048899021 -0.4975025481715496 -0.10293514350334529 1.5438926838548443
Ni 3.930380409215951 7.985652220180762 3.4129788323948875 1.0770014328112483 1.004891759329192 -0.5173092984848316
Ni 9.038850531380763 6.130254427318962 4.61599984286923 -0.552496387908926 0.46224449630020387 0.08042282133344214
Ni 9.010292344066352 8.905999686457822 12.444996587152716 -0.7741977284106021 0.30744223161392215 -1.5546488939300838
Ni 7.012158888543431 8.609630188363658 3.1946054287837753 1.1596307748777062 -0.18235446327293756 0.5299843228493388
Ni 2.232338228456555 2.7542989816975862 6.630019941625604 0.15001872725470938 1.356219893692787 -1.6575572979605515
Ni 7.666924425114961 1.4872735460605562 4.955424953883188 0.7473199301831517 0.3169092905640929 0.3541527482965836
Ni 3.5377421829167575 3.3496266393811878 2.6661868402822915 0.3603316234137859 -0.15343598046637447 -0.42634315441790444
Ni 0.17498798968942958 1.0934561429948324 10.14652220303523 0.19779368064614322 0.5233290223163503 0.11385538996027489
Ni 7.6006417935900625 2.5783713355223274 11.382847587309268 -0.3374230942467286 -0.26205891838311646 0.18862075589762353
Ni 7.214857532246327 9.083078872444146 10.75968214561706 -0.6255763957240515 0.2878000319029624 0.11322007036912113
Ni 5.540583133187312 3.8143144085790923 0.5527759585851293 -0.8138086579340049 -0.38004838511642286 -0.26324291138888856
Ni 8.41559112403997 0.8098300450658379 7.3729418387411725 0.9916035268607181 1.4469404974078113 -0.5430645530720647
Ni 8.409372809060219 8.482684439591859 5.82285041413925 -0.10331129589584143 -1.5439484767934442 -1.8091156017882395
Ni 6.140867018217737 5.213481340615448 5.9626436622751395 0.5649713804474851 2.489687894132196 -3.7905491085490204
Ni 4.946222768945006 0.6991458808899728 9.165284996476451 0.28149260162769585 -0.4780547238595832 0.03945872021625462
Ni 0.43890341098038754 7.167764160133015 2.074708089263194 0.5471055559106578 0.23958104899557447 2.319183388219309
Ni 7.086290415420549 3.863720072633023 7.270618774825488 0.3269383926653209 -2.590739961680215 1.5430097670292588
Ni 3.7983310360015112 0.7137658303312534 6.584177602363033 -1.7985995327482638 1.2566145858936228 0.13010938992529206
Ni 3.6693677894807255 6.469111138282178 8.307540761719974 -0.7660020799736873 1.0047596046267018 -1.8845476547753093
Ni 5.515479565306096 6.83307141712661 1.8213730157563006 -2.6256781683182973 -0.44152706124719443 0.47325807380188817
Ni 3.783066224266034 5.251694037705827 1.230017709804949 -1.3754419751471925 0.36963490309258273 -0.6778443518898326
P 3.992296401777291 6.9992892796149695 12.808178425084868 0.14615513053424506 -0.37089191542813543 0.7941726288706322
P 7.959507660310343 6.524329775302365 6.675660531113276 0.11105725838984744 -0.7440052639876219 0.5711715957209259
P 5.3568802902077435 7.725689804753228 9.410476380439492 0.41318270577654653 0.06710219296513605 -0.7224661043642654
P 7.1405693959549055 4.0059306331402995 9.48625230616681 0.02810884242107417 -0.6732737018000147 -0.5067117254746434
P 2.457487292315974 8.116126286933664 7.009760000809021 -0.2690911426395495 0.8061786521925729 0.40957364826904946
P 5.859826818088471 7.3006426420114225 4.536193527803185 0.47418341382963497 0.4712472140194465 0.3641656524478954
P 4.530424773965675 0.9560359881015856 2.3966988875376285 -0.0697709980465508 -0.0922835773267701 0.5711942214287453
P 5.767804968706648 4.558338098985889 2.5471848737431424 0.03579335554952545 0.035236711715107054 -0.17427220048543537
Ni 7.669052470685809 3.9995925580201988 1.3669357933405715 0.9039605336297528 -1.080087785046056 0.061035675056081984
Ni 5.283872666186226 8.427843507629701 7.099584712231331 2.1629541612785137 -1.0569771671705217 1.3265287943862574
Ni 6.340074193213485 7.404189101822382 12.499104218563186 -0.28544592984848904 -0.5695649133554385 -0.4955593084022497
Ni 4.178210201194105 4.69324329093177 6.960937476515413 -1.0397152947662804 -1.6041287458277664 -0.49710145607838907
Ni 7.440614609125989 4.234506679477448 3.911707039639722 -0.10353703875340232 -0.6953815894426476 0.9993253209850078
Ni 4.551189339838797 4.575721743973725 12.127360451827805 0.2015148382514723 0.688622416341943 0.34639135918360986
Ni 4.9964022677519715 8.896999251294538 0.32552095871923503 -0.7992402732015267 0.9051578963719636 0.4730166472150435
Ni 8.083155399063253 6.320921783075852 0.24637148196142128 0.18573237860623495 1.1606733572096075 -1.2964026644248383
Ni 0.8333610701810635 2.9879970771143514 1.2572023404327215 0.8274897549655232 -0.8069996054319715 -0.4340436083859557
Ni 1.5628974685328134 4.5417375010695755 4.577437998908136 0.5194615689411441 -0.5035050456118877 -0.4414967222298913
Ni 1.5944220224005277 2.1184371226644987 12.245189690223366 -1.7603924255509231 -0.43252382930731964 0.29118154678068564
Ni 0.7407146256057197 9.180185921631631 1.0915344533581273 0.43405723523271056 2.2941200174927783 -0.22678698255469973
Ni 0.9948843351676727 5.396834115492453 0.7123812188624289 1.2772206921797489 -0.7394405274350749 1.2789790696317522
Ni 1.5643714394909767 1.0762935936507205 8.17818322796788 0.1836101900569096 -1.284845812825174 -0.26256439726462527
Ni 9.249720501582976 4.618512963352899 6.627188074922232 -0.048186329897239595 0.19825545077391016 -1.1301129679242472
Ni 5.125024658488682 3.060101893923994 10.332522598245836 1.7040317873730073 -0.4886517826491391 -0.2047652268679699
Ni 2.4179388090447587 8.84017767085735 12.495383363125674 -0.15454772547331447 -0.16951077454105 0.2642361285400933
Ni 5.9497666834918865 6.019697393138239 8.018138540098677 1.5600708362766034 0.6885907917730594 1.2245138487043363
Ni 0.75808721581137 2.4141986077384203 3.7267854069241215 -0.16655709122936477 -0.386578730035773 -0.5449275744227324
Ni 1.4495306772130914 0.675970451268404 5.470266427396291 0.4354476878223339 0.1210123127200303 1.4596204068683247
Ni 3.496673667094937 2.3860365501190155 8.472439420200775 0.37709393047378925 0.4213564998365904 1.2877149068428533
Ni 1.8209252970777587 4.562529703898164 8.283297624385584 0.8807043913152895 0.5439281866239407 -0.3048533878408234
Ni 0.43583663015555935 7.7824653235979735 7.877319960915016 0.5624807528151474 0.21876822601528131 0.2257539133044951
Ni 9.336224172190175 3.104486844401681 8.394925129974675 -0.9971686796533213 -1.1253505135385975 1.010928195331259
P 5.837965986315213 1.0899646742876836 11.855458871639149 -0.15075046321441135 0.6095396539761632 -0.012885083492784262
P 6.916470536403178 8.136623695570622 1.1286370660706397 1.6819897199713032 0.6679954841202108 -1.5763245791313045
P 6.929275659102221 4.906010998742618 12.350102336866172 -1.3966556331103301 -0.06130178423327507 0.9307719973956422
P 3.648695346792487 3.8667785623712114 4.952041269302354 -1.6375649139990247 -1.1468860736175281 0.9927350693620001
P 5.931507868247641 1.5222803563169307 6.770217610543139 1.399334465494074 -1.8738050715468244 2.412590023406929
P 0.8134716745643497 4.279591766160262 10.352962890508163 -1.4150367067206793 -0.9041595370144364 0.688212325387718
P 2.5230513629987676 6.0389235018237795 3.148115463531461 -0.19408357878440766 1.142886979760464 -0.8351714398804971
P 0.28370993002724004 2.481660416029849 5.85743530020885 -1.5353010855310916 0.498824866527399 0.8696813007319087
Ni 6.607084032284736 1.7893823185730675 0.30254820010441374 0.8170145664658124 -0.9543112181681629 0.04902013865244461
Ni 4.423248660670237 8.554697133216616 11.260177275547992 0.9654842040658468 1.4241787782312634 0.06013938849405771
Ni 2.514741851722123 8.242187653130568 9.383793821169343 -0.5787424660896484 0.8896654571633194 -0.20166627622767203
Ni 6.101438295086874 5.685142834909162 10.49750232512934 0.5508915053156513 -0.12008363025817384 -0.4768373065127143
Ni 2.182822016580762 0.361781565521897 2.899242837100407 0.05472695922923478 1.0243336701038874 0.17638384751179945
Ni 8.643236726209778 5.685723210973939 8.840071729194731 -0.5051664924747107 -0.5521765426756619 -0.8887923105297467
Ni 1.8732789030480155 6.067665935507961 10.140886106583954 -3.392951401694924 0.9663961743571551 -1.3949862158277073
Ni 7.379048684667212 8.193390002096878 8.64607596276794 0.3064299882993239 -0.771704272564787 -0.7351084757186243
Ni 1.6854581537040783 7.906601315230775 4.294602317905457 0.495175956920902 -3.5638032636449015 0.88271267999457
Ni 3.9312279425168946 6.44458794646574 10.512886897005165 1.3170043998355898 -1.0111747641244264 1.8272295377801309
Ni 6.43524665551838 2.1437341492339734 3.037270083782047 -2.57523698094861 0.5009254578101695 -0.5604619226129057
Ni 4.503266859061519 5.617985033127854 4.142147659238946 0.26189462489111026 -0.44806589080697673 -1.8340337051861577
Ni 7.568352617287801 6.15180204026361 2.3877196407068686 0.5718717071117442 -0.18529889061324217 2.468875585372535
Ni 8.29387797216965 1.3231837291430455 2.1413140731670395 0.9543618689004404 -0.5730521005730905 -0.34055546922812313
Ni 2.942626408558392 1.1904434320419666 0.8996897632984046 -0.7973996204483621 -0.8249520761453341 2.1534426222436527
Ni 2.3419371815144725 5.559809241872853 12.26212469530081 0.027652728720262053 0.21770301797556058 1.344673326505768
Ni 1.9600957924838243 6.023391532852136 6.35922383965557 -0.03336494861369092 1.0627310389351632 0.12052997376697308
Ni 8.903807154657555 4.307440604951057 12.718205395334893 0.8890841307385526 -2.178319073770358 -1.5547059724202643
Ni 5.480325357953905 0.33722336689520144 4.791887876074989 0.11133673730347923 -0.4424207767060574 0.27797841782685034
Ni 3.8803390951863124 1.8857431699629823 12.587701849162828 4.037352900545279 -1.2979273285994808 -4.128665372208031
Ni 2.938794084067168 7.6152801676683195 1.404014454025014 -0.7401871757931123 -0.3084321063310172 -1.6375643997783926
Ni 5.425060659341277 2.8027465646287104 5.312850013991865 1.3835856873002494 1.640585960213536 -0.667623959713405
Ni 8.39947877900355 6.089296459319004 11.110312199608602 1.3432399364933512 1.369197022678745 0.6973978485417279
Ni 7.262503643468952 1.7980511102707644 8.934238206320682 -1.6462824963776808 0.8596393431148744 0.8451442348224928
P 8.83923801437152 1.8053933281061147 13.247298325549737 -0.5093807876663744 0.16324036815130596 0.7068386822396536
P 0.10557685480582989 8.204592181378919 10.177007607377439 -0.340829034604484 -1.4373014316561505 -0.43863842684548976
P 0.09949672460340694 4.519277868594565 2.757130848400957 0.42648199398861386 0.4511859244931971 0.3440097463253108
P 3.7631768286493203 4.439324156432704 9.189528133810839 1.3048939897253011 0.3002853088541667 -0.23715521316290128
P 2.8221753443209985 0.8255204659154844 10.549925023488258 -0.40004976793901426 1.8000851161548546 -0.3454426221170954
P 0.976837403248663 7.4373995099734955 13.401748372400862 0.37615522070960383 -1.9776874094547874 -0.1518650364348288
P 0.16833945943626497 9.234151683337378 3.840718755830887 -2.213851976569645 0.8513200246159016 -1.4772772007181396
P 3.0272323415569558 3.237383750917065 0.2620683514340098 -1.308598692270398 3.7898824214992985 1.8680913089914988
