# total energy = -381173.61639899114 ev
CRYSTAL
PRIMVEC
9.22967465834542 0.00000000000000 0.00000000000000

0.00000000000000 9.22967465834542 0.00000000000000

0.00000000000000 0.00000000000000 13.50856181229766

PRIMCOORD
 96 1
Ni 3.16398777696965 8.279230257523633 13.395643060796937 0.28548835305065023 0.37278424735484184 -0.8661943706245728
Ni 6.330522944085458 6.78324770516939 7.52915861272715 1.1575877763057483 0.22546337864726976 0.16593205605085617
Ni 4.840964245143263 0.9242134503096676 6.340121805505761 -1.2244169181151559 -0.22847722577292906 -0.8889350067551981
Ni 2.731743663473846 1.7927627340560195 13.328492564389807 0.17566008197189747 0.4970844867975246 -0.967593794209682
Ni 0.6090929825230025 7.308960731745395 2.128206021997844 0.1419446919973233 0.46246766805460354 0.60947743327966
Ni 8.990256687558146 7.20937254450975 7.746092880826 0.6470713323730339 1.0601195694542451 0.31832982506070334
Ni 1.5633960944829879 3.0749583372963385 11.33114394367169 0.34243648830091994 0.7517275723325441 -0.2614986750042722
Ni 4.813026020605515 2.713524286124155 8.151457413442623 -0.38705489834124307 -0.6701989195294329 -0.5420163143132084
Ni 0.23825666199614343 1.7004936786533558 0.8269576018056675 -1.9500562780010802 1.8804076644650067 -0.22931000608686958
Ni 2.0629060753164548 6.508129569384393 4.162838835594284 1.678814407567115 0.6220766101009093 -0.9564845716703979
Ni 7.7919772843499375 6.649805072078291 12.75587802416629 0.1727105124252703 0.24299830220723956 -0.5998951889078635
Ni 7.744066044318405 8.612587639041429 6.2537209771137015 -0.39493121576552626 -0.5292240476445467 -0.436061667257249
Ni 0.31775553984002713 1.436608056665003 9.864262554834962 0.13544571453654092 -0.7457122193763996 -0.05984268318924532
Ni 7.062768395663506 1.6843509780532497 6.345038453081334 0.8167991080208966 0.2414553832001519 1.065319625597946
Ni 4.500380028536911 3.5853316449487447 12.358361483728208 -0.06921975352877112 -0.5881377912616194 -0.5892706193144819
Ni 7.551701169585753 0.15571568345597905 13.231919711794559 -1.827644770940678 1.2692232757965691 0.4001816655311882
Ni 5.547865010701933 1.2569155249420398 10.238827663836632 0.8170932422225476 -0.12423081965732798 -0.49002115219283987
Ni 6.9246832363277795 3.9859272047808765 2.9678313519759785 -1.584351820311155 0.9214373502582777 0.9369776119857217
Ni 3.4293593765432613 1.6517794569453175 10.985027460204444 -1.0376033906296 -0.3897095623552708 -0.10090577177814235
Ni 8.073897690199129 6.09790745910863 5.870848238146248 -1.9010718776825777 0.20762403647300373 0.6459948114794036
Ni 8.122556533860513 3.537614228080507 5.02309064201674 0.2604272963169644 0.5004582883657639 0.517431940105625
Ni 4.6040292725273 3.393400564914895 3.0378864269301946 -0.16831752556389723 -0.492842423691719 1.2280748265827173
Ni 5.287717406862833 6.819104990378888 9.65733786866911 1.4068595702265254 0.28382253531245316 0.7279669795778366
Ni 4.485289510823262 5.8537364217296695 3.1318925070629557 -1.5847778521049805 -0.7191707214424453 1.282649576504804
P 6.202747331102114 2.1879404749903455 4.446464885280468 0.3524457929078059 -0.2242768145383363 -1.2881311684446655
Ni 2.8416783157596446 4.353139032154127 4.366305162746495 -0.10932716307261815 -0.816964172843851 0.395330508086474
P 1.3781565284200226 0.5440837705865553 11.572798048830155 1.4995545240591013 -0.4838800722921086 0.22810133049074907
Ni 6.287660335974027 3.852761461923056 9.390827327269282 -0.3537352011431908 1.5099888320185477 1.5069274194844047
P 6.198880097510666 5.268270482812277 4.8065892456492465 0.7529958975220065 -0.6614587114429576 0.8219549411902232
P 7.930523927407793 3.4189852224697797 13.403288923105187 0.13478391258282596 0.04209564361846944 0.6528966808055594
P 6.237838553332876 8.714944728609854 11.546173206965587 0.45040122380837266 1.637302661476574 -2.09540948145932
Ni 7.1453924412736525 2.1207761340715514 1.712223671902455 0.9482680972978765 -0.6001134755662568 -0.8834495581605946
Ni 1.7862558135739874 0.37975310900585424 1.3806023921473112 2.3148654775702457 -2.337011674649982 0.9035882378919987
Ni 8.532806333159602 0.47419944460952723 8.099814616033948 -0.1154463885964786 -0.1293128621659257 0.016979822387448176
Ni 0.7937169293006464 7.80317287944881 5.544021774264036 -1.5403515034708053 -0.3600827406277734 0.8470566213538573
Ni 6.706604488598046 6.4570802400423775 3.153938507436548 0.3041746166062439 0.004336936812457047 -0.8481079454365071
Ni 3.097515661634051 6.7024603647733185 9.863721695912625 -1.9824884303878567 -0.192772573282468 -1.540738968717211
Ni 4.535443561744346 5.13362799204364 8.128668424276402 -0.46471506932788353 0.41383730864140983 -0.2705772402667727
Ni 8.686425034582223 4.6985411388195155 11.51966927383622 0.0898554275012517 0.32073612050935085 1.3748583347295804
Ni 9.023732716761451 3.639251403042409 2.3717789764729242 1.980641349876789 -1.4049559254459094 1.3526064653099157
Ni 1.8299490923852517 4.910472923370478 2.0876268353435123 0.7202251308488887 1.0541458683693135 0.2199966991057437
Ni 5.997497830847594 0.1113938638151736 8.168127128453401 0.5941338609440542 -0.3329156932946783 0.08876939352592453
Ni 0.3690125368570015 0.9114608091323284 5.911913828643705 0.44819007508966685 0.015052523457748268 0.29893367992227876
Ni 5.169919071951941 1.0822070174180802 12.642649301071927 -0.17568450745192968 -0.10325627428818993 -0.7856329668307372
Ni 8.444561415813912 8.819240049811224 11.172268942654009 -1.4873590104341738 0.1414088740985113 -1.0777434531835954
Ni 0.4141114950858739 6.910571064105045 11.437658078609061 1.6574027746605586 -1.2894691705297987 -0.28676619132180936
Ni 7.710802297627278 6.325178962583192 9.62379630877726 -0.019217967689347547 -0.1542037118703344 1.0505992886686357
Ni 8.180712712523329 7.8474660870988435 4.052893107699155 0.7269465087331222 2.138639238682233 -0.04092784856261338
Ni 5.709135112237468 7.821521472240697 5.396359904726667 1.6110450133316252 -0.17616221841929663 0.38040062624951904
Ni 3.2804939574585794 7.768127805590262 2.1916692634651556 -0.31626651477377143 -0.7846729169103132 -0.5522017394866425
Ni 3.5322887059271273 0.7273149594908112 8.625473187530742 0.43357618183123386 -0.3656059844388478 -0.14605691439348395
Ni 2.9075966506286877 3.7281516272735242 6.994300824713416 0.03627003807562786 -0.026211882508677436 -0.48829954151604293
Ni 4.350840843217919 8.710292972690784 3.9834453453232617 0.19343411812586683 1.5695576927211163 -1.9025345782710332
Ni 6.177974884898179 5.239852315203514 11.502445778358886 -0.1855338894421837 0.3040383481386957 -0.0067748568299883325
Ni 5.035627308812122 2.548913042440399 0.9564748543563287 -1.3957264364278414 -0.004592761577004993 -0.30992000373045336
Ni 6.721611939241712 4.417626767484567 7.172316324590159 0.7790532567306906 -0.31017042917836257 -0.6707223961330707
P 8.806383113312684 5.191138093495476 8.151363270763309 -1.3550754956756987 -1.5667968421465275 -1.301824606771358
Ni 0.6807854017233359 2.965808207338161 7.441582846778547 -2.2524187810992498 0.28708012301780234 -1.1471064171584502
P 7.2196636315132485 2.084641958628776 8.710550480607733 -0.6327965676215748 -0.7677486303511487 -0.20331049669931436
Ni 1.5971582435940155 6.481511188291937 0.2593510829347038 0.42871551130482294 -0.7954813203797267 -1.1995075564679858
P 3.7978172099662624 1.2447138953289238 2.6083549147530705 0.5491562677920994 -1.351915609890478 0.06707931014700061
P 1.0233032351254123 3.2167630554324322 4.440615117618749 -0.45666597377116186 -0.18120389460826214 -0.5945943455202406
P 8.932340480430835 9.29640498881916 2.1692725354627447 -0.8491723821452795 -0.48636632904907195 0.11447374027056414
Ni 8.542571328719873 5.292867565201804 1.0195366049853876 -0.5873037253960981 1.1313116162180388 -0.4944989854585354
Ni 1.0229617371710362 3.956742974193378 13.388929395607391 0.35797546447678347 0.06178875117202262 0.8848891188205987
Ni 7.448633395085249 7.754689399601837 1.30536577796102 -0.14885761706707268 -0.09154387094726814 0.9860070066095471
Ni 3.096823436050856 1.759785107272613 4.764752977335833 -0.34090308237552897 0.8341183160256344 0.41611196360819946
Ni 3.6348396186588463 5.9413906399110346 12.0545676724175 0.1040692571077885 -0.18603319767610543 0.9871352066767193
Ni 6.7482303203341685 0.2507167224936523 3.194018368703535 -0.5429413972306392 0.387308666223262 0.7955404557524363
Ni 8.872827539624955 1.4652846551581586 3.7964733693674204 -0.03709484796976837 0.6076550353589405 -0.4842186865784499
Ni 2.050436785144503 2.6054263390524337 9.09269407529422 1.9685887895876288 -0.3510537976562857 -0.15455003946615964
Ni 1.913477646090774 9.237611962619804 3.7020621065266295 -0.9469493784864529 -0.5242453634830325 0.034778284021449786
Ni 4.231085817325195 7.710451569998459 7.4501609062054985 0.7405669277300343 -0.024388199036377352 1.4433414672026432
Ni 8.945861953489242 1.8718887330524223 12.053000473697148 -0.48581559875192465 0.45996907000246595 0.5275114358288141
Ni 2.0099277440159353 8.430310798474538 7.76307271289805 -0.8620081004573671 -0.11107757010482161 -0.7649911222106696
Ni 4.37012163312851 5.962877322013405 5.685348395264002 -1.18647514876406 -0.33108223963036526 0.13289518020054533
Ni 5.884969640043425 4.76939734951535 0.6799962645584937 0.22780282541372382 0.5590434449988243 -0.13931831011806975
Ni 5.6116236017514085 7.39547969997032 12.939783902272298 -1.4727764846343088 -1.00344808490413 0.9086630813117447
Ni 1.6088983894850017 5.064682323957424 8.89302391324025 -0.19101599560267749 -0.06678414750408498 -2.076951531864449
Ni 3.9626130471388707 8.355107411116242 11.045383070286933 0.8133551153363541 1.3534765266196946 0.624203169525609
Ni 0.4341426575286469 8.573176929171531 13.246967773005773 1.0436598812363254 -0.3560558788565675 -0.0004214038081347581
Ni 3.5293721288032662 4.079193065023341 10.165206242677794 1.1331581825084742 0.3441449863515944 0.010396255632659515
Ni 2.326062553023842 2.586357831654024 2.071038341467829 -0.8731345493878319 1.1858627119910414 0.28235957761368147
Ni 9.118650688729142 5.865513486318426 3.9204011310756433 0.2998816456578448 -2.4305466078853497 -2.1526409522779635
Ni 0.9077366354947396 5.014140626709752 5.9641242510306 0.971252988228824 -0.10635908158322974 0.6562239454065795
Ni 8.688234050772973 3.4873401913916693 9.625188143683204 0.14364007742187518 0.7147587084176786 -0.8213044520904178
Ni 0.9000538544887201 8.397637750947737 9.608748247566046 0.08495747597900208 -0.19253217513688778 1.3937590282888255
Ni 2.959965823415996 8.333879159898261 5.650091038893273 0.7370154629333501 0.4799367713736444 -0.4321936996614105
P 2.220770426982671 1.4307841320917227 6.877992159257558 1.2747488336004886 0.08275249790788329 0.646657641874383
Ni 6.891677920521044 2.866829178615727 11.480886181828419 -0.349784701135875 0.058581299978318464 0.7467242055806818
P 5.209551294008461 6.760016614597367 1.4273959186038447 0.44436118826187987 1.425879305862138 0.19306902147696428
Ni 4.937063615439606 3.5638541925208163 5.690292731862902 0.3932443149814066 -0.5657614804489481 -0.2791670388183128
P 1.8101514407058763 5.251463245652304 10.9693573189358 -0.334560685097269 0.1562068583432923 1.730448072583007
P 2.5295676448087114 6.418306377709018 6.854366038619393 -0.72742216281796 -0.4316236860905534 0.1816551232130678
P 3.421283411405987 4.41582698096826 0.5344498364033704 -0.5973004315974939 -0.4011676835935414 0.25741036386751154
Ni 5.260739068467116 0.2438295394245848 1.3056186710407471 -0.2769805726899553 -1.2511556196615805 0.369955262546479
