# total energy = -340886.8393708377 ev
CRYSTAL
PRIMVEC
9.10390656400631 0.00000000000000 0.00000000000000
0.00000000000000 9.10390656400631 0.00000000000000
0.00000000000000 0.00000000000000 13.32448749340453
PRIMCOORD
 96 1
Ni 6.714750096869133 1.8872307100238546 11.435407829416706 0.4525596649122722 0.49223178669091355 -0.30954873643396363
Ni 4.73194657658652 1.0507637823638476 5.8235868990591335 -0.026203912088877453 -0.9601111126793916 -0.7960770449821967
Ni 2.6280064766408233 1.7034592537575843 4.5348697609953135 0.5699492932780507 -0.409492658519469 0.377577297868111
Ni 3.368236008868811 4.538725265390873 4.770579914137869 0.15298012387587848 -0.3716485910885019 -0.31877205480444454
Ni 3.631266074976265 3.112680249983917 2.500233149151618 -0.45862335460784887 -1.13648107623412 0.4075566178390207
Ni 5.348126279076857 4.653179577695418 2.3541436722092217 0.11727187184099158 0.07382279951842126 0.6567551353197012
Ni 5.444791558113579 4.758539087423426 11.259764340858476 -1.911436251636037 -0.8807897519402444 1.0723302525878242
Ni 5.8020743680397535 8.122168519611828 12.359181220248887 -0.5195345882709246 -0.18992456231071164 1.1264447750440405
Ni 2.3316196971795784 6.785441930709794 0.12974523363342788 -0.6421458700469586 -0.4494126346428583 -1.0264933967593677
Ni 2.7360789505007705 1.601641163651473 0.3257213869308365 0.7063002932376804 0.5574568172379947 0.3255821357477425
Ni 8.169654495827267 8.84879681555418 6.945122629640693 -1.2202602156343048 -0.39494921348765527 0.2284826250895678
Ni 9.091798287398987 2.682302174905563 1.2681450405841361 -2.5813469505010898 -0.27408936718508925 0.07693537700547395
Ni 7.132582988813883 0.9882199448254907 4.9676621920729644 -0.9919552537731818 -0.4451060368477044 -0.4555706838244541
Ni 0.6850707836286575 7.530432806028402 1.8683200754773226 0.4718668498813164 0.56025443458779 0.6380611584546236
Ni 7.704262796415212 4.043864220693278 3.7663125133547566 0.36966807032336335 -0.24875165975124905 -0.3493645828793209
Ni 7.863389977831943 3.955720198124665 12.270613866028814 1.2824310327360946 0.03264092596347282 0.4334509691072793
Ni 8.306704704022671 7.371141754294976 9.120598495558026 -0.26515761191309817 0.14648577440078642 -0.26818277189266715
Ni 7.5147194634387064 0.7675995166785431 0.3254919684874643 -0.42342340966794817 0.2604612348786934 0.7163283668976437
Ni 1.913395337256058 6.64167303952992 9.110764455775065 0.19351510787544737 -0.5109134222608169 -0.6004508043010175
Ni 0.07398289603427345 5.385543334722075 1.1573067999346474 0.20140170971237573 -2.029971306460168 -1.440087993262352
Ni 6.6739919075446466 2.084858311957283 7.095769522168489 -0.871157628167119 0.43954088405510106 0.0559258646333424
Ni 3.728486692308451 4.011827573779526 0.029747014433272444 -0.3446314390697097 0.32925778482711676 0.14042568424963559
Ni 5.893778018043228 5.857826691341777 5.025983637784496 -0.8439653840230432 1.379311485404928 -1.6488410011334766
Ni 5.273829298268919 2.694692591628955 9.523437253525241 0.17636790667219948 1.3225006470634708 0.027750687750707048
P 0.4687856357489247 5.846273834014823 12.326363458158893 0.1692570066590311 -1.491570220302044 -0.07772470567598871
P 4.286874796444569 6.046678127425573 12.613932193800684 -0.4686833099470122 0.970642865448651 0.045054469136477246
P 2.4799678533204124 8.706502757224555 1.323565071299529 1.5037317953652425 -0.555441843690495 0.08919568243006575
P 6.106936884436691 8.252190512002338 5.6894626864073725 1.611193880204664 -0.8091367063796323 1.8827085446840415
P 4.885602310206955 1.375782347714195 12.541553406088717 -0.631487619002164 0.15808350654071485 0.6785935713510313
P 4.279109164214551 6.4071199929013565 7.814331756966886 0.09184906089251278 0.40090980194646436 0.644517969823561
P 4.646998025193446 1.0858502379494122 3.3952928189363503 -0.5113962754345063 1.637049150704871 1.2825043091761912
P 0.3192931185631751 5.761880620917213 3.2546929976032164 0.584220201374768 0.29498060881180166 2.1458301000037174
Ni 0.43935543726126136 -0.0204145998975272 4.975856618298333 -1.081867759764614 -0.3439254141416206 -2.629846440763374
Ni 2.0987599771568566 6.5316068101501905 4.49858705209788 -2.2549073518490585 -0.39761673301748945 0.17806380631738364
Ni 5.962257602608515 5.862733696936125 9.22520875378248 0.10292485909070015 0.04885867337391585 -0.5598525711636809
Ni 8.891730838528108 2.5836431403490603 10.133205985070235 -0.5233475342591116 -0.4481013720306024 -0.25187555009221135
Ni 2.568212018860339 5.398416258489068 7.002870529243794 -0.47880985685805283 0.0035599494371164496 -0.7945107289363413
Ni 0.762088011693722 0.0365330663257166 9.128152917157637 -0.7923170637191322 0.21375046108571572 -0.8356946593738188
Ni 1.5517426522180326 1.0592850388319557 11.248652112605301 0.2931042177246952 0.4524311097542079 -1.6074081879099864
Ni 4.375000611200217 7.245435013577416 1.2952282519804765 0.8620826624490444 -0.055178444944356586 0.37959792784256563
Ni 5.749681386229965 8.152211411005798 8.236957855674948 -1.0460072984225792 0.9949487891838672 -0.7133741693653263
Ni 5.459985978033741 3.491648565152649 4.890193410246342 -0.10494548906515476 -1.8833466924886724 -0.23750411186188772
Ni 1.0788129182380366 7.415650753090468 6.972091131815347 -0.7572734418514377 -0.18399225598667668 -0.8211442723634698
Ni 5.2802020328070345 4.486332283581085 7.332545742760207 1.321725459460343 0.665776364981705 -0.5241345489367811
Ni 0.8473542894230521 7.501600734196673 11.11232930653789 0.3058129235406153 0.24246068453621467 -0.013338883200751222
Ni 4.827628633723075 0.5744737965009685 10.585052892416849 -0.31658507445545475 -1.3734087467672476 -1.568091906808867
Ni 8.203794145138597 7.053342586785665 4.765769409952241 0.009371928133203214 -0.46722189491013727 0.7878443726597593
Ni 7.019740067956833 6.482673312803951 7.085869023868204 0.8252361830446562 -0.5542192841373036 -0.6734819611560788
Ni 2.3668245035494224 5.607969977915254 2.187641416150595 0.6910767914197066 -1.3351232209234878 0.4745863056950085
Ni 2.558052059225287 5.246517578819856 11.367626514478665 -0.6055482734285829 -0.4093890430620692 0.029097431586588597
Ni 1.152135781052291 3.5015809271256257 3.723527794447149 -0.3132400692426218 -0.04459218478807804 -0.8421483854189626
Ni 1.2062220894679212 0.9687011693258927 2.494144456495773 0.28647025734794535 0.09398616184017362 0.2672170655452882
Ni 1.1726650901715043 3.1096759608445197 8.066924194291555 -1.0186373910500586 0.2098048461744064 -1.4797207771626257
Ni 3.719228019415218 2.9487097903182184 7.057967371279039 -1.7954812988342561 0.13617050851770743 -1.1165010335677674
Ni 3.9440034704810167 7.343347527802312 5.571980414806574 2.1575111358860712 -0.36872601812506817 1.3095697979344154
Ni 1.077674929927659 -0.07126173838649837 13.129789578020068 -2.714139800795816 -0.5657000310833935 1.066217454821867
P -0.034093219388266864 5.732019807652904 7.912493718229416 1.4412226210874277 1.660890990319475 -0.41411421645188035
P 8.58303557750182 1.6702026833751074 7.951015077731024 0.38709166511644943 -0.1465204842934638 0.4435266081757264
P 1.774360477447355 3.4561251220558993 9.933391624799585 2.404227767485162 -0.07961960870585642 3.4374430563493967
P 4.297480847497289 6.268276315128796 3.4116416141985604 -1.107438923365499 -0.2977093205968744 0.4853039492228287
P 7.00572005197298 3.893658867629908 10.190328446297952 0.625639130641187 -0.02818391863338372 -0.037721940030806
P 6.433457594356737 7.867723437317862 10.322933216957695 0.11775549634562946 -0.23512892676149183 -0.3014147944729196
P 2.4191719658267954 8.765250265759493 5.596871405521802 0.22254131990446835 -0.0450783803958772 -0.835868980168154
P 7.319349630313067 4.204238637298183 1.4705439999053165 0.28035334581693006 -1.4224150014626211 0.945639658536094
Ni 5.9704693262562 3.0574377454449433 0.16175638960902775 -0.5130379248029874 -0.8264098916377832 0.5881305921727678
Ni 1.2461791350219023 0.9756565538789211 6.768959308022283 1.2439817276209608 1.5944277164899185 2.0959704961691132
Ni 7.249149407422489 0.7025020333716985 9.303316629844211 -0.6956728954308212 -0.13413753724807867 0.1506368204546825
Ni 2.8288841731886905 1.4205644637041772 9.02871276742489 0.28202250598923684 0.8593292680736233 0.5281346712351098
Ni 6.611566420790568 1.8485482113774967 2.3934780105597637 0.9797070325334483 1.3184149070298712 1.390555176639547
Ni 4.0422619331522665 6.888170411464207 10.348889364731438 0.8514015285861143 0.6699050424380979 0.4657861909048752
Ni 8.186605969698652 7.3604992876163235 -0.011379883103776758 0.6846264078086726 -0.6031576617092193 -0.8502938973442323
Ni 7.846584166464286 4.087881608538687 8.214066993214038 -0.7024991743240353 -0.9651610163984733 -1.0557142412976979
Ni 3.230621358471459 8.872202959122028 12.285550645395507 1.7069571885499182 -1.378686193116103 -0.41996476169538643
Ni 0.3145408793790379 5.037191457055744 10.083799084586877 0.666622257921768 -0.2729279998871364 -0.46152201631188255
Ni 8.772679053449638 2.584098335673211 5.901748488169114 -0.0325823048113955 1.0783836578707557 -0.7874124273286632
Ni 3.3943551165685992 2.5646705992384433 11.213421815297304 0.724380547778159 0.890698269303208 0.2503699120809623
Ni 1.229154829898652 3.2619023811471206 12.427323049883654 -0.08065293506637723 0.8638770353453058 -0.597634417898145
Ni 3.0844126203541355 8.594023992626827 7.718582330922357 1.3190944495953993 -0.8900254116058993 0.0352739927109457
Ni 5.631103004288612 8.090395885986082 3.654987213708426 -0.10472848795834222 0.21508717761926827 -1.4655396005662373
Ni 3.0639197268608545 8.316873767564205 3.432214622068892 0.7366696495581572 1.2924706763602836 -1.0185232340696972
Ni 3.4105236544824455 4.543586751452806 9.047766333303207 0.9453509236510815 -0.12330727940179408 0.8774915408049467
Ni 7.580695473721163 5.96127438070835 10.939630931726919 -0.7348189695026635 1.6257314116992063 2.2310878808319576
Ni 8.034270302518255 8.575005931983794 2.9683623932431167 0.054291928574345207 2.119424870537311 0.20221135009786467
Ni 4.984589085396846 0.6086107146403538 1.3323794735563903 -0.4275492589108637 -1.0328267951765633 -1.3343567750711085
Ni 6.258780940667005 5.456890649829513 0.2050372714199598 -0.5740671721011661 2.2270281089402872 -1.1004938595062337
Ni 8.125500549384613 8.924286408111394 11.5392460763714 -0.38076212335399584 -1.283641250994112 -1.7677408954961942
Ni 0.5297927338729478 4.9991553357696805 5.59484578632933 -1.6441770199989036 1.3599526212623418 0.26785675601181613
Ni 7.361819354056363 6.359415522930323 2.484191155537886 -0.6413380294336826 -1.2973100067304562 0.16481465461696132
P 8.571346161577619 1.701592952928565 3.581542358547299 0.4995524887220429 0.6981015594769718 -0.47562297448963897
P 1.8712806658656012 3.3863527827700235 1.210388037074552 2.1184079992370224 1.8395921731105414 1.1117468067122338
P 4.78338364821559 1.4111055048683179 7.97350627869733 0.28485791855550296 -2.380706544434771 0.5522097099064425
P 8.846948722538128 1.6482531648445424 12.161459848078684 -0.6128355511186155 1.4951185997749348 1.6490119794937022
P 6.759095225347929 8.030555908673183 1.308580951619124 -2.2485929795952564 0.7716916741592967 0.11654399253603154
P 1.7970747241224934 3.4290227924559447 6.070689680774541 1.5521292128320237 -1.2179865891087798 -2.2311336464682285
P 7.124198290943021 4.438445735480393 5.9293433391098 0.7435838601794872 -1.2950065554082602 1.0152964996022837
P 2.590407342865945 8.497395129216036 10.058575801285016 0.6329199805733164 0.8467745713370642 0.5655676192705872
