# total energy = -340859.2573409846 ev
CRYSTAL
PRIMVEC
9.37741504318814 0.00000000000000 0.00000000000000

0.00000000000000 9.37741504318814 0.00000000000000

0.00000000000000 0.00000000000000 13.72479479934458

PRIMCOORD
 96 1
Ni 6.644676780826969 3.386690900152534 7.06922986292908 -0.6360215023167757 0.4019292443499143 0.019595662743740444
Ni 5.633950870851887 6.848523025884523 12.767874581422312 -0.39914319696434486 -0.783486867022012 -0.6156547657349655
Ni 1.8574127011355623 7.52200896387484 9.423086659742484 0.18347135048620014 0.4024537493948166 -0.1013480015218835
Ni 0.682865228371519 1.6640222736895263 4.973097248470966 0.7023611060842743 0.6418401658810817 -0.3379992784651727
Ni 4.674331872072116 8.919806428603838 13.545562353761675 -0.48935780757722813 0.13843822150596158 1.8724015063310784
Ni 0.8039839191969567 4.108170447591952 12.03528654829446 0.25971587207223656 -0.5164690619717235 2.2853929220324254
Ni 5.00192248412661 5.574610589375937 7.625852580974773 0.48007226851024415 0.1951361884186381 -0.14400928783583586
Ni 6.944725925325384 4.309634829265358 2.5213271117392644 -1.3510740878257892 -2.368656555248772 2.3111525474950327
Ni 0.08362309735489631 0.23003736486828838 9.592176454221267 0.43218315813844926 0.7218536675912471 -0.5708080417339201
Ni 3.360978028501609 3.7935581777565983 5.750524328676157 -0.5586197271978444 0.3117909955009211 0.43207877135010103
Ni 5.697839198553475 3.9307872673771818 9.612064075737417 1.3606938703037406 1.8682352907685311 -1.08653019823729
Ni 4.366883947219004 7.702195991144179 2.1346306535812762 0.23537138178960107 1.8621877990228706 0.7362616154864611
Ni 0.12577832828836433 1.6348303811113607 12.051632320203552 3.0040933887066714 -0.12391046020343176 -0.18344641078553567
Ni 7.527729186962755 7.73389165350017 5.335006385828483 1.199673906842521 0.33136017588210026 -0.41564993637011644
Ni 3.6749807663685785 0.6428058496678037 6.64134592305512 -0.3595453800670646 0.326172975254206 0.6253879338623294
Ni 8.59952082275506 5.6317940654252965 4.409159209063169 0.5673285678257519 0.2553642799717602 -0.26877798227450483
Ni 1.634164584653587 4.593704858777202 1.6028365169616063 -0.20485701525082783 -3.124548029151019 -1.0229676429942962
Ni 5.104455138623772 1.2400037042366139 9.530470250966495 -0.5522745017061068 -1.3566873202475087 -2.705900443605159
Ni 4.8342449283315 4.528400541425983 12.401669650299919 -1.8868950719615634 -0.45579642668201503 -0.48035406141672105
Ni 2.6527112586537855 3.2650939611672873 3.3604472668183694 -0.7545218472482297 -1.0365687787174986 -0.08701461561834692
Ni 5.242631347149075 8.240759683578876 6.3606873970832485 0.7167222599019528 0.16842139813161314 -1.8844499528551804
Ni 6.21626020378679 9.14292326127724 11.884107616271281 -0.6759931576137068 1.205786704608478 -1.1847463389984112
Ni 7.252295756572174 4.553269445736069 11.411014221431502 0.4701943472748999 1.0146758352991492 -0.10121507548844504
Ni 4.374254595329007 8.10539669952304 8.34317887135577 -1.6524618857155153 -0.5940022204621963 2.318243650013859
P 7.034102066720339 6.7482878380374265 10.834462621244109 1.4337270840413308 -2.9055805426407377 2.844874483009933
P 1.3503477453439943 2.0510094317093595 1.7527523111979944 1.106138459386521 1.2809595903968907 1.1978954747858597
P 3.703338069020803 3.148166974801355 10.1883127854236 0.18407864505289587 -0.5482047025121075 0.8576475094958261
P 8.570591497794044 4.494716867111569 13.389100186184839 0.05681315233430215 0.17452571125713814 -0.7028632425316733
P 1.3300175098446487 8.52503601621848 11.622952237804732 -0.4786651037500724 0.08862798285205381 -0.7459320486966895
P 3.1652151150863226 5.911569238913755 8.573370963569877 -0.3980967579777015 0.14958266815855528 0.7750528773220458
P 6.6983718585341885 1.7375412064915883 0.33738438417419697 -0.6897850691914766 1.228410355545265 0.9201230023222282
P 7.172297030075439 3.826969907038964 4.890432522918667 2.2165012412670344 -1.0428114171931007 -0.8639893925534541
Ni 4.244921289052726 3.175389610250894 8.077768959749896 -1.0976659031391354 -1.1456874253237366 -1.691418983705003
Ni 2.2453376006452177 6.647883856722161 2.073624005477912 -0.2683488651568862 2.659556309122981 -0.2652216323818142
Ni 3.3425232759819075 1.278882466404643 4.299140564252758 -0.9969766182471732 -0.2092836835636138 0.10945289001720504
Ni 1.34340845831931 7.218593327427963 4.358198585540271 0.75764985135425 -3.2839942203672154 -2.264003657723372
Ni 0.7020786137564864 0.4119460855129412 0.3658617177371181 2.2188954525308238 -1.5291967724055664 0.08670891145247002
Ni 5.307579322734163 4.733906588920523 4.760198047070668 -0.9017869230172019 0.7962336251647191 -1.687391864823481
Ni 5.201342589352204 2.5281604339755983 5.106254664542741 0.8704724291746364 -1.2680354261360547 -0.4439189585181386
Ni 7.898033923878651 5.7220985708951755 1.3260508633427006 -0.5277240660602525 0.7807704965321134 -1.4687709630193413
Ni 1.9045435884140272 2.1881447471809605 7.0972833373386015 -0.6441711280071034 -1.2187496925270493 -1.2795873926397123
Ni 6.51665631263644 3.9186153828392896 -0.0382298450570722 0.5125715266895302 -0.8675115467740995 1.244550198529921
Ni 5.302703066987087 0.08003342293185686 3.902096128754581 -2.837172229269669 -1.8793038898778667 -3.895061880952131
Ni 3.641015769607218 5.24693558058736 3.0210195439378498 -0.28039962567383325 -0.269082143778485 1.931614783466441
Ni 6.910263925574418 5.638133197896494 6.115809335397034 0.7641868811418194 0.7228533125003551 1.83311839246074
Ni 8.318564094989425 1.7298611036899443 6.960845701535429 1.3583981322910283 -0.7127694459017919 -0.5295022410065977
Ni 6.428555499667643 8.20154333447451 9.650808740872401 -0.170192631099423 1.8505592136450066 -0.31177916842637915
Ni 4.1545230094338645 6.627384827754647 5.143050702861875 -0.5618006960289873 0.09306005048147843 -1.1172250562179857
Ni 8.142953246190418 6.713385099786243 12.90534185738131 0.26760504501232624 -1.2559440421891597 -1.787449172558399
Ni 1.8756517731126046 4.159042923414808 8.059624599663326 0.35397122841339684 1.5236362475986533 0.6186107630394959
Ni 7.46340949817585 2.1109779999834903 9.120483107425793 0.5050857598354462 0.7385157016279603 0.5235043715519501
Ni 8.983160243656227 7.766928286186607 1.2121715368186903 2.0571383537932637 0.4663767733010226 0.5343801379241894
Ni -0.20813359914902102 3.4987322533564926 3.4455135483261023 1.001066986266463 -0.09857763786559796 -0.5754524824844669
Ni 9.128950913078889 2.4454703894030754 0.39926125638011606 -1.8394597612977353 2.2367486786621606 0.6549149967871689
Ni 1.0967074271768806 6.265613538396133 13.654551358416262 -0.43673426784424135 0.12022812625583809 -0.9246301461639623
Ni 9.145342634320981 3.587695788495927 6.07780548603901 -0.2111898994473911 1.4555539501084351 -0.5236488675496143
P 2.580983412097284 8.522944852696178 0.9772316594416116 0.6388252903141578 0.26777370937970657 -0.36970946508426006
P 8.55294320295559 0.2914603701931335 4.430418746378929 -0.7188125667720782 -0.638295643062933 0.46077331107131614
P 1.510504614390731 4.758062809698342 5.514156271010079 -0.6291283747413682 0.9014159128310282 0.16271714865798428
P 7.856829562815863 1.257145618670564 11.081851954640067 -3.039473053757546 -1.1552089916609267 -1.1878514602862962
P 7.742565762281026 4.713970204846902 8.429700527655706 0.5151588278007321 -0.14602631826586465 0.3466957777979061
P 6.625959460690117 7.392750676917745 7.754715141023163 -0.2770397080626648 -2.1270715884492915 -1.8866220208058346
P 4.569267315552436 8.061547907458952 10.673059493757398 -1.1690214720639867 1.2696865885862327 0.7034998476744078
P 5.340062687941604 2.758966746865541 2.60933039959312 -0.6788681651686567 -0.6436504796169431 0.43800002193054244
Ni 0.17975472844253118 5.7266653719506095 7.22167099499756 -0.4717187543392263 0.5572416159033953 -0.03973511380609286
Ni 5.870552426148931 2.4380340993887852 11.167371165287385 1.8388486100762977 -0.2132059014361554 1.6127789653035967
Ni 3.994234856578553 1.0057089930045326 1.8703047711376384 -0.25880261622934786 0.09671410229429794 -0.11289302604700557
Ni 0.5062575603688312 6.25819600321164 11.051149360521798 -0.687392400589584 1.409732006678314 1.7567681985347747
Ni 7.800002428532637 9.521733313505822 -0.2180389625060131 1.5389060292735304 -0.6340852045260112 0.1693444241665148
Ni 9.428240486970546 4.149721773005975 9.9840745644233 -0.7987895588173534 -0.04933689856191503 -2.389143619458531
Ni 7.369363404161579 1.9027900118280596 3.3124517818862884 -0.628580215547382 0.427627934667599 0.37020645932533663
Ni 2.406488475671166 0.4904866239930011 8.746921594315745 0.1154427890520528 0.3421330981278882 0.183047118464588
Ni 7.4845649461862385 9.31603034029842 7.951185111521775 0.19051668736875577 -0.1930955038395255 -0.8226537670294607
Ni 3.6483489080576277 0.5325612091583444 11.241636540315344 -1.002866501369047 -0.2759819562221118 0.11611744652157423
Ni 3.132431672602138 7.572262530314412 12.525000473299848 -0.8274619870513814 -1.085200423682273 -0.39996389309342734
Ni 8.777466647863724 7.0748000473786234 9.273761642644683 -2.26132405400868 -1.0367564692482725 -0.2120666456253896
Ni 4.76282653646664 5.988520305568566 10.460050576602791 0.6981051590213978 0.10726462411663461 -0.6799153754862484
Ni 2.410708312375366 6.993816692317577 6.721882913167012 -0.44037854946504806 0.18753189370881895 0.9973075192240308
Ni 0.9828187232379723 8.751584982744632 5.669918883435509 -1.347748365886666 2.6418892308605213 2.756708527395962
Ni 6.569001042598316 0.4789102053011458 5.355058112105351 3.720269289186851 1.8092564982414774 2.94138006883785
Ni 4.835323331044795 1.7696400976882027 12.966705784992296 -0.35057300136512526 0.5610661318558079 1.862406857012212
Ni 8.473047628022737 8.39438987185645 11.303247093938154 0.4742487198499316 0.5525020443358807 0.6125637855144676
Ni 2.7509209248828665 2.693596787610035 12.149147119988674 0.21785214195891517 0.7870982385223542 -0.23389068347901654
Ni 7.418116584217437 9.112671720815573 2.2927685652004253 -1.108584092713536 -0.08949187351424587 0.2513502737163607
Ni 3.9298589033022573 3.4980852117285157 1.1111514593446123 0.049065647178399376 0.3609000943227462 -0.5826672550653513
Ni 5.179118116043417 5.718066282488941 1.6416777694700426 2.2305741744203327 -0.5416100800137252 -1.9947477073711841
Ni 0.5081321056069857 0.27595106369296385 2.7461525094071204 0.3585665610935631 -0.343840310626982 0.16551450889746333
Ni 2.505213899719649 5.352290836968886 10.82996052435147 1.0762640404245918 -1.4578316903990183 -0.6573722000784098
P 6.898776592324095 7.67291970183193 0.5545334300063688 -1.4761286889359932 0.6936324679620248 1.6254010249429813
P 5.654177954787352 1.4025518140823972 7.041162322397211 0.36176578475715115 0.24834799655492715 1.8933511119995523
P 0.2559518509395254 5.923140968898161 2.4384842153039 -0.011131591136787279 0.6513866719189363 1.920718191158595
P 0.3645638835152042 8.033659475551639 7.756951654476388 1.4367980096571709 1.0944877625214697 -1.5882550120203034
P 3.127846116716907 8.617150362763718 5.04006043051768 -0.02345540280946283 -0.5176067751205924 -0.0633488965702909
P 5.976357798445573 7.13933541670819 3.8917340852920455 -0.6447552826453476 0.1406154316629385 -0.2115151439972938
P 0.6794162151719528 2.3258145753017603 8.905484302829784 -0.47132563266586575 -0.7481149152806214 -0.6282251462008083
P 2.7574663604818257 5.052054144172506 13.046268461696263 0.4469050377296561 -0.8288809788860949 0.2496821419853184
