# total energy = -340851.362072516 ev
CRYSTAL
PRIMVEC
9.39502780916354 0.00000000000000 0.00000000000000
0.00000000000000 9.39502780916354 0.00000000000000
0.00000000000000 0.00000000000000 13.75057286267031
PRIMCOORD
 96 1
Ni 5.009832650914374 7.8237937085771465 9.831769449277544 0.5640779220989381 -2.168405157090756 -0.6038256343105213
Ni 7.238389544849776 0.5507177221853804 8.354888976319243 1.0479027156730791 2.6167227588972226 1.02751001094934
Ni 2.5627192321709193 2.3661282816654587 12.533468383801257 -0.07073747572487817 -0.4143744120918024 -0.1549770997012492
Ni 4.829194457109429 3.3212737527831475 12.625197674331968 -0.21739448559620625 -2.0428875003012044 2.438409041352562
Ni 9.01684946115958 0.9904050093373781 5.718601981284142 0.9569036614856875 -0.5592784438277658 1.060022895975381
Ni 7.813985299863756 5.539251845749891 10.905166373567612 -0.995478436435092 -0.31642232362534534 -0.522396483199752
Ni 0.030879576397674913 8.20760876716733 4.3489619892644145 -1.5814405602016313 1.3726165898832554 -0.7652716295655659
Ni 3.0579687119771246 2.069470893222906 1.243454438120856 -0.4436772748209778 2.0164375336397917 0.06648769930958871
Ni 8.70301796244109 4.2415542768362835 1.2104637990432014 1.462354003749404 3.084602084885701 -1.319606099124495
Ni 5.261375117286331 1.2191363489314493 1.3373229764140557 0.09530719464444232 0.24238792231675033 0.13789314763576896
Ni 7.344619120828998 3.3576700893307296 11.859484142762264 -4.393422920469233 -1.5567443430065318 -1.2852564180000317
Ni 5.241110042961826 3.510893592881198 7.492563558425392 2.9581493178763894 1.0790452027141546 -1.552725708765442
Ni 5.106075312657645 7.44465737368358 2.705356418730728 -1.2061661994350839 -1.1867805958196207 -2.515628782367674
Ni 0.04863805738431393 6.725561968584993 12.323565618826445 0.251336903979922 0.2012178758363438 -1.4161371388737094
Ni 2.850968070998065 0.234362719079518 0.02089735967547411 0.13845210546303252 -2.1257202166277196 -1.0274177083458498
Ni 5.145675353583834 3.456909764847536 4.7463810476793 -0.6489361534959147 -0.11836664756706711 1.7431776043345333
Ni 2.5385552214325657 7.880342379119195 9.882948861601486 0.11520650467153062 -1.1771091341681275 0.10409393969813685
Ni 0.1895813204852873 5.715352241270769 5.885932118630738 -0.31460763901410976 0.7623559985806676 0.009914688010550666
Ni 3.081606601175296 2.8674375542112585 8.17012260742937 -0.07151857686527682 -2.326503833140122 3.9386798747523972
Ni 8.0226770457934 6.300784590080649 1.9040009713219535 -4.377520904526996 -1.2068889365337214 0.5392050701166584
Ni 2.1490279861204082 3.3431829569207214 10.433136704235682 1.8703883325557917 0.7827461322012454 -0.8678018243210086
Ni 3.716550744927293 5.518582785242746 9.785265002639216 1.5344418228545895 -0.05934260362437521 -0.40124301691616704
Ni 2.524584815535236 5.224011092905914 5.711616778335478 -2.6403244574765625 1.4880596360456244 0.546686208985052
Ni 0.8778375478044641 5.896610506890929 0.401281354221471 0.6214168650297233 -0.5718012588851249 1.7089605921331925
P 4.344138582144247 1.851985401550222 11.231385216049134 -2.283602662901222 1.590621198259635 0.5430617248585873
P 0.12679998869758413 7.439865909656924 1.895474983862756 3.350017064225243 3.506403128458877 -0.5563548424230677
P 6.225380099339583 1.4952656022794057 3.0982376788615453 1.858667444574438 0.41102477889327915 1.8154507999776475
P 5.207983175985373 1.525865206857484 7.5857922953456205 0.3101318626309433 -2.686684532798341 -0.3377989895289086
P 9.405455983776418 8.359338461344782 6.55242288573314 -0.6145923859087221 -0.121599552682068 -1.0915322794375717
P 4.099632991372223 7.697111157723352 0.5558521047159053 1.2846969459521358 1.252015910779347 -1.2927205875875607
P 2.3868255272551138 4.246627591688038 13.756622985995847 0.6830449222541657 -0.17467354968891205 0.2768599879516909
P 8.992131143798535 3.9572513495605017 12.562990378724713 4.616545823908785 1.2842200063157172 1.7317757902554949
Ni 1.5778103139229411 7.085043905941764 7.424855474214985 0.8225681492941899 1.5439219944308828 -0.18135996057015216
Ni 6.57944110582698 7.50846840048564 0.22659584984258305 -1.0300178649728582 0.9129611944664664 1.279364477995629
Ni 0.5639825615172159 8.71971292631436 0.06227212129702716 -0.7755825245732707 -0.6143324473791162 0.3377663365187602
Ni 0.9008666392204251 3.4926766345524007 3.130482352755442 -1.5816809583472116 -1.2736833684504516 0.8175514128058888
Ni 9.025633811875117 1.2406509619138868 12.619615148989537 -1.4336916028177051 0.8331307553013846 2.0447993726119362
Ni 7.441838865432607 5.440679217185815 13.27924378800357 0.11195585894471687 0.1852711226991003 0.2525831176821972
Ni 5.054233550894724 7.20340246242768 6.218325373187394 -0.805943139142999 -1.689687859946509 -3.0809716872219646
Ni 0.007107338306206972 9.038561369719584 8.564915755657099 2.3160978073154497 1.447249801118114 0.6937805635041149
Ni 1.227084542199197 5.93014136005002 3.03802400809048 -2.054635899086384 -0.432772712093332 0.4011147188684188
Ni 6.685698866888712 6.240581253839838 7.61789980183797 -3.561246044440686 -2.6848765330553244 0.03378121021550311
Ni 5.64347088584342 0.5499426324163624 10.353163411619787 1.1144901737853257 -3.12796091148731 -0.04021873831073073
Ni 1.4489199316058843 4.895344845759796 7.934602420961452 -1.4127998469703602 -1.564438626326996 1.0981423285549217
Ni 0.2957460707747379 7.092559927944363 9.820864640854525 0.39316975298972934 -1.4774312097975006 1.4307451185948716
Ni 7.322362300673804 2.5570916106964736 6.758667226998187 0.1963464066766554 0.3057818131923637 1.590293382606571
Ni 3.024851240028176 6.6830400741052935 1.9423505340874607 -1.0851867968355182 -0.005218310976145852 -0.9699394116237231
Ni 7.513645060639929 2.935429368252263 4.532134021986987 -0.26513909997033697 -0.5353476440437812 -2.0866579605189353
Ni 0.3636683616122183 2.060094655774664 10.702579516509578 -1.6711095827236897 0.35495261849005966 -0.30565634335809294
Ni 5.5360293513162775 2.5852860882337203 9.551230170019563 -1.675555020089553 0.9285197110263558 0.4505480337988821
Ni 2.1674328449992704 0.7678490213211916 10.095711472948286 0.5368681944533656 0.5691435095473036 0.3002534271749668
Ni 5.141024814969726 0.3007761684999768 13.123188623163621 0.4992879222067465 -1.1525142184375827 -2.23413875184314
Ni 9.172139870760763 1.0514445030259791 3.4110770626756923 -0.21666557784998172 0.33047185973987603 -1.3441454790267562
Ni 3.1412462357659128 9.183047497692034 7.892691203269464 -0.14781503473517124 1.255644765781186 -0.685880849041064
Ni 1.907754284809501 0.7655904567094108 4.457385304165646 -0.7431272322580427 1.1375172308081183 0.23659522689437315
Ni 3.315956167216309 0.18472033325510687 2.5324014784179383 0.2270255809280671 -1.0356249267469908 0.478912186763872
P 5.961924738093508 5.50534519149067 9.850180884675659 -0.09063729997259873 -0.5672023266605328 -0.43803781714701334
P 1.269700386953929 0.7389010625781843 1.6051451464436406 -0.4785620025133049 0.2959175188037742 0.7784477619362077
P 1.5832218497648118 1.4824507847649757 7.219036727695835 0.7592565337197376 -0.9540674775884729 -0.6869224029317008
P 1.7061557846448097 7.1926075758264485 4.684420841295381 2.150464256341619 -1.903482544006599 0.8365024999870947
P 1.872832967579929 5.628842828020863 10.643685847102718 -0.9050450249431832 1.2960064574276842 1.228905807124445
P 5.271944523227485 8.544025912003628 4.337865522280328 -0.455888215064873 1.8508055253278577 3.216525645201596
P 3.7856511722136807 7.086706825809839 7.932430290602702 -0.4876950751628246 0.13001348777737606 1.2363049278019933
P 3.0349133144841542 2.5528638483200123 3.7944702845309792 0.1336585407291311 -0.18701381642181986 0.49497361110210886
Ni 4.819301493148508 3.4035647986840956 2.5558467695522937 1.831839525748316 -1.343571351690841 -1.5718961110463059
Ni 7.51653872911093 3.549619896249586 9.378509165891604 1.0346486788766505 0.7824314291743041 -1.2018619156327752
Ni 0.07889944097227514 3.343765448625923 5.692791961727219 1.2175345891730256 -0.35560002226607146 -0.36250163448191114
Ni 7.860537661142349 2.614467043658808 2.0135103514025605 -2.3067672739431435 -3.297182179812399 1.361830812121661
Ni 5.319361227036377 5.20623570086977 11.97995282242541 0.8680327093848923 3.335700133381939 -1.0716090581510835
Ni 7.22316020526701 7.45495432382714 11.750578862950116 -0.7222311055353239 2.35636771057909 -0.3646539049382236
Ni 3.6940684441120206 4.853912774470473 7.452507858665295 0.08839864045006712 4.134211498837241 0.20250831251299314
Ni 5.928591180511984 5.352741759755416 3.30241981158963 1.0642857850167928 -0.27301850271841366 1.2506447414634332
Ni 8.455261692152941 7.067897980748337 7.974301109676426 2.2742078519498836 -0.053100222259089204 -0.8228129183151442
Ni 4.192399492939292 1.213546307567017 5.58200391840342 0.5070261713912687 0.15648530881565953 -0.012799465757513439
Ni 0.7099249187526675 2.64834551283552 0.41914036200239474 0.8006978315836598 -0.19261110800393924 0.1405958912789127
Ni 6.7479033439877165 0.4424776103204623 5.833996406592783 -0.8996757902114699 0.080090634805004 -1.7764487076828375
Ni 5.696242755329162 8.721808017447586 7.508486251037896 -1.65893746613753 0.1950703681777092 2.0730856211511393
Ni 7.726827629716126 6.614277867809022 4.633695208799845 -1.3435741799043184 -0.7791193340819356 -0.13710716139936388
Ni 2.825253880721676 4.18701614217993 2.2442306183190692 -0.5208566495164578 2.2608363157389837 -1.48310023515782
Ni 9.362220067206472 2.003968761470262 8.417811233519496 -0.5460470327391563 1.4088933128271028 -0.4204648412602565
Ni 0.16553850560172584 4.557556026908024 10.105763212874011 0.8368071757117072 -1.3578126921012035 -0.3044656654841014
Ni 2.77212500019081 6.5284918716768665 12.663837543447325 0.1446885732910476 -0.4075902992904335 -0.1483361973459639
Ni 9.274151079391027 8.922307299394397 11.290869832685948 -0.21993499262987284 -0.6430053898337765 -1.3373554526881162
Ni 5.090658072524816 5.597181585334917 1.0883058934349719 -1.251350509281206 0.9363188953558004 -0.545336379825377
Ni 7.011659346113896 8.509330075434132 3.073541909566508 1.9991196111866345 1.5418993075738994 0.09814055032817938
Ni 3.1694219232481533 8.498770064520482 5.346002706527337 1.0890671057265309 -0.6049944578076419 0.32886106360933043
Ni 3.42429022935626 5.745106293373554 3.9768719249982847 2.7962685490767716 0.9262486556039919 -1.5741568820560246
Ni 2.576971488893346 3.1327531309029775 6.139603498234931 -0.3682220819054562 -1.8475757055366502 -3.3399869336827512
P 8.683307194739276 4.24865691762874 7.432321702571816 -0.22686437275985447 0.4502209894767666 1.2659872853577747
P 6.309399830301128 4.028155622127513 0.7043320588799841 0.711112369914343 -2.3629224809784724 -0.19981816727533977
P 7.357762764306042 0.06881293944478829 13.466829604647167 -0.018692177092864585 -0.29597279752174194 -0.25515344951253477
P 8.436518612283962 4.750435941549702 3.465474271919497 -0.2388940502308789 -0.5389615866472848 1.0601280540946776
P 3.8327014699499453 8.994658406196908 11.283430849908875 -1.3148295036714581 -0.6166140443244412 0.635196435312319
P 7.526732333951953 8.241722112031622 9.63911031778219 -0.19799911178872998 -0.8080051638783504 0.6658169884116534
P 5.636715861068584 5.191344582277122 5.956596817996416 0.12173042183297744 -0.9223956004064888 -0.835207178214439
P 7.457970127655683 1.4894125001448826 10.736736078500385 2.2066230629213734 1.0867304871735541 -0.4791803528235941
