# total energy = -340894.3202770062 ev
CRYSTAL
PRIMVEC
9.03149276912494 0.00000000000000 0.00000000000000
0.00000000000000 9.03149276912494 0.00000000000000
0.00000000000000 0.00000000000000 13.21850258489677
PRIMCOORD
 96 1
Ni 6.447808508288626 2.1144260034807694 11.362254682112162 -0.39316178256992934 -0.4042712622195295 0.30905559884762906
Ni 4.551285331966843 0.41016434306555605 6.046142799962432 -0.030980250431598258 0.025806162429826522 -0.5510987362304509
Ni 2.759563598275843 1.5671626963270078 4.677023581242462 -0.3365849146161493 -0.1792909938562654 0.9114833243693592
Ni 3.6319154893226595 4.215449271623372 4.6437000822012005 -1.666339929249188 0.6378570128636176 0.43299202719298974
Ni 5.200315500165387 4.729756661493463 2.6491996592200096 -0.16881837645971573 -0.5912804506556592 -0.562563799447257
Ni 7.238696334139849 6.122439948118291 2.7456153607716223 0.414637435945202 -0.5759008828757953 -0.6374088695826055
Ni 5.035490756282953 4.443476402228508 11.552574427063403 0.6634842265134187 0.5321036831851867 -0.4950602572786441
Ni 5.532349302033543 7.71447537565912 12.445114414000654 -0.6007320829868621 0.5787059564247582 -0.45956977768151813
Ni 1.8345310096363558 6.459973929111072 0.6549196046635158 -0.5292896107751595 -0.17201682879235536 -1.8434650258023864
Ni 3.086593953124225 1.7586032495366501 0.23412609770342618 -0.880039246927465 -0.42815655347755943 0.4770879890709396
Ni 0.5130791068471854 -0.09190988978597195 4.806684207847842 0.6649374140201774 1.756848931174039 -0.6010778963620551
Ni 8.54533658871164 2.300447661001126 1.386699922634576 0.42326914347827105 -0.0394386656115966 -0.15977889196526676
Ni 6.947593257711431 0.5016651062269869 4.880310743578163 -0.5612895607205236 -0.17249582531130292 -0.6233043118604233
Ni 0.6961718512474835 7.631792058933438 2.4433872914931003 0.8567052001872149 -1.0307331458723283 0.7955512543857137
Ni 7.628062052400646 3.6663435399352537 3.9021684614372707 0.24474510969501717 0.6054631699139443 -0.6805527519599311
Ni 7.484244560807007 3.936890938715649 12.572976870386473 1.3617822182719128 -0.3782833227962001 -0.14929264772196224
Ni 8.133672114689434 9.057503514784463 6.95722805424698 0.13553107516149562 -0.2233630444748153 0.05362138486988184
Ni 6.849140954529927 0.5904473900509597 0.5114317625576426 0.7371663866889175 0.19982613769513974 -0.6403697519831423
Ni 1.9159137913966091 6.3222526951678795 9.253335179800988 -0.017918017931001395 0.8649733537332782 -1.242654781279421
Ni -0.07938320925090689 4.706663134364291 1.411035280025876 0.191482907936767 0.5753727782864672 -0.39690890831718734
Ni 6.473981774467875 1.767219293682614 6.958378666431671 0.2620152096293746 0.7774923400014739 0.2800358145765112
Ni 3.5488709128843587 4.300083390797197 0.4327195932229255 -1.068401092736747 0.2040679436906292 0.5358325540999997
Ni 5.922437539719577 5.383302576099744 4.7988051335156205 0.116458889021393 1.0836379642911596 0.4356767731140045
Ni 5.414145124064594 3.022768393397257 9.243289450342335 -0.3719057014046305 -0.9381091544870037 -0.2962641035099156
P 9.255654467156004 5.617606594211636 12.44121461540293 0.3773816369175372 0.050260953038081174 0.7866254126509937
P 3.907348925716228 6.138759855635857 12.57854207625937 -0.013618362114382998 0.07935915595561815 -0.026803493346089325
P 2.489260049801465 8.554711278254103 1.3588088665218236 -0.5238360438597558 0.04587825058935324 -0.3794074090983143
P 6.222165691786777 7.540149501334803 5.476425395370835 0.5765434015558006 0.08753706378072021 0.9983202767592614
P 4.9981816594622215 0.9379656863512488 12.593095423782225 -0.7069525821096986 0.3181557613766843 -1.2685463043342025
P 3.9495530916429464 6.399914501888157 8.097390801751104 -0.4227199558430204 -1.048976151242916 -0.5281102457550776
P 4.61052289334355 1.0072372362459487 3.740373783394428 0.6237000046369452 -0.9580845691676663 -0.339819362393047
P 0.16636912915388138 5.385596575274875 3.555803486769518 -0.5042285540414735 0.17812448435199 0.6517409699345614
Ni 1.5684722627852514 1.0926119378306425 2.5774363204575192 -0.5799061473804464 1.0354781167564813 -0.47724611191535876
Ni 1.6252803525945951 6.451339821979476 4.850463466121579 2.353701990821469 0.1843126154405729 -0.34490500444607053
Ni 5.777870434222255 5.6325988722853255 9.11545318528568 0.6125694419414225 1.0147496259598783 0.32636606510161853
Ni 8.510682750778658 2.374966508221618 10.226798245514184 0.7805766353537524 0.6058850879427113 0.5474886502816894
Ni 2.545598501984404 5.068356358638469 6.92749999249556 -0.11357693948790762 0.7428274416294368 0.09708279848762635
Ni 0.5193894108773585 0.1506516222071087 9.355884168123591 0.7480681212030859 0.9759084847229644 -0.26866125419098247
Ni 1.5906897351113223 1.2213287734368048 11.631885384371786 -0.9975993394328367 -0.0018614786887709877 -1.002040663033642
Ni 4.0150043200767005 6.864232579024588 1.524079766149343 0.8485856564038741 0.23728119721780427 0.12204281086707369
Ni 5.644023710696902 7.980326398175468 7.770113887148859 -0.07155200120637353 -0.028724621628202145 0.04719131297382195
Ni 5.256897802654343 2.689262458200179 4.865321174952319 1.0648591410217594 -0.0685533235893658 0.7551980473796478
Ni 0.6363905940032855 7.320079115900103 7.030947614353303 1.1346869604481749 -0.40686910485369276 -0.41420626194505433
Ni 5.07643954470832 4.528697568435338 6.964247330463168 -0.28137304533069607 -0.01091124759586508 0.33871610202653923
Ni 8.251804040715857 7.4288544153696945 8.944921441093147 -1.7667129684523122 -1.639076465547545 0.15033780115702497
Ni 4.877439632012124 0.3203922076290072 10.266335411612493 -0.9318428618623177 0.03265018193485345 0.44397783678053215
Ni 8.489530994604815 7.034169147840583 4.771575182676961 -3.3070256482653817 -0.6301694144113728 0.4457709241252129
Ni 7.144380454667835 6.2442386602278 6.976963672347358 0.7503582027888432 -1.0256097086028337 -0.28707498081147975
Ni 2.0685460199781516 5.202474026948286 2.6512750962690057 1.2767257548212012 -0.43229320135375227 -0.3851286278528077
Ni 2.22735578964548 5.243612476722778 11.459132796095929 0.30343619577832254 0.5512293482710442 0.736049756585971
Ni 1.1489594215063965 3.1836373434265135 3.8121633134860824 -0.4925233497894034 0.6675691952160696 -0.4382707590934258
Ni 3.948929918638679 2.7243678707739334 2.56018616917996 -1.5111725679140038 -0.11036768852199055 -0.04735869178962166
Ni 1.0733297006696014 3.408160254819244 8.0272531316954 -0.31217408987195266 0.6042624647376239 0.9709989632364888
Ni 3.461744101693463 2.7499360269345456 7.41050422826721 0.8562706837529576 0.3416044793179278 -0.6728132172238284
Ni 3.877201802698169 7.077538376340498 5.714688819933031 0.9670366361546313 -0.8318076656145867 0.29212437030992916
Ni 0.5042607572621547 7.4254947000423375 10.96975774529224 0.9866425833110168 -0.5212101762011346 1.4097430624219076
P 0.12350476110235127 5.474195519794693 8.196278422886312 -0.003628083670890526 0.9403786672474709 -1.599832689555574
P 8.688305119980622 1.800238431415994 8.18000638228067 -1.1034848238137578 -1.112633580192561 -1.3668200378061364
P 1.9566638869800363 3.263240921102118 10.566302898239302 -0.9014303110087314 0.3271780194799527 -0.3225168665588575
P 3.8626430362796222 6.118700910092684 3.662965761622266 -0.6052734225006414 0.7628020849791509 0.43877752352651533
P 7.017099626419332 4.212206965702617 10.341720378993987 -0.8441723578275268 -0.462864646382706 0.8747011225440033
P 6.178064912368808 7.616592056524992 10.14259673484622 1.0190788494628515 -0.21595543915683452 -0.21058620442512122
P 2.343564007702208 8.594991736211126 5.861295236508087 -0.05908729308045952 -0.5783508870781846 -0.07005716182840192
P 6.870274647718142 3.8296058355606113 1.5269617155067612 0.6949799831288547 0.3561440676949995 1.0002894846704902
Ni 5.332238515721043 2.8204629543305972 0.49837764284215375 0.37816813737457455 -0.3970942848551161 -0.7885228867840226
Ni 1.5696282938656325 1.1121922142545941 7.137013465978251 -0.5553785945527274 0.5570148446045697 -0.5176368570275796
Ni 7.018824641547089 0.5020688139558387 9.100952220421153 -0.3042239817869406 0.8253541966797592 0.4758147787854708
Ni 2.655827871797287 1.665569842044433 9.353703062608654 -0.14034803693416473 -1.0331594959256336 -0.28867909207380604
Ni 6.3849583497857285 1.8750643493922117 2.6915122030605136 0.17498619583332445 0.047093353943376964 -0.2374838001469136
Ni 3.9308037125580184 6.879631274274975 10.426345466674997 0.6933984975743477 0.7380372193296451 0.4059072551610558
Ni 8.189224826997425 7.361226597167411 0.16298051304951486 0.13879766172790936 -0.7635140234445109 0.9102998455842193
Ni 7.389711925507422 3.837101974597456 8.181684433645785 1.6665846982701424 0.15589755463298957 -0.5130669782687101
Ni 2.837397003359614 8.343880109969636 12.380383898693575 1.171029760743267 -0.8203701132016066 0.6208864464475501
Ni 9.214470859917432 4.834151686947549 10.24507979327127 -0.34264757587046146 -0.7654372086091528 0.35074012307060887
Ni 8.744137808565895 2.177465823332791 5.6140436702959295 -0.041118881527496924 0.457285866743348 0.6707565918051157
Ni 3.8647112481343657 2.4924301037796974 11.183131278804266 0.6018032045638539 -0.4093540760590756 1.0315949796519912
Ni 1.055122211153602 3.3970605501490243 12.659663847877255 -0.57912556046068 0.20888721945614347 -0.003618570589193768
Ni 3.202242218626394 8.600356442943518 8.123021275212142 -0.32576776939598734 -1.2859657853622304 0.13201843402254684
Ni 5.470727426553551 7.89420208268709 3.4169171902531295 -0.4740263194264803 -0.055935120604723026 0.40074602267509046
Ni 2.948845624702587 8.393363659105626 3.497880007597463 0.8491528417612537 -1.0360064784561256 0.9155631508656877
Ni 3.5790541618736795 4.506850387314702 9.492669739411099 -0.6688079527191771 -0.46201283990537206 -0.7952440075579401
Ni 7.3841665889187205 6.209864798572099 11.475550243735901 -0.9499447136693512 -0.6734523934697241 -1.362012589115164
Ni 0.5226100412153571 0.15334120076755742 0.5021591288839935 0.4248763400643909 0.29207217691575504 -0.5025233984249088
Ni 4.665633062503584 0.42775859421938467 1.5261552031983394 -0.6554847532477099 -1.2165290307266468 0.48564899126707334
Ni 5.923087807202292 5.449078938274855 0.354974696768746 -0.07674897202628071 1.4984489496997484 0.5923101774717541
Ni 7.682576143034859 8.80096396136087 11.468227509361112 -0.18408250170763782 0.4669470439821958 -0.457176080638361
Ni 0.1788858750468494 4.8219682031394715 5.9297015693910655 -0.8757491041925434 -0.8253619099892431 0.27745854076763826
Ni 7.707755945004406 8.577642238512597 2.635782473493338 -0.23522585735067233 0.9082812724922937 0.3335016477051353
P 8.484392075192808 1.4837749231617186 3.438687603684834 0.35612504153160607 -0.13831712254706502 0.9341535122733653
P 1.8488007682848078 3.1988554088205903 1.5108612732646125 0.2443162496877147 -0.12336332945071012 0.6090025505257706
P 4.754620361214467 1.1401356530256765 8.170647046275992 0.3985965804322555 0.265205177321582 0.43044972038711027
P 8.485340381938434 1.6301122012508746 12.395531518443692 0.023769334505455837 0.15363729784390315 0.18379865191863184
P 6.312661249797845 7.5568667945362495 1.2732273437516555 -0.32547260675307166 -0.2408385755517594 0.8387869251458974
P 1.8636936999375278 3.1567686523004728 5.941703520193551 0.0826797356884189 0.41718925583277827 -0.2735376084466773
P 6.906472870922569 3.778496617717833 6.00593278764937 0.341976775055682 0.1826722516236725 -0.40457568083382583
P 2.3770256885835463 8.52665043007642 10.278522508017694 -0.18017365357153486 0.30861516887610074 -0.33066392114602405
