# total energy = -340867.7804224745 ev
CRYSTAL
PRIMVEC
9.21729766980233 0.00000000000000 0.00000000000000
0.00000000000000 9.21729766980233 0.00000000000000
0.00000000000000 0.00000000000000 13.49044683847826
PRIMCOORD
 96 1
Ni 8.200860033199818 2.680943155757677 8.679199983405708 -1.353352599447321 -0.46058047833421967 0.2403500659511151
Ni 6.47929007218835 7.988475063816031 -0.0694053285723019 0.6322419806696853 0.08187703728146545 -1.031924595077268
Ni 3.4435362658161637 3.4148151667535873 13.062165055601069 0.5192250274503057 0.6733909441041693 0.560332596123893
Ni 0.15948505547494993 1.5884906194628567 12.014483698534956 0.13899460823006385 1.5673681412689653 -2.8222055806575073
Ni 0.6884934118608413 1.9758383303119273 7.030977589114507 0.46466776102971585 0.7288378122185641 -1.195071117963187
Ni 0.7858713949373494 6.603299592980359 2.8645747655375793 -0.8842926228871804 -2.4561604517987115 1.002668526425628
Ni 6.386287540243101 8.084021569875937 8.566352609906632 0.6333508974631479 0.25653361768951305 -0.578583571914281
Ni 8.144809646999715 5.88363143745795 4.729858064242877 -0.11628276845484489 -1.097805256930477 -0.33035436032540527
Ni 6.917213094512502 3.5811505177430774 1.208389547921552 1.7836372550114765 0.19319012043586084 0.09531285107139714
Ni 7.360205630470935 5.67650032765878 12.608279517437197 2.222072050486592 0.8365477514027335 0.23473863330160863
Ni 5.231857895444827 2.0199707508227154 0.923020173339661 -0.4059306521998235 -0.2814478644326895 0.2773191869762966
Ni 8.443920168719758 6.965401125930715 9.217792485749644 1.32318276073216 3.172399344306343 0.19987910242026222
Ni 4.224471797933227 7.230601210086184 9.170589783435984 1.3226903944767736 -1.57087306909843 0.5056442034420775
Ni 6.005935758209337 3.3038389046504366 7.609461633381718 0.11002778868406857 1.0349777800812952 0.6559745483999347
Ni 7.805815878924159 5.264957210827919 10.079333284651762 0.7568155283784127 -3.0044044921891873 2.1100801960976177
Ni 4.068939119633513 0.9174953252080473 12.625398804115283 -0.08832227868617691 -0.32061090778539625 -0.3489274953419023
Ni 6.051930072818533 4.2740332066814535 5.371801358454254 0.3973938183734059 1.249928432122699 0.5615489850294975
Ni 1.4708871204450744 8.872257201626365 3.7778375077258786 1.2358572987416134 0.023584986408791638 0.5893760345440946
Ni 7.723404021825798 6.587104801243213 1.841486079976235 0.3530248053397275 -1.9922133709851042 -1.931130901851487
Ni 1.9926045944951194 6.690910005878236 5.155428064434916 2.8776815022376243 -1.671352037751799 0.6152945541820694
Ni 5.531705800966222 6.261973848633035 6.692017003310013 -0.29084858892129906 0.6035440985143605 -0.5409027695340556
Ni 7.464379527006633 7.610436823459002 6.137464750315612 0.8853737717665009 0.741014299680098 1.3038236394792577
Ni 0.08568031079784454 8.651438405014638 1.7418056159800122 -1.4315568158628893 0.7059634787235519 0.507696457985416
Ni 0.541902433882245 0.9746370394341497 9.156721437592099 1.0702880253468148 1.112687059138316 1.091546420504959
P 2.785034096615724 0.7061933882824926 2.519799908459442 2.417591590386578 -0.49789644117585863 0.010292897285575822
P 6.516463433073898 1.0592610479365605 8.49115697503423 0.04876842765295472 0.8558726769835906 0.35232443683859327
P 2.1069636047869627 2.7736691687774195 5.198084795613252 -1.4317851298236115 -0.020102427176829897 0.07309774842693863
P 4.5919193634433695 8.588751564602385 0.9582625103954249 -0.46147830755814073 -0.13531021739994117 -0.7438363425099254
P 3.258157978156814 8.567063263545183 10.625979861565941 -1.39140441201372 0.1899430742534729 1.034743809693618
P 2.856283806421152 0.9368922061025547 7.667147168161316 0.016343988575662174 0.7905897966153804 0.7342384144088452
P 4.289481397319733 3.17546038483543 11.16903722282705 -0.9211239327829168 -0.9788994490304882 -1.7942006323496198
P 1.5889607016362173 2.469415395042959 13.228893985194532 -0.49082513615137396 0.8102517938206819 0.8728548133638837
Ni 3.8242106532630182 7.77542644901103 4.2828928730546725 -0.21863864241595246 2.1791644524897893 -0.1517984448629515
Ni 1.981525402879838 0.41301604097405836 0.4972501577915055 -0.16134186557701247 2.56639547139758 -0.5759096246265436
Ni 6.609705614754586 0.19579844250217443 1.7785264075574823 1.290591714170016 0.629472131234032 0.058197434276338486
Ni 7.429704053748157 2.1282924312410065 6.196391855070733 0.37988794827915867 -0.029263524850807666 0.3498240390142427
Ni 1.5354911587408373 4.191759609045845 3.6338541032148055 0.851838616123533 1.3102251721302274 -0.4266871680208845
Ni 3.475501853604679 1.0280144093543613 5.380030561677319 -0.6118860427211525 -0.2019053888216716 0.03695600839905893
Ni 1.6099300534871035 3.7351070381674067 11.101922392687692 -0.9037995825718564 -0.14993259529880631 0.04026064729225969
Ni 4.567152485015532 1.9840140732093936 8.90167144146221 -1.3663387272943437 0.2884348372734839 0.7557366934919372
Ni 2.226226217357782 8.104318059008092 8.731462060326377 -2.7077051009140662 1.467414448991447 0.05189848864150417
Ni 0.31426099364852944 6.8066239589050594 7.274048785391468 1.3318995717798674 -0.24713315031121952 -2.2177626244779614
Ni 7.513480070879016 7.879010438505648 3.540675520886985 1.0358594113553 2.0801538408518305 1.5351630172913304
Ni 1.152401839344562 1.8579122258810543 3.109912495273939 -1.787895001846566 1.2920186764245298 0.5905852243608474
Ni 2.3819432416078343 1.4701773885362752 10.60210153061873 1.4535598024965417 -0.4171758860963396 0.030008116326316062
Ni 3.290685821093859 5.491997683263533 11.290546090802732 0.46692004739900234 -0.1890773838190679 -0.10960329955214027
Ni 5.713424821511373 6.2209660919804675 11.082253601516436 0.3160826808977395 0.5120969010459567 -0.8671245957483259
Ni 8.757354370781025 9.021669594374876 12.969256540090493 -1.1222893581147704 -3.068394364777587 -0.12398219398163163
Ni 4.014722975639266 4.871618256592881 8.022323745487245 -0.10206893884830807 0.957192653481016 1.6541361880941448
Ni 3.882574581139858 3.4823779575522664 6.293590100845661 -0.5884103281967157 -0.8270362123678725 0.861412118744581
Ni 1.4435670506050629 9.002257965804342 6.4052908425336375 0.0632787054539878 -0.5195477008970472 0.060153786671760925
Ni 8.618606391259537 0.32477424319627474 5.286514626260381 0.20029844934586793 0.4273024330073802 -0.15155778960705513
Ni 1.5237759735968917 5.1365971256079455 13.059885617925147 0.04509714944895459 1.0957103220746613 -0.5368417120908046
Ni 3.8156754357623934 8.259528131894715 6.8713994389346364 0.07197443345577283 -0.44139619209628506 -0.21349077966642588
Ni 3.9350855250934833 3.619346998652999 4.0006730490342965 0.7840144573907077 -0.14628548546452227 -0.43866028122236067
Ni 2.0047069061347735 3.3165772098187554 8.629757477795449 1.0981677824762184 -1.047418319837493 0.06484193617604962
P 0.34615284305691 6.704007785649713 0.6297856787866222 -0.3887705954807692 -0.6949007931514871 -0.146606873359683
P 7.004464032807221 1.3490344472720135 13.26716604794409 0.5091054225178007 0.3027756793761882 -0.44332709057041064
P 0.31861524499550026 7.543334897536168 4.770019672983396 -5.125574627552378 0.7432588727399005 1.3625527778893503
P 4.160743402901567 5.701838678532663 5.114228587993997 -0.2513857549399864 -1.4092872058314116 -0.827393081486659
P 6.10594343626741 5.911615152719175 8.675949042571506 -0.4625000639544357 -0.7193051901377805 1.8842640620966196
P 8.298729298233976 0.8511335482758169 3.225390485484331 -0.5157270415993763 0.804023553522783 -0.44212998493851596
P 1.3170227729959139 6.0803193491705025 10.525165669975141 -0.3086046273531395 -0.10221780572134655 0.26290378288191496
P 8.915357284815263 8.737205358409142 8.064467994923643 -0.7651181347068372 -0.7048712741006377 -1.36340021349131
Ni 6.825786720442639 2.7117381467615496 3.8546387958257196 1.0304490389730059 -1.8118296582852926 -1.382760877406109
Ni 3.4569843028932814 5.93904583012939 0.4420145806918924 0.33784732626834074 -0.09798114193217965 0.32288222031807623
Ni 5.916869012303794 3.926697784353129 12.494676325541738 -1.0106402317771948 0.3368808485900134 1.8120109210581634
Ni 1.8215039006894058 4.703347273124847 6.459589942205537 -0.5809057922895544 -0.9697321807089234 0.08706578057125651
Ni 4.420367022059329 7.573696675556747 12.188078593048736 -1.5742283587239083 1.0203569448443268 1.4101688371054166
Ni 7.664745140428418 0.1365616365504868 10.441133411973315 0.5943878859363892 0.08342586982582405 -0.29702283605281105
Ni 3.076144004091123 2.801910968369118 1.982097797055636 -0.47076410373544086 0.22306916738348034 -1.1958663601709727
Ni 6.49476591471918 2.2512327455210586 11.107250912382195 0.9168026796997436 -3.000489473405497 0.5235753339992016
Ni 5.189559717139897 0.11495260425192978 10.503297631616363 0.7558747617316982 0.11717134170738529 -0.3288803468830401
Ni 0.6570375406250089 3.9938089275734807 1.4678149951827006 0.2709549353211656 0.05374582626288809 1.8121507890701372
Ni 5.466604028604548 7.262788013015104 2.56410192724454 -0.7273496577088119 0.441154251288808 -0.31129502970110906
Ni 9.087729965678303 3.621964711147791 5.050755512103555 -0.6650220033141837 -1.1445191160472483 1.3703290794006593
Ni 5.914647643602227 4.1650202289493965 10.166292956344947 -2.2092131922460534 -0.5056295481540583 -2.9257107377317095
Ni 8.852624357915424 3.954395763391332 13.010861577622155 -1.7157573033400515 -1.6127018322087578 -2.2351242556848603
Ni 1.8929563910402054 7.592896306284393 12.94073822157329 0.0843039015554032 -0.44515720180061397 -2.7928762355657706
Ni 3.325812941930662 5.83646652606411 3.0525099315281095 0.14681667537764392 -0.5174404247460572 -0.9818636738651347
Ni 5.768055743893878 5.890258674372581 0.6481834046303007 -0.42537924784273834 -0.4160628555378189 0.3003411017927666
Ni 5.793928698023741 0.1640172006639964 6.5522154866823445 0.20803926963355138 1.0178570612406084 -0.9043238305064426
Ni 5.004863509496795 0.9457776809088204 3.336308678613125 -1.2628965622475927 0.07706933148017696 0.38651573800832145
Ni 0.9221076608854906 8.400571218497905 10.830049906859758 0.1310594125433872 -0.25051132275483307 0.07959801143930163
Ni 8.936179159905878 1.7560334364270571 0.9666401121085108 -0.5518662105240947 0.29450855427138956 0.37186893462942405
Ni 0.18641431190024604 4.641167384076021 8.229874242323431 -0.34176414482424367 0.46633486431949367 0.7059981886162292
Ni 6.044288933177046 4.8133096325011415 3.0312631390219655 -0.3142356003866717 1.6118073454189468 0.4655702182393272
Ni 2.176664808609556 7.706748365212809 1.6164254830472438 3.7185034555356795 -0.2183843603133013 1.530949750540931
P 8.300950666935544 4.391922441922259 3.1635636189304015 0.19896198992263156 -0.2901212238369713 -1.6908142602414686
P 2.561210461013497 6.54947057548182 7.316880645222625 0.5031548613613205 -1.025887901964885 0.8350084319400716
P 5.83048449997566 7.656550962935918 4.825910599936458 -0.275168716292197 0.8139277000103724 0.29609646758379976
P 5.327570312860036 2.172609197702132 5.428596502293723 1.3015556693806876 -1.0782134508414787 -0.6841996046838991
P 4.704573173694591 4.228315410997764 1.4257242060719 -0.8198898311310784 -0.7299081624646074 0.09453766346826944
P 7.965090780015724 4.722832640075516 6.632807849250876 -0.25426487625999433 -0.6050281392590549 0.07485484032736141
P 8.476595488417074 3.2522773423410496 10.749026174767438 0.41459424141209245 0.2838485034543821 0.29480834489999547
P 7.602205776776435 7.384373384560176 11.33706118272163 0.13349244746491204 0.9971038878536569 0.08178859133271721
