# total energy = -340859.3129813257 ev
CRYSTAL
PRIMVEC
9.44219532359161 0.00000000000000 0.00000000000000

0.00000000000000 9.44219532359161 0.00000000000000

0.00000000000000 0.00000000000000 13.81960728780668

PRIMCOORD
 96 1
Ni 2.3885921158323753 1.148586391027843 2.4398235784646376 0.05073917822608036 -0.08127077115603423 -0.0020537972052351726
Ni 8.46134939096266 0.9204421825400183 8.253580495463547 -0.6045231745981783 1.7344492233226 0.7703097062101055
Ni 0.8575052305374857 2.7555441472890445 8.231842673709707 -0.4517636513735381 0.2951148203968208 0.9818647023063993
Ni 2.8964594682230778 6.38521839817699 3.0372322120098243 0.2469035507989167 0.26489381672875023 -0.18477489978897207
Ni 3.9679408933739904 2.149081392781405 13.193385766352547 0.6979956300267268 -1.1642865284821624 -3.0041021304574196
Ni 6.648174091871167 5.228530603680814 2.4115489249845408 -0.3522143936232902 -0.22853173315994837 2.1206266041548965
Ni 1.8465156902880948 0.8324031546393935 11.959736527346244 1.5281058533342329 0.5165816762901878 0.2639918737397711
Ni 8.77398991571787 8.318347344892844 5.197098480131007 -0.42312798991471645 0.00042423202161217264 0.39293398282983943
Ni 8.169708308297858 6.1145201044314925 6.653201116587414 0.2822220235945527 0.7140148882731187 -0.156052335043299
Ni 6.663007780506074 1.9673946730405398 12.076954771025646 -0.37530855643859234 -0.8393317419057739 0.5675460831531969
Ni 0.2673255416255803 2.220445503986137 1.8488837928403767 1.8781916306502944 -0.651885980152858 -1.9544055561087115
Ni 7.57995823926685 2.9337372548116307 9.670960689468167 2.1428095680098385 0.4589144034857064 -1.270283341629967
Ni 4.121659830978255 8.72267158488991 4.37675206452275 0.41482204115218235 -0.8539371505237744 -0.05402813338999727
Ni 1.4043471319914023 6.912546114843024 5.284866517029836 -0.11515559682893717 -0.7817955953625181 0.7989926759670949
Ni 6.2176855290177455 6.05368404085752 4.854012541222775 -1.2031358972491926 0.44052535945555743 -0.09344237352156165
Ni 1.328658495392152 8.173390764419828 12.912875143371279 0.631101696417655 -0.6031275798022322 -1.3933782479106391
Ni 4.64497461469086 4.4103455065502954 12.814921810526888 -0.3931787518507938 1.7979917239609355 -0.1996183925597078
Ni 2.129960947532717 8.966289662846156 8.114140989636859 -2.9668568729527163 -2.0875537328603273 1.8313340468668073
Ni 7.709703443297577 4.063571446202983 5.531643009275308 2.313674799696254 0.5638884317959514 1.9808529516669626
Ni 6.9803033074872625 8.657747050801033 12.6881820572234 0.15197148010570602 -0.52279243308659 -0.6805707496820601
Ni 1.990225900996751 5.8404037360291925 11.295179722746221 0.5535327995932402 -0.04803103526629793 0.258729082678935
Ni 4.275265462240307 8.403119373259619 12.060979520992925 -1.2741009156038443 0.13054647746271064 -1.376570689434997
Ni 8.920022906441924 0.2979947358044756 3.1367605030109944 0.5566181233867834 0.0878841627074938 0.2127060789816014
Ni 2.977870075104158 3.5457425778925935 3.329751418826787 0.49206826452985586 1.8643069022484022 0.12293884031878183
P 6.955470334151929 2.53192463873365 4.4554414307516454 0.6170591022816597 -2.633387878257729 -0.9051782080869378
P 0.6942119070160994 0.395172864424214 6.887360947627307 -1.0511826719759314 0.34496516826004464 -0.9406836000823993
P 5.346180355680146 6.581946534846822 12.754903441055896 -0.3969832131985485 0.8072713710361195 -1.9398397424793947
P 1.6335469779008582 3.653789617389253 10.32490446668077 -1.3475334216623824 0.016380498240552436 -0.6910487663952485
P 1.3412543837683248 7.046483653535684 0.846878039857289 0.4862830253066464 -0.5897483302818488 2.062165631804526
P 3.1252532997395988 7.499048068730551 6.330554697595149 0.585723782503488 0.5598600273628488 0.42405075883930193
P 5.441858119485063 3.1686968397836544 0.44346308325649253 2.4348624616518846 -0.6959791138173305 1.6474785735683113
P 4.76608965232292 5.3898693927990005 3.1283163478574627 -1.7005865091368841 -1.194113382035608 1.606653569132149
Ni 5.241598601816213 2.8499472147440477 3.2780110218740783 0.31130685677565095 0.6893873195324256 -2.0352209848948823
Ni 1.0024967471326836 4.32825506161593 6.40475241157476 -1.5837689512244917 1.374453385981678 0.8320925438448573
Ni 0.8918266658137599 7.651388445837874 3.1636122176767807 -0.7747528295831239 0.20776287604371313 -1.4429159496294504
Ni 3.270162669236691 1.7483357447592769 9.253125612381545 -0.4468050218166821 0.02953606178590397 0.08036265751946806
Ni 1.0629362385089063 8.611716349276415 10.448922035112556 1.8782942176664297 0.9856789338461669 -1.5661399252888188
Ni 1.9783192928690496 2.261764550113672 6.157104404713755 -0.2819134912151983 -0.19260545157698442 1.1222302227420609
Ni 1.529050203793585 6.49383196938472 9.00752278499751 -0.6298865930636313 -0.021631205116530487 -0.7212805686965965
Ni 5.903675885960777 7.337142747901292 7.535527989826011 1.0632892254314785 3.720151532662064 -1.0985722170034886
Ni 1.0655894953557612 4.847783525059535 4.093285090229203 -1.0468621902237067 0.2831545627111511 1.4269661111684135
Ni 3.3182234427259854 9.727443901062069 0.3081271554570025 -0.7725388526509405 -2.0791122869611933 0.4798413834463607
Ni 7.287287957326935 7.411018483025111 3.330525678831919 0.1343599376715299 2.085907455506156 0.07586065588405644
Ni 2.904154857298476 4.523094759248855 8.067872344793589 0.034405216952747196 -1.644425388564284 0.21157170826684207
Ni 4.824574609295944 0.8500147370975923 2.2024722854523704 0.0965310397492144 -0.8289953929767723 -0.16307453199740302
Ni 5.502420359398684 5.3448395639639426 6.888894360125276 -1.1109783039773253 -1.1508941663356567 2.079646819308425
Ni 1.5304665330712657 9.452487177288345 4.734638644382745 -0.08621885918992894 0.18138695715334568 0.4175872626021453
Ni 3.68098313952072 6.657078081930184 0.285153350353505 -1.45846649576954 -0.12644479658951127 0.892661820787482
Ni 6.226551750296027 4.168105989090994 10.998762777757081 -0.5669716987069654 0.8708403540370163 0.036891987930342915
Ni 8.917067499349164 7.5759641907037905 11.4657690304867 0.6278186547910091 1.7325232099444805 4.050260352635567
Ni 0.33593536449498296 1.738336460058852 10.435337548900561 -0.8104166015333203 0.05649125021850916 0.008299521004630866
Ni 0.9316396818093611 9.305859328267667 1.0574059447893227 -2.0872194894493603 -1.7811155170308874 1.6959459250410793
Ni 3.4784480528123973 1.590112880051987 4.467740834199024 1.835554255595742 -0.3000734499536768 0.4713654847648656
Ni 5.465104804029393 3.793061996361177 5.4096989469060475 -1.7493299970891742 -0.27759300946297355 -2.113677683640889
Ni 2.1127289413209365 3.422691890247705 12.603467626247252 -1.190897960422104 0.32833527301284743 0.23678343164577928
Ni 5.280000009631726 8.520108171596036 0.3026950605673382 1.0432423340829324 -0.37988794827915867 2.3246030165729836
P 3.129322885864134 7.655826277574607 10.07149483231816 -0.6656226130126601 0.3170797547036862 1.2336880590044366
P 4.990058522100142 3.852547826023761 8.914061104402407 0.2815201124315216 0.698779559380603 0.47471974594907923
P 7.622155409546547 9.180703031096627 1.5360355397911059 -0.6411246278712959 -1.2168149373981816 -0.708798891289818
P 1.5644867623211531 1.5713795648058655 13.98875946413674 0.2097544525524452 2.5309178473162603 -1.015525327783638
P 8.446997254282163 4.230981566824828 7.794935306569838 0.050595453559364484 -1.0209261870842352 -0.3790919347404245
P 8.89375471943854 6.7196042984421895 9.71453453180577 -0.5753311264152543 -0.7550751486485384 -3.387707122576849
P 6.3025047683604445 8.305949742615546 5.471195964142939 -0.03254605225682137 -0.472388012492109 -0.25576768605776595
P 8.270513184087978 5.762798333807481 4.296529285795885 2.1215252047097657 -0.016496712103442557 -0.034384133906824654
Ni 4.19960515222661 8.996042019872633 8.668859570313716 3.768791405156955 0.2871215177786991 1.0182213865585625
Ni 8.781515345279947 0.6266350602998851 12.878450788167491 1.2193978676340096 0.7177195908182156 0.41436078524504766
Ni 6.922743685642323 5.794703511336033 8.816812159318784 1.2467916862659303 -1.3293366961486979 1.1570367888982847
Ni 1.4164425840227945 4.692912639642756 1.9648991008532668 -0.8496647484006657 0.6299264451626313 -2.935133059486874
Ni 3.8846701740415566 6.580492436788403 8.370245426505134 -0.6305165133381464 0.4684318560578384 -1.8633591936231522
Ni 3.4406131767079566 3.375660316033525 1.1085911406651805 -0.898850208986381 0.9136019133742589 0.993173442450999
Ni 3.6323558343203532 3.6541295364158963 10.734572989152285 1.9273806907804356 0.21089447969415936 -0.33239221669104047
Ni 9.184121105753428 3.7705895718219784 13.625081985970068 1.1810861165380047 -2.1391326333788836 -0.01071275843181381
Ni 3.1388311764149632 4.692497183054637 5.482045046409971 0.6828626310400304 0.5577203553120266 0.18126508686350074
Ni 6.834449718471716 8.24071361608558 9.604488579588544 0.07039937565916908 0.9916467213938276 -0.40862876785727686
Ni 6.768580964864385 5.6547040833349 0.10955873494570358 -0.48107654140504247 -0.19022692404247882 -1.2812586096945484
Ni 9.156927583621961 5.02743073064054 11.176095701298356 1.2644230261944482 1.2348872215188602 -1.3309595764641013
Ni 9.10085982861618 1.7727249349209364 5.348243475327968 -0.45291164893505226 0.014830894365245425 -0.22656483924156465
Ni 8.829047355838908 8.200555959965742 7.932495815554804 0.6912981634018933 -2.0163747987226563 -0.1825619512980533
Ni 8.711586447743265 3.3795316160591855 3.3125600140543 -1.4617271687986826 1.680669972718615 1.0570293605646957
Ni 5.8123981851118565 1.4731996192770473 9.729058516438624 -1.0443126843289756 0.09973489139849276 0.7645746034985413
Ni 7.43030888778712 1.831389293602466 1.4336736460150563 -1.5128754095377237 0.694344663537701 -0.18777923383293468
Ni 6.262856990780572 2.7664782093127385 7.330306598587687 0.5477092509329277 0.042460226046739775 1.5149101805795653
Ni 8.417433741159376 7.001557688847655 1.375149031822258 0.6470726179246147 1.1397492054624307 -0.05422507989215177
Ni 4.986394950368542 6.221320774163793 10.342483001455824 -1.2016636835790402 -0.06588194740478977 1.1169828583001924
Ni 9.412150119460001 6.009730622273499 13.404755915095041 0.6309425451319715 0.4173347802717071 -0.9994631321144529
Ni 7.050260531609498 6.572617646004499 11.280544320210188 -1.3761541707228686 -2.0024944411961383 0.9735551539994396
Ni 3.366359753776756 0.34631611388086314 6.589465354872268 1.4994555365873918 0.7259579195676078 -1.7678319125481037
Ni 6.684583196502742 0.39469036825028414 4.010947259781002 -0.2317165586458332 0.34789571164327826 -0.33318154536155525
P 4.116721562896743 2.588861075696409 6.448629348377787 -0.7310939552425925 -0.5641733100262218 0.34978804356998466
P 8.209016166851088 4.737338167986004 1.313747380756731 3.7293427122430285 -1.1338248695581956 0.47416078812181567
P 8.22273567645422 3.420510743160077 11.826128521265526 -2.1561620780573447 -2.7301554594977824 -0.49199370253817853
P 4.060446079596901 8.139701012001401 2.149943465201753 -0.2606954623766865 0.927470700936551 -0.3357678180314927
P 4.283791764491943 1.102744533406915 11.292222427214423 -0.3131894185103445 -0.09635157674855664 -0.4811032808779198
P 8.090875420702158 0.15408151789935184 10.827371827645436 0.10824010065602649 0.9118440501428876 0.1975715373330081
P 6.3144019342929605 0.6139400288742749 7.887831399673389 -0.2767154919540266 -1.8165892844574647 -0.6267724729146819
P 1.4306058767996002 2.367904266183054 4.072748315702834 -1.9214488986770328 -0.37984835329047484 -0.7893068161378988
