# total energy = -340885.0771593056 ev
CRYSTAL
PRIMVEC
9.15260452036733 0.00000000000000 0.00000000000000

0.00000000000000 9.15260452036733 0.00000000000000

0.00000000000000 0.00000000000000 13.39576187500137

PRIMCOORD
 96 1
Ni 5.1537217879208495 3.1160225224853466 9.974149650821996 0.12092720920539175 -0.6787031003457021 -0.09554219347338384
Ni 4.654676025115774 0.3129559224607102 6.641350435474486 -0.4156846462627938 0.14101729508704747 -1.1412805545052924
Ni 3.4802504203455573 3.0794212569107025 3.9777512235034713 -0.6609861426819132 -0.32917988040132984 -1.2545957556913812
Ni 5.248478702773136 4.984819623651159 2.9069074748876353 -1.6870812755615976 0.645121921956147 2.076008708335205
Ni 4.664368633328714 4.861762855546359 12.17768495800468 0.5527311296275513 -1.0188237960292517 -1.4103164184268744
Ni 6.231276226188931 5.937962708341811 4.947135604958865 -0.8849279424783341 0.20342979588599805 1.077152870787448
Ni 3.188858949452844 2.6616780802770617 8.048441654596633 1.0635977578108327 0.9369758122135089 -2.515439034954371
Ni 5.463921861153121 8.584218649960889 13.000212138496984 0.13829346839798118 -0.8468912994205867 0.1478713418944034
Ni 2.139201649837305 5.400933636675826 12.207276243758464 -0.7623413432926484 0.7514439796538541 -1.5715310143974033
Ni 8.327359956015695 7.545791596121816 9.823232354482831 -1.0866564394025091 1.1471568107804113 -0.17687672798781795
Ni 7.9814281146405355 -0.003378226337484702 7.438532223461335 -0.004209152985341138 0.22566161070100488 0.15779168633190888
Ni 8.754530315330477 2.585610783905251 1.7451600579328717 -0.2749329461323071 -0.3666737635817298 0.9741236249083998
Ni 1.3388796032311354 1.2147977434173178 3.067589685015643 0.9940368188925591 1.3826122676433865 -0.16516998107385103
Ni 1.4884331614931239 6.853223162821545 0.6426482975920368 2.813143213344923 0.11950590337783289 1.4687239118314899
Ni 7.820598547579356 3.9522502367207566 4.394051034400397 -0.5914768829371814 0.4000718794262013 -1.2820294264223016
Ni 7.5717666878199505 3.8674971186359333 13.242782701487291 0.9062755549161746 1.6705015168260455 0.21485860654822997
Ni 4.3868799687395486 1.0194903150358872 11.223532341032737 -0.007345384621477672 -0.6441536445056067 -0.11319718755098569
Ni 0.5527074832512223 0.14205849040025412 0.7653014358364116 0.23869710372872438 0.017043071525215808 0.18377911153460608
Ni 3.189865735952772 4.360703519741428 9.74955571841812 -0.7190290536582584 0.519227341443151 1.0134828434323127
Ni 9.09544652941509 4.977195504065343 1.6627619049974247 -0.3307163716505143 0.3516153265867106 1.614610876306013
Ni 6.249599740487616 2.000640369633618 7.509636977648957 0.4058974849690429 0.5624447573708894 -0.08435480939799665
Ni 3.363124539985786 4.728418559933206 0.89784396329144 -0.5662003677585797 -0.8392615507894707 0.15515450581937795
Ni 0.42650404970392064 0.33973918914015067 5.2737774169954115 0.4408493184538795 -0.809690007779941 -0.11301463922653439
Ni 6.732417935434764 0.9749811991345375 0.9951654379371792 1.0006427542448508 0.2154931548084353 0.07331012154806085
P 9.13539764825313 5.716478830962259 13.024686203049772 -0.15659355225874969 -1.0876648260623656 -1.725079609182242
P 3.8162425331850685 6.449236350818735 13.217571852268648 -0.14780166499873254 3.001129420982341 -0.5611489213776013
P 2.4275910664393248 8.73251830140024 1.7938400157252854 0.6180489769987548 0.7094138991659976 -0.28824123320543904
P 6.518549025036486 7.740540715626014 6.30069690114031 -0.46069643508679364 0.6233176815968621 0.21900939549180995
P 4.533111131551776 2.3359551897368136 13.011437807971177 0.24201922612342192 -0.4884430090724427 1.4544491470800307
P 4.049048182386533 6.203067898981865 8.988208207745062 -0.4094816027758755 0.9348363972730028 -0.7062668688965836
P 4.688531509326979 1.1194276040605293 4.185425651145832 -0.5892310243257981 0.8672570075611322 0.7167929652388881
P 0.24166170935901127 6.058978445633121 3.8091520104442136 -0.5237794795902077 -1.4130564430658565 -0.12456454884766288
Ni 2.638137581387843 1.6857907732925892 5.751536967410651 0.27258424339447246 -0.7987373654231793 -0.559362776011456
Ni 1.8554342985304082 6.653897741044948 5.159525454462705 1.0621839081824418 0.029063750135175752 0.09302611191974947
Ni 6.656634369803843 0.9992996694100641 9.7242780551863 0.2937341379992102 -0.19319397709060276 0.6483368293490188
Ni 8.26795955251996 2.4781409013402405 10.960975235497955 0.7251037990974286 1.9386230964634743 -0.03588231571890595
Ni 3.8285436336932754 4.880626373513186 5.619789801290565 0.17127043754463406 0.5300902522995838 -0.6578632807822155
Ni 1.813066892092541 6.8023804445751965 9.837164449120921 -0.11549472533591078 -1.0237495154656433 -0.3908202789209463
Ni 1.3328205790224796 1.2782527507263979 12.071711526282744 0.6423682704704099 0.1416508149059883 0.2561829192183136
Ni 4.15240854551093 7.133311167101434 1.9603762317201456 -0.4227857760839493 -0.19202592492443057 0.1533961283673745
Ni 5.936553207241911 8.253297080039195 8.427394262648514 -0.44085214666735684 -0.6746602977348962 0.5573858547907433
Ni 6.8423864790405045 0.9946776041149414 5.42666343857216 0.8259674047837258 -0.3011281164704362 -0.03980427648113145
Ni 8.204815733765404 7.521152784687221 4.89047091496157 -0.1675654778892211 0.7930308019567052 -0.0765067741084876
Ni 4.991894586964287 4.3828253649262034 7.768443345841283 -0.05869288585551827 0.07404417150060796 -0.038678390406804354
Ni 0.5494189524382765 7.63705221603799 6.925167210845925 -0.09109804165910118 -0.7781721396773179 0.7865336242681358
Ni 6.509661846023487 2.094985417281389 12.39799181043977 -1.3285728213994794 -1.278674908127772 -1.8068592016538947
Ni 0.7092728518549802 7.988805113903641 2.8378117173975963 0.1316106570611669 -1.5660265396394062 0.7665844348397185
Ni 6.880799960315019 5.908958104539347 7.699173688864893 -0.4266966811025813 1.5080972714227898 0.22864460458872882
Ni 2.2428823541207694 5.618262231592039 2.836606319379047 0.10063683438747184 0.1753780319551044 0.5043643082883894
Ni 1.5711086383462785 0.7124423988088436 7.934725119429798 -1.5621963672600385 0.07579226453996625 -1.5977855772185579
Ni 1.1543447903989312 3.9401138830943556 4.32384415071862 -0.36346296995391597 -0.09906486191466166 -0.3643816251134434
Ni 0.6743089872333999 7.660492036277216 11.969715816495977 0.17290951580995384 0.12720841422841317 -0.5515232253623792
Ni 2.4672401493273868 5.392183746731 7.614539554639152 -1.1121998350892524 0.8175388144003984 0.16166865278881187
Ni 6.448376005991524 1.9616136638546022 3.2088473225182272 0.18091027462724327 1.2459007990205446 -0.4345411168476645
Ni 4.2208059592742 7.058927949965866 6.850418804789019 0.21867695185305563 -0.30804027020923724 -0.4438127719575776
Ni 8.396416357306192 7.3183219153699675 0.8144930242228795 -1.404293352161246 0.9565802167079979 0.4862724837836852
P 0.050479359845920814 6.136619989986637 8.473033725211145 0.0581221009537128 -0.9325787115870776 -0.7598010933692979
P 8.576850803302326 1.816142167219593 8.465639335999402 -0.20841207959193786 0.17006356172072648 -0.1018154280766053
P 1.1914586018280844 3.5968179918280967 10.684754206638242 0.3952556889844806 -0.14104891965593128 1.7387252249901344
P 4.110178428141236 6.613809333138736 4.199558187823453 -0.2260470190648817 -0.7720855671636058 -0.08324332150137276
P 6.492665459383798 4.240447448627336 11.199767603332171 2.177652386720637 -0.40630809014390024 0.4174417381632166
P 6.1427247772180165 8.241426151944593 10.878631082929322 1.106606400161875 0.5170537308305998 -0.5577897750973813
P 2.366332684220996 8.629020649207671 6.2251046249443736 0.6643046655321849 -0.12281491314640784 0.633131068142858
P 6.923991101161918 4.078803299761669 2.067756418760617 0.8647676654803752 -0.4277482622955472 -0.6057452199307374
Ni 2.6284998888021716 1.9585841517502742 0.7464964945386711 0.7476541735941188 -1.6773810175546984 0.22953086384842408
Ni 1.0632031543418392 3.5046695692710768 8.627339315752792 -1.0935421107787489 0.2098884070271482 -1.618128145430652
Ni 0.22485478163339992 0.6731182333821217 10.135782816562207 -0.9223701464851922 -1.5798410769249953 -1.2960663641313421
Ni 2.4033549696047016 1.6780202120340564 9.839790331364823 0.4598708538617048 0.006069603232847612 2.187102733500259
Ni 4.777632114570582 3.1096248519085337 1.727838753831843 0.4083179214850774 -2.012669067736295 -0.7082178219753674
Ni 4.201722778798298 7.435758984284262 10.963064775115532 -1.6290185670909105 -0.12297277888051078 0.6778577216262712
Ni 7.284612872831478 6.77354058765454 12.14694227459916 -0.45325643386898073 -2.4476876384410104 -0.4882347497163785
Ni 7.578869108946714 3.7840345177919263 8.538726544331428 0.43335609540062786 -0.07083003543868448 0.9028174211642451
Ni 3.044403391922308 8.789786148037036 13.10664136992525 -0.18951318580490586 -0.7629401532189117 -0.6536302165374743
Ni 8.889311569857163 5.369567660900806 10.55430671036352 -0.06305553369958819 -1.3699760669366148 0.658973997347891
Ni 0.18559193865712825 2.5138360590649502 6.226417108436098 -0.3837073220252489 0.8427135138938132 1.2840744818767886
Ni 2.9550099033332717 3.141951851160758 11.971725728454015 -0.105797809763121 -0.13926765938579241 -1.420688762800134
Ni 1.1202879488877402 3.6368789419206746 0.03443667459980002 -1.0792012686760446 -0.03360277565610987 0.009353673300758085
Ni 3.3253334358203177 8.49300379306744 8.823922617207767 0.5991331139308586 -0.0727547632652231 -0.25388358166117564
Ni 5.974234480152842 8.529019291951217 3.918836823309065 -0.5452721022463448 -1.467294378473815 -0.3091080493521193
Ni 2.981113131495034 8.660578829678133 3.954629913902404 1.0403693834105114 0.03253062563785365 0.6568009009559721
Ni 5.445863772386236 3.11272758484922 5.164534674930073 0.09008142746912873 -0.15921504904199676 0.2554195586897279
Ni 5.914660177170756 5.967681215298768 10.027678658502243 0.893837329152822 -0.07781366584536921 -0.23351041732146235
Ni 8.133214908411455 0.33649001452674765 2.9195389844199098 -0.22035382533484632 -0.6175157302031042 0.3918255802570091
Ni 4.61782763921842 0.28393209818870335 1.8836719140720168 -0.5307212010153634 1.2960604505940712 0.6795351093286942
Ni 5.80883776342381 5.803602473624186 0.7756557773579409 0.9934066415077278 0.4570976619919418 -0.6094941454502083
Ni 7.836203738328236 8.947119420162103 12.116881460232229 0.23143887950441433 2.248672169572624 0.02498263808726665
Ni 8.526877582487733 5.431558251482717 6.17967933332809 2.022948595285432 -0.22336227314386695 -0.21817455829534035
Ni 7.303915715816457 6.406393008944539 2.7530704976986815 0.5380992386469894 -0.6486006245333669 0.9781643706366766
P 8.761403921343621 2.0460922038030818 4.1690827604706415 -0.60560226659497 -0.6456723951429783 -0.36472692426800407
P 2.1166038692162004 3.3820155157662475 2.209429584509535 -0.5712129904818227 0.8229504723342729 0.7772971932715322
P 4.596026135192713 1.1844660119558592 8.666214088296364 0.4279750335943726 -0.3448474117352577 1.0939758558820578
P 8.678636918445019 1.6609872149761884 13.137009711804886 -1.5145504832473013 1.5059149190594905 -0.46790992211609744
P 6.519638184977317 8.094142439609714 1.72672671237965 -1.074495635670259 0.39336361416809024 -0.5865349655508737
P 2.1015661399490986 3.7202134063010543 6.30710006327985 -0.04309631696884191 -0.24652045642788512 0.16019926733213702
P 6.897430242772916 3.941532536798799 6.436087719129679 -0.15106722312388177 0.7762926632664179 0.8623688262308954
P 2.092001668199785 8.777356911065203 10.654104879799078 0.8970625209583389 0.1424177749789999 0.8540803609698582
