# total energy = -381161.97252048575 ev
CRYSTAL
PRIMVEC
9.28912603217435 0.00000000000000 0.00000000000000
0.00000000000000 9.28912603217435 0.00000000000000
0.00000000000000 0.00000000000000 13.59557490734123
PRIMCOORD
 96 1
Ni 4.085329709786839 0.5121132273126746 4.840242110250782 1.7522183743805628 -1.0198352680129015 0.43720709371560185
Ni 2.3069915773513703 8.650628555572073 3.883698084863124 1.2598001827104564 -2.3079679791194643 1.8179175163505854
Ni 4.366845959749435 7.950432822394465 3.166872029560919 0.11575389253456839 -0.43266858241530004 -0.1203304561616573
Ni 7.619117568404631 7.273385590995607 10.227039668879748 0.011765110955728126 0.7667042482470344 0.1432443846453533
Ni 0.5585783640492252 8.751545619506397 5.554077995921133 1.9957177845939373 -0.4827858107866653 1.5942590521225382
Ni 2.617712839188922 0.4081168181377176 8.664106148361313 -2.04223495431887 -2.0160212720379795 0.3744024996845552
Ni 6.981261159238736 1.5239832866466543 8.587236773594254 1.8216109060417724 0.380942357685602 1.5621647426911547
Ni 0.8976463225272395 0.5941696499903486 3.131183207797694 -2.28693866925299 2.3535672650158177 -1.2864283268209458
Ni 5.865507089153365 1.0984298502549674 1.191499460616785 0.48969127965724696 0.5960349346215089 -0.3508745917659441
Ni 4.901277240984109 8.109518392804926 9.800927027108013 0.44180062662355524 -2.4193947050335884 -0.3832995450638689
Ni 6.085389988673744 1.483538432415243 6.599441856564758 -4.167434522556428 -2.211261333024334 -1.8751692988842026
Ni 1.6266652845047198 7.533861970762028 7.675680913922754 -0.3456305697581854 0.515598486441312 0.5706923420916623
Ni 6.580463243408994 8.295718921759596 8.192748032085591 -1.2686620039764602 0.2459059627723378 -0.08456563985722211
Ni 0.41767811544143635 2.6108203077604175 6.424941910611899 0.9880790586472272 -0.25800043204302664 -0.7885740517369323
Ni 0.6962636461780312 1.6651315549163581 9.976691223097825 0.32363761042686195 0.17882536707375654 0.6344870679501201
Ni 6.761666222621704 1.9536332275666028 12.85366449547097 0.5236475819980336 2.0890858532341374 -0.06724154675647774
Ni 5.232676097107174 7.104499992745427 13.495198469586386 -0.5470271372642386 0.380792462371299 -0.8798171036143299
Ni 2.72319086394723 4.623560243520513 9.763335792357513 0.40500145551733474 -0.9773935539089231 -1.7081393817834776
Ni 6.254229141294352 0.20612570404111433 11.414137941638279 -1.0939755987717417 -1.7193478489047875 -0.8217065726248429
Ni 0.18933653786338067 4.249858707983154 0.012871012867028752 -0.8491528417612537 -0.7991479705980367 -0.684437431726318
Ni 4.56058925894662 3.546068083076663 6.0340833595105945 -1.322916908665283 -0.950284356396957 0.19750314598891794
Ni 8.125217015600306 9.40440396702409 12.67465096323629 0.7273524859222893 -2.3292382013521498 0.6792736281371914
Ni 5.600813446221793 2.2577684991308264 10.570070368472857 -0.1608602979549036 1.5366727690676372 0.30771065478396037
Ni 8.606495918352634 7.61353480373006 1.489571719696663 2.1701169975755397 2.209304209297963 1.8054597502032068
P 7.980306651335259 0.5196755047196089 10.163589365408669 1.4060247330300557 -0.7434725314126035 0.45664720471808445
Ni 0.30560945584684307 1.0659829334358772 0.7541794884292947 0.05301974673014095 -0.7213024230734675 -1.01626503416314
P 5.877536507212546 8.631678738706643 5.174924672384595 0.03705139632634264 0.3881848981806283 0.7229705548045098
Ni 2.227996850575091 4.509313283898988 12.998497759990927 0.2795195370617251 -0.8597974659592934 0.9255305464910448
P 3.699933164723216 4.503702651846674 2.2204968103117833 -0.9110755474079794 -0.25248515865175225 0.39238479519458874
P 3.989967543149341 3.2228622360101222 12.003328620138495 -0.6244448532227698 0.9716851906702361 -1.2145184280545214
P 0.6332322822856932 2.8308704115472567 3.5266240847125863 -0.31960637778028184 0.3876038288661776 1.9065758382199425
Ni 5.046661350670791 3.297834771265455 8.351856825310838 -0.01578888740314055 -0.8063660856130306 -0.03957210586566733
Ni 0.29905319077644116 6.263769073608467 3.7500675061959647 -0.6220616977025738 0.2709665052853914 -0.3110003812788256
Ni 7.953795485975487 5.469455916665895 1.345818780520554 -0.09974569003177015 -1.0238137930446756 0.6137845452954461
Ni 3.6427307273421805 2.7878431803116355 0.7187461176287165 1.338847206742294 0.722863082692368 1.798112051588884
Ni 6.491872849563114 1.1103756661809194 3.326605980960207 -1.0277087572237074 0.06370550857876126 2.321630307097905
Ni 8.613806460447288 5.668856293544964 11.78250937672594 0.9290545004839031 0.9700026607614908 -0.058112330761699915
Ni 8.86786405420684 3.6235486823288907 8.67737566473007 -0.8133561437776186 -0.05717207833561766 0.6320244653422405
Ni 2.2189306636826114 8.864928690417882 0.6306889196103233 1.1754556577251047 1.358691495161731 -1.1317273635992187
Ni 3.2207071587979756 6.55732403075616 0.6812180489344353 -0.7425392209650566 -0.34307952120155755 0.1329653713168484
Ni 4.114664769424596 8.209004931348428 7.543436272842026 -0.051098104227395864 0.9621479406037623 0.4256893228839895
Ni 0.7992596164920044 8.51332598543094 9.959941071248931 -1.5736141221786768 0.45316695947896796 -1.804006562696448
Ni 4.937987866597921 5.401394491090894 9.203456021767677 0.47009047470718396 1.5565630802336612 -0.1581963779694953
Ni 3.549802311694262 0.7964719498050852 2.346677509995573 0.028684255308569953 0.33207031457524744 -0.007013712313671793
Ni 6.368996291967085 6.992714651491224 3.9545174519221167 1.2351232487890664 -0.513766832549212 1.2472580843793872
Ni 7.519621740735213 2.9944983645298717 6.7778701738668286 0.5910058568380337 2.788961988113029 1.4443943339471899
Ni 0.9077361710954891 3.855340241271564 10.871143944135685 -0.12566395255942872 0.23485690404702778 0.634338715297714
Ni 5.139942753103458 6.645802955091068 6.307340647622674 -1.8361108994301603 2.243094161264214 -0.4594731042026538
Ni 1.8262700221539072 4.170641042184928 4.950026573783018 -0.32326942845416584 0.8007829350982983 -0.012359807116933554
Ni 1.4996829332545156 5.134313542799316 1.7788044465563728 0.29746480868623604 -1.3222592204766261 0.20082835370740898
Ni 4.518202977399094 2.7438405908549988 3.632207076593727 -0.6611134122883968 0.05067695752957724 -1.1028078523513911
Ni 0.6648088080066016 6.162694094533597 9.512701241497426 -2.5865824878684163 -2.768625333438206 -0.49878758553156033
Ni 2.636634788676608 7.007874504983566 9.719299762047584 3.74451787732157 1.509227271262175 -1.4268979769346393
Ni 3.666687383075485 8.538768901310554 11.527524728200127 -0.7940373888443486 0.14893937814760155 1.899136094112445
Ni 8.797889068693468 4.649142496288843 5.433158657155274 -0.2183609632745336 0.3152517003560119 -0.029575399664271643
Ni 4.981488843255179 5.126603568290342 4.238610505413375 -1.0811972160601508 -0.3221057471633678 0.05354193778219811
P 7.491419954459015 5.374279532546685 7.961160833913035 1.409607565285308 0.06651315323088546 2.0072496964929365
Ni 8.644441997713065 7.393122424032558 8.070034034193066 -0.056920881556760033 -0.34473094076205146 -1.703001803446596
P 6.3016872855911545 2.8854533154204245 4.775282323818609 0.754154950827114 1.0390923164703008 0.07024536657980805
Ni 3.211278695994833 5.817315103909321 11.66498985804476 2.1984119878654913 1.5723794784406275 -0.3786664171672317
P 7.335650602000005 4.17223877184221 13.264766838677584 -0.8480243845837654 -0.5843369294582904 0.019807521644230403
P 7.956749428016275 0.6304501890743226 1.9527869881957987 0.3996754153187311 -1.2912244626580083 -0.25622765641331996
P 3.5264866056490525 1.077640786458482 6.865697001562544 1.5476498369044311 -0.17860502353283433 -0.7301197642547813
Ni 0.1561214103311674 0.8272570419980846 7.97599371017319 -0.3085958856023911 -0.87585426231184 -0.821434807020695
Ni 6.423922893499086 7.873175162164183 1.8731708188958442 -0.6224265372411604 1.5930922855079466 -1.1141484741751908
Ni 1.725631631997015 2.529568323386933 1.7778114389961208 -0.048281974934839426 0.7248389754718162 0.11554409051660745
Ni 7.400516568260442 6.964512865215026 13.365360641030087 0.7258671596260144 0.5242134818038326 -2.3907726704215215
Ni 5.405853271529819 5.731195617556678 2.044284878452895 0.3469950542058798 1.0449724294001617 -0.6849169424658978
Ni 7.8645362750637675 3.6902074498908117 11.129976148615253 -0.8869519148868982 -1.5028198250739344 -0.8637240547072093
Ni 4.418660704100104 1.328112777615066 12.77103028916142 0.3266982516300567 -2.098466780228405 -0.9383546948389064
Ni 0.9998443569251636 4.721253980762533 7.360236131557716 1.9978505146662238 1.3590725326502335 -0.19013616410088544
Ni 5.771919145565521 3.4538270627464116 1.5628796435881303 1.6535142382394297 -0.051577100746343425 -0.0883788429557252
Ni 4.5538639317845755 4.750458992637488 13.471270610143415 -0.022847594022134845 0.35916845634362016 1.3569086922296953
Ni 1.363030601927394 9.317550639724207 11.935120426374045 0.07804969311557526 0.16767295000136284 1.3869949700921145
Ni 2.4993600859132195 2.005420104539528 4.722680790502989 -1.7411554316981819 -0.08891903172991138 0.16183731715619223
Ni 7.344020104448902 4.923636167060134 3.46430241004011 -0.14619961061893533 -1.2144790901761537 0.8758936001902077
Ni 7.744167781464634 9.134768509106044 6.402686093833525 -0.3812627171394982 -1.5602942651413194 0.24162687578100964
Ni 4.858203564118916 0.7910052992044455 8.86264263653034 0.11042605256375176 1.575736053617686 -0.7808116341826941
Ni 2.068103126210075 2.1578825281730034 12.863154266505148 -0.7449887109468137 -0.6769984589497696 -1.1787086174447634
Ni 2.2455625876792706 2.4525893369340843 7.7078612328281 0.12853201813584314 2.0168751353978425 0.7677044073767746
Ni 8.143414413266667 1.623980727115451 5.103507085616713 0.8987661339130069 0.6187863693854118 -2.2460938673224864
Ni 1.6258106849205929 7.350420312203942 2.0471264220701184 -1.3889878321524272 0.9146892329011667 1.261345929931021
Ni 0.7734246994988027 7.01931870811014 -0.2884264307303378 0.02595811462665852 -0.24126846400032637 0.738352950797851
Ni 3.201060657488964 1.5483672421720227 10.479251513320103 0.1128688576772895 1.1615285061210512 1.6023215174156986
Ni 2.609287601984538 6.158402518361132 3.766341125885448 1.4800879306940573 -0.45560102284175724 0.13314046344213198
Ni 8.309466828112948 8.739497623195387 4.024915092664594 -2.0140687762972993 -0.7900640060188974 -2.071361182260865
Ni 9.158325732425029 1.9863309507853826 12.138387866371291 -0.003859225845090127 0.9541374115944599 0.2289325681427928
Ni 5.786391603740197 4.795984998744091 11.654670568066425 0.675871544434178 0.16193193375252757 -1.5241604955332395
P 1.3635415038526872 6.891927635319701 11.345792268810298 -0.672434493728171 0.5001924362988869 1.20930577350533
Ni 6.397040163102738 5.050107616385044 6.288061995699874 2.0450551973764846 -2.3034551788507747 -1.5841183641441106
P 5.862525279734833 6.985831409188634 11.426332706138737 -0.4023123387209458 0.271473526828797 -0.15770658281727032
Ni 8.516818696774765 3.057608685992483 1.7688929492056802 -0.5569819344841053 -0.3952420621377258 0.9018144338210276
P 3.511856232333831 5.031157799519615 7.3460423471604726 -0.2208852723582841 0.12924884169720968 0.5413246875628225
P 4.518295868658237 8.979175650039407 0.6512401817833995 -1.999556955834369 -1.6488196609772376 0.1664791868035778
P 8.254967526373008 6.830554380403087 5.355405886513754 0.33507053485415195 0.2568917723598802 0.22937736898969527
Ni 2.86067921660665 7.297648787884087 5.889956068560133 -0.2842138572136008 -0.8350336287510522 -1.9246008140424533
