# total energy = -340893.1358349916 ev
CRYSTAL
PRIMVEC
9.06544472890249 0.00000000000000 0.00000000000000

0.00000000000000 9.06544472890249 0.00000000000000

0.00000000000000 0.00000000000000 13.26819470994844

PRIMCOORD
 96 1
Ni 6.445603794250101 1.625035377579572 11.432912031045388 0.7317452156733463 1.2496630942764544 0.3321024533647635
Ni 4.781668592925752 0.4452710796555031 5.893772036852728 -0.4637563049590401 0.394564833565043 -0.0029611395108529647
Ni 2.719352418759576 1.6328044637947374 4.802290666814034 0.5999504676258313 -1.4613888116226572 -0.3084452189571398
Ni 3.3001845341526495 4.152862143517912 4.994042049211418 0.7161121371217797 1.1327987422865264 -0.9392638369167373
Ni 5.337933352842631 4.589825649535635 2.737560364690918 -0.5576797318820783 0.10972876938641102 0.13089537616169714
Ni 7.484331527762202 6.177864946783713 2.634692042626336 -1.1500138206132322 -0.11557854329896869 -0.2691849879049364
Ni 5.1096835830346565 4.186150456915914 11.883924256908669 0.27948174184525415 0.6700935042998201 -1.3267249695574634
Ni 5.459510033392904 7.793136840286583 12.819186255542208 -0.18016516893110263 0.6311232936842098 -0.7366141137298733
Ni 1.8608547938165594 6.510122565070794 0.3989484696878809 1.235858327182878 0.39076011510697223 -0.44420357963809304
Ni 2.6989370370133074 1.893970863762883 0.309243173509437 -0.2051920299927434 -0.8470003141946251 -0.31100012416850953
Ni 0.5882530885269526 0.02783726142463065 4.417579478224074 0.8684867662031752 -0.5984358307535177 1.1704281226035262
Ni 8.770174221763442 2.3029674724949754 1.2559675205799137 -0.30170198669603526 0.13944069462854694 0.5601287076432031
Ni 7.0079967948687925 0.7362301574970671 4.760681181611016 -0.21318841793465867 -0.6115096332183404 0.6452052256985726
Ni 0.5508771660572844 7.343844329306638 2.447371849659493 1.5955291770842135 0.4219540242112733 -0.5092527467289423
Ni 7.698130978518866 3.907596533773104 3.7709539904678913 0.8596961644947387 0.029119285963459526 0.8786043142531512
Ni 7.71548223991423 3.873963733471746 12.781570098784671 -1.5433393824545356 -0.46926926435746924 -0.8770307991184444
Ni 8.112285825356476 8.986901811198635 6.942967639504444 -0.5268354928077121 0.04680847571310648 -0.06286475784502077
Ni 6.644191428590141 0.7329684104489731 0.4724474701523793 0.5741702733379337 -0.38537005443965244 0.3229768369144115
Ni 1.8141858838566158 6.6951573593972125 8.873065207440087 0.6349938323832096 -1.0451701472332646 0.9177208206386389
Ni 0.08807532919887943 4.976639114780551 1.3552268890595978 -0.1111027669158022 -0.24112808176772024 0.5692828633386454
Ni 6.404038729726726 1.9172327951842534 6.897550667474857 1.0398646758599512 0.6000630819442956 1.0345360645581863
Ni 3.464559179722521 4.258973175196455 0.4613740292984417 0.12665408438683995 0.7746486999050917 0.2785890548276557
Ni 6.129990332662023 5.808901342399544 4.646933419211754 -0.2769926568748133 -0.7976677865080842 1.63683137826711
Ni 5.1219763262175775 2.8685333788024727 9.415362836514838 0.8432593590949541 -0.10735281295506673 0.5023223381576961
P 0.10036807238180162 5.849224440981873 12.563334925875054 0.12738427768464514 -0.6810620874961819 -0.7948416299131988
P 4.083692799501911 6.138629701580404 12.660338811682239 -0.5049242945569175 -0.30512875298939707 0.17805223635315787
P 2.554660482620825 8.332449218380406 1.5516089006736746 -1.284273228151156 0.1987035940549223 -0.45619186234822084
P 6.513875659228411 7.87485275994061 5.931599418474689 -0.19450446837191018 -0.4478871991372674 0.008954895200442643
P 4.614565248463507 1.0847258005549811 12.688772579376366 0.5859235572191199 0.13110337840744518 -0.685339117604981
P 4.004524269843755 6.092522849199621 8.001132593266178 -0.9090649447358536 -0.042341698191004494 0.4626191060308032
P 4.828011146871989 1.1337426607246421 3.7042939615794963 0.1954110393465796 -0.4429555661636049 0.721197779174803
P 0.32007456698654274 5.428832568104549 3.515262212629662 -0.305360409384229 0.3259438899625354 0.7009747672597089
Ni 1.496514566293224 1.0928393736735027 2.359031809471719 0.7168017069896364 0.1315782611613347 0.8846402360345861
Ni 1.8086740934029162 6.554525113824446 4.557319684026044 1.3863131135337416 0.7288326700122415 1.2478620365119735
Ni 5.706289572423514 5.427010413694691 9.501235262621202 0.8745010907180554 0.34573932742190777 -0.08425659325723554
Ni 8.632379460420951 2.561749660474103 10.325043962940729 0.007865004570373552 -0.3396985205444666 0.8726720079291164
Ni 2.1590716667851493 5.271683082060334 6.898758184725567 1.0833132339618892 -0.16742355299471812 0.589482478214972
Ni 0.6076612993531458 -0.2874897321069738 8.845892443121143 -1.0330610226745565 0.9701296732576584 0.32631824258281866
Ni 1.378781634348821 1.1128468104026394 11.369197365180689 -0.5377495686170545 0.07338211243657686 -0.032739656324866195
Ni 4.215522498149444 6.846622811536051 1.7186687310007593 0.02076114380675134 0.14545321937121403 0.22202144284525635
Ni 5.578548389392131 7.62340451682504 8.233353027907576 -0.21271610628393045 0.6989909040604607 -0.038446991122288623
Ni 5.318442646468529 2.8414639605545338 4.995315744209353 -0.40282450247067403 0.40421778327377483 -0.9576775635372347
Ni 0.8678386592908658 7.397439239113006 6.718854432170191 -0.16415645220767214 0.20581038030303264 -0.017853483241653124
Ni 5.255047990806159 4.37880022489547 7.328714101893439 -0.9460435788427319 -0.6708136702952964 -0.6191555797993724
Ni 7.937857601475499 7.095451141097149 9.242810253168185 -0.08853208070413784 0.03884962587734599 0.18475021719862375
Ni 4.650999271215841 0.4797134241797481 10.456903577556185 -0.9525867792778886 -1.194843061112781 -0.894473162964608
Ni 8.426394423103579 7.0880174763405135 4.856531036291955 -1.2903315185300939 0.21958223727614443 -0.12958951286608003
Ni 7.023716276195627 5.977926561164724 7.084964234523398 0.9914888556597248 0.2262524502074684 -0.4481556223073056
Ni 2.3333095163247988 5.305379340475468 2.5570999938232766 0.6491919782604626 -0.3085508912970686 0.1014297626024124
Ni 2.5558843176722217 5.1867489294933735 11.433694378933799 -0.5573241483148724 0.5996023402577931 0.8787842914744413
Ni 1.331595994033843 3.2125851408070916 3.799705955275381 -1.7467275264693207 0.750635624819946 -0.08639600819774151
Ni 3.8166973185111854 2.798557210197033 2.731350534985681 -0.3092985680963706 0.03936461784055156 -0.12641060091746617
Ni 0.9754690595221063 3.3773405350596195 8.203048152401536 -0.2585503910092257 0.5342073597917509 -0.030388125373554113
Ni 3.5954007448841105 2.5841413091922574 6.866887706898222 0.6193070177755722 0.03007419367756111 0.9641482588632427
Ni 4.281917816048944 7.254649417671851 6.032650118851826 -0.06930100038866774 -2.0036897470558204 -0.6249112513362269
Ni 1.0608111571061987 7.439792997336172 11.292361374476048 -0.6196733999760554 -0.9097699412226783 0.3991056588581901
P 0.027081203326211983 5.707241444130156 7.906583629917649 0.2601424180866939 -0.7142678848241891 0.5449424868210679
P 8.584686155195765 1.6672622195751852 8.322249686407615 -0.5243222394675551 -0.6349894615078354 -1.0103268143018342
P 1.6721938215600745 3.4202382199722945 10.666221978935772 -0.8684703111429432 -1.1854107120552877 -1.2826711737713588
P 3.988650675954893 6.122330031784759 4.005614842856223 0.1996533595627013 -0.17880762646194365 -0.6824576822921279
P 6.827014254379221 3.8392430797913684 10.454634496716448 0.2868358682174802 0.08037936969001641 1.4046728469878518
P 6.082079456761031 7.615735150502952 10.625860805485177 0.629550035659819 0.6091089941966478 -1.5530051876790736
P 2.476824573351968 8.55205961927 5.720900349848231 -0.4476493720948484 0.5967874965168174 -0.42009357396376684
P 7.132628530325144 3.9711724983319776 1.6754682602309234 -0.632656956719917 -0.08273629995796718 -1.0500997233243978
Ni 5.433428748630908 2.8828749125158817 0.5530410877370511 0.1299296698143182 -0.2599614124241394 0.7064792420177058
Ni 1.326881962724758 1.0093466268337437 6.863782792045603 0.08784019684343582 0.7663790036971317 0.2835890791454084
Ni 6.715899097157188 0.5594857124632601 9.11353791650583 0.929048072726 0.18448410802143067 0.35932015143013596
Ni 2.7180923219288786 1.9170152245084495 9.220744960463737 -0.19100262586623878 -1.497604599421582 -0.895033149233136
Ni 6.639459266391406 1.9910708432852129 2.775799317507942 -0.8656238428330834 0.20856608867129886 -1.5170341689011033
Ni 3.987444971793147 6.806399432846798 10.317428082743108 -0.23370067895539753 0.9447803958595923 -0.12251383696622127
Ni 7.944729208652974 7.390395388483854 0.3069169803672999 0.7630527675373763 0.16601124602822376 0.40969526144857826
Ni 7.490160608784782 3.795429784951351 8.35905539239778 0.5332293121491978 -0.019556581975688898 -0.46943638606295285
Ni 3.1313043625046726 8.477831757041558 12.053545075398862 -0.07595398692881113 0.06726674356745835 1.4583963046532367
Ni 0.17349357651950334 4.9913976589559175 10.208841278082815 -0.05472413101575737 0.6789234438866243 0.06798202446692808
Ni 8.534481721754007 2.2839481692517816 5.791129444364293 0.8482827804514745 1.2053496170710596 -0.06736573103916786
Ni 3.454097656394282 2.534752765784765 11.336066790522645 1.2790580024988036 0.12937276886958365 1.0421012784999537
Ni 0.8958817063130278 3.6741613295251345 12.862970540958784 2.347237209032732 -0.43311749702726055 -1.3326012258325823
Ni 3.154149283464085 8.600867974208683 7.826350817037018 0.573074983391226 0.2628032527483087 1.0164858919246946
Ni 5.688512235121368 7.962452153286169 3.805106240757731 -0.4662579883349712 0.2249177905564449 -0.5959156354348253
Ni 3.305569408378797 8.512896897625293 3.6070117666161807 -0.37958867187118495 -0.2834592384357634 0.42438937312564323
Ni 3.3629536741220845 4.334669639486573 9.327049992661538 -0.7942716163423418 0.8386516851196137 -0.8474284028709792
Ni 7.22724457796538 6.003826537030217 11.605146417278675 -0.4068264245412154 -0.4927159254161837 -0.7235734784958313
Ni 0.8903871402044959 0.031151588052710556 0.2871506844705127 -0.26027971499550656 -0.8897364196105709 -0.5744973176600493
Ni 4.4203924857533226 0.6060159211173786 1.5701975952876732 -0.10319739602579646 -1.0873164415840113 0.3256968069487359
Ni 5.985441814924784 5.534934534338267 0.5271719343839634 0.18540713405633233 0.3257446294675358 0.06706902573435546
Ni 8.040850120134186 8.52263318536752 11.441920363568153 -0.8685273896331236 0.7768994436124814 -0.32230526476868365
Ni 0.20779540664895832 4.866639007272013 5.661631378125792 -1.0513485081298346 -0.6660072500455885 0.37436778979187785
Ni 7.807278934213839 8.729388785495031 2.6824841612001173 0.588838931093702 0.9365978600487999 0.04713552003522205
P 8.646122674775901 1.6319613774259973 3.5130203281243992 0.20148552767543362 0.7270676076920188 0.05665631504146371
P 1.9407394936159033 3.319231033730319 1.734497904209978 -0.868440229235956 -0.31681133153364793 -1.403475484245641
P 4.812998770241518 1.2247778576589374 8.135765327453651 -0.8951784165617486 -1.5499031517149824 0.2973820191644427
P 8.408562693132483 1.375291438091133 12.561291574611463 0.28961445940388186 0.33917272994798364 -0.9955067185698662
P 6.276243154026391 7.826361695570809 1.59076346341804 -0.8714119102697702 -0.44225982564816085 0.1240626695105799
P 1.6935066823440346 3.1393454120645927 6.069045160191411 -0.9860080350508115 0.20136957092285965 0.2545893494789486
P 6.899855103549413 4.00813231688417 5.896983017409801 0.8227350138893572 0.16236773573836552 0.5528437439460155
P 2.342356830260312 8.552313451725105 10.000649711494995 1.4433316970106305 1.1064760452315976 0.1392200939773086
