# total energy = -340871.20954664645 ev
CRYSTAL
PRIMVEC
9.28905789002051 0.00000000000000 0.00000000000000

0.00000000000000 9.28905789002051 0.00000000000000

0.00000000000000 0.00000000000000 13.59547517440705

PRIMCOORD
 96 1
Ni 7.546681239876534 2.327326949061105 11.169756489824652 -1.3048610796048365 1.4459935601135097 0.4835702543611737
Ni 1.54219721831995 7.4999758580094875 0.6389338969077192 0.1830777145922073 0.32898241967854314 0.3461838711584941
Ni 5.999793047443049 5.795117951170473 5.022304581968204 -0.6381030674361526 0.09427772493866343 1.3010381063143206
Ni 6.217844386732439 4.675582145008935 7.981631146400881 1.4093635675953018 0.8430642123650127 0.24602988994471173
Ni 4.918676783724253 3.295367513999559 4.972218912022116 1.8905200703086602 0.008310576748224396 -0.5848426654501154
Ni 0.5574419230450671 4.290216299317547 4.259244723299029 -0.4041874442564717 -0.8709254575516548 -0.23020166466320355
Ni 0.39972115538457376 7.082534896250694 9.968963722959021 0.23995385895396093 0.0018329394436807144 -1.7759756247011609
Ni 1.89231109022744 8.785098405850018 11.047805096459195 0.5577208695326588 -1.395171849475952 -0.1572119025690389
Ni 4.195486489397073 4.229846713646517 10.75815370079924 1.1305868222368722 -0.38407807510110625 0.3662958114170207
Ni 8.350621312360087 1.2747373813871976 0.222552816626855 1.2989555127536792 1.4466833870916829 1.2411794822854754
Ni 8.096305492002886 6.861065183745895 11.895252328260701 0.14485620921716344 0.7201431126580436 1.122530527591299
Ni 6.783705911631979 4.883842817534629 11.301510625728753 0.7248379470305517 -1.7062786744256548 0.2933721266741012
Ni 1.493011658060202 2.998154825412043 8.364643144883615 0.03839993993443709 -0.275088497873565 -0.04574018234959219
Ni 4.541578199341868 5.132603781416792 13.287551094367702 1.0650463173319014 -1.8420280362455437 -4.283460694915777
Ni 1.4774246193225518 6.278947807957864 4.7868037478822245 0.5949193329598269 1.4931984999340864 0.6225993153735987
Ni 7.740311646602587 3.940957020713909 13.45102271761966 -0.6066739023925939 -1.5615147678119816 -0.9326067366115358
Ni 0.9902042564927048 2.028553698788294 4.934844388565064 0.7618448632722041 -0.7866130713558195 0.24699585340240687
Ni 3.155028431014805 7.418120681992699 2.9826708952143144 -2.5179605158246443 0.8202803817012777 -1.3767511808769193
Ni 8.91047281695971 0.48299662831613455 11.574276372391509 -0.228638948161774 -1.8359856867062057 0.0240225881668425
Ni 7.29722359667058 6.494203140894434 9.588901929186106 -0.2529911517538933 0.4763500824636505 -1.1838215131912968
Ni 7.986248736958976 2.3647525623352363 4.40996432820829 -0.6573675720927196 0.6588549552715234 -0.18882310171641675
Ni 5.416941836100623 0.19358674815509447 1.4243571618706323 -0.7604369271810839 -1.037033119948427 0.5973235715259454
Ni 2.0468902985905117 5.455082706813847 2.1442647032241022 -1.1910409137578715 -0.41477910372938886 -0.09526271455975206
Ni 5.622527260022953 3.996793546251462 1.7633334536550935 2.2059489196724846 1.4289186069090938 -0.7590325906343895
P 5.342852312279708 1.1128848408837324 7.041069471804331 -0.6362328469966333 -0.7231878130216384 0.8249312502097276
P 0.36581516605424214 2.618771132847619 12.303809235282495 -0.4613739207697925 -0.6216017273470198 -0.7840129147288111
P 7.840131860115571 3.5876755801475757 9.162860228948654 -0.3500932335152293 1.193415584637635 0.7466663557595528
P 1.0298499545453212 6.423949997883201 11.799974463938845 1.1479885626530875 0.1902978864897303 1.3653182564496291
P 3.8763330466389196 6.676129334980773 4.933526271284448 -1.415700565556923 1.921627590346742 2.6384676067734816
P 6.657671977429097 8.854970697497578 3.6715669176013686 1.5725928800030142 0.8376196443106736 0.18638363903698868
P 0.7026159605369408 2.1430227562162214 2.6578882835199185 0.9529896711432619 0.6439217310004588 0.8987103409744072
P 0.35815355130405513 7.961929984029794 6.098671350510266 1.2308701299396674 -1.4855713224061318 0.4865424496156202
Ni 4.623061813052634 6.959807866571413 9.179950237214165 0.23895729936864654 -1.2284437798863617 -0.29832484269368625
Ni 7.092697125320413 5.893851344938342 2.5815220116688486 0.04471071264381332 -1.2967757314935409 0.27403357424648933
Ni 4.998107515694244 2.1548291484900908 2.9432165517492996 0.49995075260172606 -1.5101045316608057 -0.2287975852268253
Ni 3.3862980993409515 7.2857144542415275 12.541036905185715 -0.2505807425401878 0.15291224675242052 -0.7606636984799093
Ni 7.2408111495586915 2.321354084991791 6.936194153117909 1.2948268352972863 0.9107173927376121 -1.263126675980528
Ni 6.011961712965291 2.259358914231912 8.852992128218007 0.36063655624871443 -0.2542232243887815 2.264316818088416
Ni 2.6655229600029187 2.7526078754769765 12.237423126971194 0.3208880727061828 1.3410609265641613 0.049690682356907975
Ni 4.85842795580268 6.365085239551564 1.3450053868906706 -0.7282379738510362 0.9495886158815129 3.4663175732919016
Ni 3.085063248790741 4.24449555756146 5.5270636145480845 -2.4212219880503145 0.6151382311098631 -0.08284582895263796
Ni 3.6768969788812638 8.348809946118225 6.687885566343329 0.46080982073620635 -0.49179701314634006 1.5728731302475945
Ni 0.12532146348108358 5.480478990430496 0.09507350505354491 -2.2760454193792548 0.7728527843469335 1.015585234487296
Ni 2.8386524164941713 0.45679684121271263 2.6843175103473094 -0.6335347313391799 0.6247626415735047 -0.9824051481909015
Ni 1.8860967106592113 6.60931314330025 7.74971960419108 -1.201523301346434 0.2325277416932189 -0.5276063095354655
Ni 3.8137155090164527 0.6634932364300512 12.256687703632704 0.7626452476863124 -0.4045296580872388 -0.1737885759807975
Ni 5.930691747580487 8.26735419958041 5.842274781239338 0.5953273670315231 -1.067573197518813 -0.37083278005542586
Ni 8.177659058906544 6.890130645134517 4.453225327498507 0.5540488199977103 0.8552679535200561 0.9206806745979111
Ni 8.604305476797048 0.07950318661966586 5.0378572511925475 -1.0553087783291633 0.8083368361861564 -0.30981021762546646
Ni 8.637866842088544 1.5802359093990184 9.211300806784825 0.8732623332149476 -0.3365124095070011 -1.4904633603911106
Ni 4.6444452237642375 3.217645968637272 7.232085937707514 -0.9526767678885335 -0.5990279558115619 -0.6831583079035783
Ni 2.175618059512058 5.150708154777745 10.289028422272695 -0.17483090120238276 0.3565557013111214 -0.7343965372532643
Ni 3.578247186632251 1.9742777349360359 0.8372719980510783 -0.2672561463133397 0.11970773497599384 0.21628582591305978
Ni 2.893485723805463 3.152585408852706 3.2291430352913775 -1.6436301463564984 -0.43531141935478573 0.03337317614380704
Ni 0.10377549426059532 5.038199088514087 8.439921668083803 -0.33065826471906923 -0.87118745296379 1.3205594641767
Ni 1.554403040072794 0.8114967208822872 13.319446002716685 -0.22858495499538697 -1.3848434709667505 0.0018748484252096745
P 5.217069182633391 6.18078104670668 11.064038653609323 -0.6278875603557316 1.3340456715885929 1.495801227664256
P -0.016099794719961313 5.91467741219091 2.8366682737800106 0.808684192223246 -0.018461549139297238 -0.15228926845644095
P 3.6144373552388567 1.3209039979105115 4.515057010843736 -0.5911518954975948 0.6259165526722897 0.001760434334532452
P 1.4474952755724275 4.5756969080923975 6.80291754066488 -0.9554836412097093 0.33475017540025576 -0.5046103628609245
P 3.6073776714244263 4.455533658324673 8.608898915805254 -0.7895215032518661 -0.9221130361690635 1.7243231906321916
P 3.4646420115658265 8.603859602029821 0.7710047896777042 0.12228012368886038 0.1556198754915707 -0.38055257844635104
P 5.441214143741552 1.208970853221189 10.708013225413014 -0.26770634647688085 0.332821333808659 1.2759084011262283
P 0.21529713369599776 1.5743930921368121 7.061733909453781 -0.5066101668997727 0.929581833742283 -1.4228729149356463
Ni 5.359479725474221 2.7268214514390046 12.934585481761488 0.1252955134764165 0.15365452423508377 -1.0178213229066666
Ni 1.4475788770912827 1.623281402551742 10.543222555974674 0.05476989665202825 1.193009607448468 -0.5966705113229789
Ni 8.326720567025179 6.391466163279172 7.018174731412981 -1.0710673267150006 1.2125420210544409 -0.7984206055137087
Ni 5.754004582009067 1.073731462886596 4.967093210010534 1.0087432718647982 0.6498383535952098 -0.5520392457668493
Ni 3.5844801443157808 2.139660117346716 9.2659139634298 -0.03411468229552189 0.05923436018128509 0.7620310111410812
Ni 2.2042097789605006 5.2994817021092135 13.250856529930669 2.0068678876734856 -1.2654473536939046 -0.7534376130451154
Ni 6.149997109652704 8.39564537479238 10.845612965296615 0.5635364477731714 -0.552614401544029 0.4432368448494496
Ni 0.6379046693200365 8.428714420028395 2.962780236067157 1.001514872437159 -1.876439680956194 0.11380448211768142
Ni 7.334547030310555 8.021333507705165 1.6752341730855937 0.15018842006335423 0.19604584471710107 -0.5426830013629299
Ni 6.525256460620276 0.5337780486802498 12.86697507565184 -1.2935623667625658 -0.17867290065629227 -1.4405788168558415
Ni 2.4243790233942204 8.767811469562314 4.892998112755028 -1.5880891758664004 -0.10122664545267082 -0.21696382581669083
Ni 1.2805616205341026 0.11580761063537369 8.196725778640095 -0.5326508139379085 -0.43808872498960677 0.44760592045142267
Ni 5.568251296170696 7.634676483000348 13.32889483215884 1.332446188311957 0.5129343093455876 -1.6929973839357164
Ni 7.419876313888656 0.057890336184093526 7.423197151998734 0.6384812767111778 -1.0667507016175177 0.8607400323782209
Ni 7.65061650592872 4.374356583516375 5.682079408620734 1.287412545111086 -0.18944582290208017 0.8380377056846987
Ni 4.083999219474977 5.331213123043548 3.488694168540438 0.26163442925118807 -3.302904941228789 -1.7348035213382251
Ni 5.290796433205934 7.3300882826382825 3.42959439705024 1.9284415279447822 1.5364017747944378 -0.2362123896336577
Ni 2.8260192980894008 1.4468636196521891 6.539314520468643 0.2300502266870038 0.44068296807934426 0.4349812897088767
Ni 1.055701401986847 3.030378566401857 0.6742638987758827 0.9159272190733257 0.9512930001671295 0.6728618110735768
Ni 0.06357709727777014 4.5147606899046835 11.14983889241031 -1.3221579190120714 -0.5176011186936376 -0.012495561363849448
Ni 4.9042230100199715 -0.043853641168322965 8.904111670280601 -0.015450530227115325 0.7420975054419477 -0.9173053303677751
Ni 4.06565333061511 5.825948333512702 7.051727736552591 0.9360219329406718 0.454648686230817 -0.8946611106056979
Ni 8.401153785979167 3.5710110107224597 2.1526397176018524 -0.6367195568250648 0.27611822468965996 0.7269357100998448
Ni 8.436554384685474 0.7313451580386118 2.6582552012971155 -1.6495822501748754 0.38342475778782353 -0.577981676664224
P 6.601408155239618 4.0750631460151325 3.8024367352171353 0.22453855284015525 -0.8168276472659868 -0.30383471676832186
P 3.6180136424343248 4.13080678097618 1.2806071369165906 -2.350094733086185 -0.21986145907946006 0.06164785471878415
P 6.872360677848984 5.767696652986002 0.4643618497633337 -0.48952724327555697 1.1053676426587673 -0.9843561012696854
P 2.867690010709841 8.16100377853908 8.825529958179873 0.5598913948214164 0.6874013994506485 1.3777829645755433
P 8.928874440165481 8.43025640359839 0.262191083433351 0.23684745211449534 0.8094565516128963 -0.5783200338402492
P 6.369859815183955 2.0567181215848107 1.1898010249477156 1.3238851861158232 -0.0506486753948031 -1.1901932210455954
P 6.128892370670617 6.859290973734636 7.450932420331793 0.6408482342814577 -0.5671791867320812 0.6293572029227226
P 8.401460324881635 8.738727430058391 9.511067986226246 -1.2037138812398496 -0.46561675520654655 0.7654966010921784
