# total energy = -381166.37267636025 ev
CRYSTAL
PRIMVEC
9.34326657933660 0.00000000000000 0.00000000000000
0.00000000000000 9.34326657933660 0.00000000000000
0.00000000000000 0.00000000000000 13.67481507071569
PRIMCOORD
 96 1
Ni 6.36146581588857 4.0204730052647495 6.51248009903245 0.46928726207959826 -0.4466484416341598 -0.17689626837184372
Ni 4.09339720079513 0.26899077571819907 5.018424503963182 1.1411383725004736 0.7533879907541025 0.10487041285284521
Ni 0.8082317994873961 7.634756839935296 8.17866108804648 0.04791636406530458 -0.2085126097255441 0.7085001291024766
Ni 4.918865458439405 6.903506082320278 2.9130501895450167 -0.0022381453018993714 -0.45685829228762614 1.2045209505221772
Ni 2.171935745418605 4.230976800946936 8.697797270823715 -0.359304210590536 -1.3002845159777479 2.181595944749417
Ni 2.988808197824194 0.6988922225246446 2.064295708643807 0.9054484310291889 -1.2925547514336577 1.198432321125936
Ni 6.254195772469697 2.9374856345892963 13.127549264935313 1.2160983709471314 -0.937783909937101 -1.5481985103190496
Ni 4.726898703619778 2.0512861442803856 1.1139958037473596 0.7733145544747004 -2.241381549448482 0.767593335720207
Ni 5.468492457320911 2.472499287509163 4.941585479742574 -1.5837113585136788 -0.107093388646093 -0.7246440858521908
Ni 6.521357136594706 4.987725333014538 4.193149651936777 -0.6786861310648377 -1.1106484314417324 0.10061832244471057
Ni 2.708043037582307 1.4636133639511275 8.755191088671763 1.082700797188871 0.2686666535076212 0.5137503774889797
Ni 0.9869759634659484 8.805589602843503 10.521293641952246 0.997108258729031 0.017512297852150485 0.12983685299019573
Ni -0.09229185279046047 8.653107492522452 3.408720758347292 0.4099891385399133 -1.116128737830013 -3.04637903684876
Ni 6.937272647681814 5.872784944802665 2.049143733257309 0.6291317171754779 1.3557786923903101 -0.5406441165560303
Ni 7.410172741541478 4.682097740446405 8.535833613593729 -1.6304794679071533 -2.4970145097005965 1.3019853007189384
Ni 2.6433876329608803 8.056156848495348 6.324068457140344 0.5585793608782121 -1.7725871678449021 -1.43943596150065
Ni 6.506819013821449 8.673260918500546 4.211897850623678 -0.06245235289795051 1.4939811437363817 -0.38194663058040024
Ni 8.68503343437092 4.757712796747158 5.471895275003444 -0.18534259936698402 -0.34856779800963844 0.2508388812975809
Ni 4.4058547212213925 6.084746290068804 10.131506575810775 0.2770772461688196 1.2039864181749458 -0.9074310086768566
Ni 0.4080447433337717 5.756872379812288 1.501562909753273 -1.636019680999092 -1.2008332172579448 0.09705940144885866
Ni 6.692310884912371 7.131519159543008 8.995225212655464 -0.4890958121650931 1.0215244827898664 0.8296016591022036
Ni 1.9505377009230391 -0.00480243901378802 4.203747719200083 -0.5549461350009991 1.0218060185860274 0.7179368490353443
Ni 4.0046735415053805 3.6760708564568896 7.4511878131032026 0.9852984105782967 -0.9568725511374359 -0.8030856150895459
Ni 1.4946049791432185 5.920416917744866 10.369216095073407 -0.11326532178475977 0.5978187659948091 -1.1767041854202251
P 1.6415558756585062 0.1997730540336742 12.465647034736712 -0.851818818629191 -0.41385170681911304 -0.32376256604050047
Ni 2.00199106988983 7.579883835406157 2.5586946588667505 -0.5739702415119856 -0.6384437386050231 0.7482727810147242
P 2.40129425302652 6.348684227229305 4.8069303220252335 0.117490672720017 -0.06488744470200437 0.24802326622565674
Ni 8.093716780081785 6.3460681125914435 7.259043536218862 -0.7203524004553723 1.7503083018420436 -1.499360148660108
P 0.987387067194755 2.3148129777120805 4.77163519825386 -0.5572907239737757 -1.0107183933132982 0.9682203720500875
P 3.8279363111847307 1.5035932015775844 6.8367241502289335 0.4170990101118171 0.004087282695496187 -0.1726287513447414
P 2.809623031663831 7.289784751867044 9.062791979138169 -0.5614726232656072 0.12646896495922735 0.2639322241464293
Ni 2.828225475392337 3.3115806845368807 1.5456780771608634 -0.4139578933796742 -0.6999776934537623 -0.7818398183368921
Ni 2.562297422453748 5.588357224067773 0.6573343071755633 2.0226724588059097 1.2776284691411286 0.8040505501059766
Ni 8.704616921088626 0.2930076424204211 1.000556401416417 -0.10046122804155601 2.3186943643980324 -0.42098497542978464
Ni 5.640791636023762 8.877252457387772 11.406942813860548 0.0819585412516782 0.10652208952365524 -1.9723593123736545
Ni 2.0424287275779127 2.7290467008177064 11.07363299111722 -1.938553162457487 -0.7264299741080199 -2.7842519842318696
Ni 2.458288179065639 7.411835842989833 12.132706271022652 0.5331313531187528 1.4345081851817294 -0.5203606837166458
Ni 4.958144551073579 7.34815213809104 5.429872064979486 -1.3000420609496384 -0.7100538467428417 -0.40191895993726906
Ni 7.316702702837324 6.840280197483112 5.175124164811129 0.768842891856592 -0.42094126667604276 -0.43088140860789015
Ni 4.713276220969773 7.4297281984594905 12.936813018322136 0.03883239948616538 -1.7384670862327416 1.4116855308602592
Ni 1.670267733809033 1.4731154660465018 0.497624245840764 -1.1840333720917866 0.5747603415134488 -1.5496861506081698
Ni 0.3174935411041453 6.2338367946272 3.8296050185930235 -0.4254278416924867 -0.25584327649070776 -0.4341631646829555
Ni 7.689872769395093 2.450794879281479 5.319858838497486 2.2271322386183194 0.31335551177456356 -0.661783441772228
Ni 6.457841610494063 6.600858991785994 11.371620594616141 -0.03397070051848988 0.16565000603406307 0.9693061489150984
Ni 0.3040616610920409 7.353683351896804 5.7931990002123035 0.9324977218374972 0.33145967757444206 0.3681943139913143
Ni 3.1923792897160492 4.976821740934595 11.681547024130273 -0.27784909133783764 -0.28841092601408397 0.8630072311458428
Ni 8.834572415724379 6.840046615819017 11.27171211092288 0.014692311904852116 -0.12729557462558075 0.619646660503178
Ni 4.627448974314798 1.8857328040365924 10.598118651273008 0.3765529703686547 0.9768397382879822 0.7040428646620713
Ni 9.074460784749686 3.1837647979442343 7.773270766743481 -1.414460522502235 -0.5605850784543313 0.0820071351014265
Ni 5.93023669090341 0.3662149389276842 9.19510945156125 0.728099648500959 -2.0718903152914576 -0.6578478541632476
Ni 0.7134406228911219 5.224885468203217 7.296867882249053 0.8177535015143659 0.44732798419968767 0.021563842213704797
Ni 3.0991241461428616 2.5818902524380154 3.832148255751687 0.1243992269143922 -0.40534675467189546 0.11510854564108562
Ni 4.720535939089837 4.151876706217891 0.5164864323797431 -1.1138360851410947 2.9337729459145536 -0.8160388328161042
Ni 5.4170764614203755 5.9120640374368385 7.33279180786017 0.9937393422567982 -1.0937334008539485 0.23102133235102146
Ni 8.04299218590697 9.063790774333837 10.029109045904919 -0.29261339413120574 -0.30516860508839705 0.7928022308856669
Ni 8.452386096932551 4.096153464431448 3.1859174865605318 1.2712264222695269 -0.40432962626129076 -0.383745631462352
P 6.484591382666193 8.038582164088862 6.827151039307674 0.6590783841362391 0.5155750894025443 0.3445393935765356
Ni 0.4701447645500014 1.4382650817635652 9.315858091325044 -0.26571939795383914 0.3344442141240627 -0.27981187149116327
P 8.243386567167136 7.79035025802209 1.8134037745863254 -0.6963290409575814 -1.9265875054551789 1.08600620741302
Ni 7.54828490788742 2.1801858497944315 9.716708519404698 0.1975301425721114 0.011069370440284162 0.2396890353283485
P 8.774364405987317 2.9642914663608098 1.1094446986041375 -0.22290384545020964 0.11693685709907603 0.0016521908914423158
P 5.589571848721066 1.0717380777326506 3.177452487053738 -1.0938213325820645 1.8363266149853923 1.1272749842548198
P 1.1886129991790986 5.884510744340221 12.738104162350078 -2.016044669076747 -0.1002480835894854 -0.58890680821716
Ni 7.161781999943123 7.449423804375959 13.737718762496865 -0.05617911829472906 -1.2049451825437896 -0.8981840361572919
Ni 6.106628220361199 0.13497936906710387 -0.2242028931180157 0.9609158679688741 2.3560406662569746 0.12907374957192608
Ni 3.760543329460114 0.22628737588839723 13.266512602865216 -0.9011660016037514 0.3363853970108336 -0.08312530786626975
Ni 0.8587022568116766 2.236039897312768 2.6670672077401503 -0.1079199983124464 -0.31867332444305113 -0.4143265895730025
Ni 1.9997206561148293 4.095144391642559 5.418166820628371 -0.1281080432245471 2.146468762028981 -0.5076360370611258
Ni 5.620339225515626 2.3428988370028327 8.421388875780524 -0.5785097812535521 2.0633923051227754 -0.6765130346729188
Ni 6.50511853930684 4.3191305209762945 10.827103428218372 0.7794126969526384 -0.6308181037389653 0.7708774057881175
Ni 3.4786943502968275 2.909222253233832 12.535785068177772 2.7679802436550394 -1.525498497618373 3.024650901143049
Ni 8.358906714961835 4.545218885286883 12.980394685208934 0.002885549077911159 0.09807832963167624 0.20946906010154245
Ni 4.2904560358920225 4.805681127285655 5.188785889180702 -0.004279086991328115 0.441712180674807 0.16288761279757755
Ni 7.768748625726608 1.3017693005331583 2.88415520336984 -0.4369566682676926 0.7921430000351132 0.7910533665153602
Ni 1.2973966517813047 0.2948585435267079 6.870268345846252 -1.6163294016590164 1.0596660268565943 0.34171555097449535
Ni 8.71338090512546 0.10200885001680197 5.165456686897575 -1.0376406716254387 2.2720656087959 3.698644254717908
Ni 1.7063981456112083 2.560718410404468 6.979584564642593 0.4033580063766409 -0.4562553685963045 -0.28626893997041664
Ni 1.4295945303923683 3.8461369944509936 13.178049620712597 -1.208159575716029 -1.1456372888120914 0.1797789892362775
Ni 4.515778252344381 4.535240276596755 2.8482452926585697 0.3066207641538913 -0.3076345501303863 -0.14046425079705485
Ni 6.641782499335395 3.635044572975288 1.774648839206381 0.26829230088733796 -1.4013273275543867 0.014683313043787616
Ni 8.957539146970419 2.16575984621994 11.808708882063454 0.4948928784628445 -0.3936202102635866 0.8183147733344746
Ni 6.463746554962378 1.0204061712311887 6.710669469383562 -1.357281759298398 -0.41834728069662147 -0.8752305126849121
Ni 8.484835261708595 8.980878626846765 12.377704472531697 0.24974796222624732 0.821628668199056 -0.37986609390228776
Ni 8.131687815397028 9.347471033743627 7.751240278512722 1.217419146641084 -0.6010159327758682 -0.1788438790165178
Ni 5.8490343611975115 8.871048528389416 1.8737229691954966 -0.061970785275841656 -1.234016645988449 -0.28974121478973325
Ni 0.5053389810424853 7.748688632414151 0.3813267382679581 1.5635150860714622 -0.20567616871801353 -1.8156703721876215
Ni 2.0052051535877737 4.772774142447986 3.0273164709668543 0.08289365147143789 0.46508607951405706 0.8631604688942554
Ni -0.05988379838729874 3.925825714973558 10.338009584750347 -0.25675421834075135 0.746582794906811 -0.8454437683407826
P 4.778492221585026 4.029152899902511 9.705946010649868 -1.088767315097925 -1.0863767033785612 -0.8128005283844647
Ni 3.771054504344378 9.135294793346521 9.897270883056564 -0.9518365313754252 -1.687059935405359 0.5979226385625251
P 6.9640597929202 1.2987981417658732 11.686975462003835 -0.06626838420993103 -0.14025007790371974 -0.12145557090503599
Ni 3.130779133260982 5.681313383110918 7.2391872261174965 -1.4005187156101622 2.7525705939681884 -0.6581964957519181
P 8.705336352614037 6.113972027880338 9.229296463918155 1.7866660145354714 0.39750848957439927 2.001992304748739
P 6.2794412787250575 5.397091214240429 13.386864153800051 0.4595425239880086 0.28584933593449485 -0.47109731870514343
P 3.6635041629285916 7.617322304527264 1.373402256624423 1.141425821833905 0.9122495131114225 -1.8258881932608877
Ni 4.45239353197563 7.922370614568441 7.765503709249003 0.3077291667267216 1.4565068009400077 0.9850387291590067
