# total energy = -340870.2252421833 ev
CRYSTAL
PRIMVEC
9.20538822455579 0.00000000000000 0.00000000000000

0.00000000000000 9.20538822455579 0.00000000000000

0.00000000000000 0.00000000000000 13.47301616154091

PRIMCOORD
 96 1
Ni 5.227942581703889 5.704118912021044 7.604089902043872 0.37935290171129504 -1.5263479901028616 0.30082704029024965
Ni 0.1632345495157156 2.4197099797886343 11.107383638727415 1.2748545059404175 0.3038028350891219 -0.18516030815284887
Ni 8.724535716182865 7.7636036335748555 8.83168367535377 -0.46335161332145364 4.318641356581969 0.8832477265624337
Ni 4.766642159014954 3.2119164987099915 11.529224243570356 -0.7185551993456334 0.6032404512310127 1.5682402594612732
Ni 4.956162695060608 3.7492350186723384 3.4390686624686153 -0.6181178825634774 -1.0572255357359017 -1.8552481344802434
Ni 2.8692919430649932 1.8543886683627708 7.426541894130187 0.15779168633190888 0.08975721136049059 1.7708915253100341
Ni 8.939849750479922 7.9702461920143755 3.1167530346759547 0.29386037916442936 -0.1270736884227618 -1.2175389600484
Ni 6.0331286982464025 5.273398789543089 11.342326322675246 -0.8537656579429167 1.502313060640845 1.541439337218345
Ni 1.7592509794162086 7.398030044689047 9.927713117343574 -0.7403154738408605 -1.062286238088261 1.0769230141648292
Ni 1.6630822869706603 0.38455049703901084 9.214289994366121 -0.06736984480422592 0.6016648792137768 -0.4098053046638813
Ni 2.16711412253719 7.673105460373727 3.1100036439129526 0.9273791696640094 0.19462222489669706 0.38794681402789316
Ni 6.753984251804934 8.571873555225942 10.130873277357503 -0.08312376520437298 -0.6249909555342269 -1.213940186953548
Ni 1.310893332794895 0.7734514606282051 1.5052457772032046 -3.9921449365500727 1.5679926622268414 0.08846677468384118
Ni 3.7908986064974126 8.359993130796042 11.058341932112725 -0.5938158154830031 -0.46841385833570937 -0.923303714043055
Ni 8.280845201472136 3.871731121895552 8.915863269968257 -0.03148290109962965 0.14722445233902387 -0.05168123042437551
Ni 5.890500410627822 2.8554930658776785 7.604762815934727 -1.4384170333178323 -0.16494526665755463 0.0025716173819181516
Ni 4.429034540039126 8.410401837585724 8.771916770733116 -0.34572287236167554 -0.43664042257885444 0.2949430707056469
Ni 1.569675211040252 7.046577521583985 0.9044533427180484 -0.2022208631795614 -0.005283874106758642 -1.3488593395626576
Ni 8.090901217560829 6.660052468736649 11.349709044159052 0.9166065045285375 -0.06405954948407033 -1.151152819313682
Ni 1.741595044496082 1.7818594132868186 3.4797840952901584 -0.11410427274628736 1.4650876006304832 3.0156911208465997
Ni 3.5112020858440647 1.5553700374918284 2.1230783061256107 2.0815556062953635 0.015369026256902564 0.03504259342642997
Ni 3.5273115155157124 5.234644104447295 10.95934258273916 -0.19865422887422562 0.7870295900679477 0.0838686137901975
Ni 0.7254269494299258 4.9743341317302265 10.40333804489654 -2.0386503222914047 2.251027557178678 1.825792548223288
Ni 7.3711871321618885 1.652763046592422 10.750052554600458 -1.2711600878079656 -0.07766634163422753 0.050475897262364684
P 5.019900804230032 1.0806389531509308 3.7596315843130013 1.2638257589300814 1.3332010642001104 0.9523438100291469
P 3.782917534768659 3.913302655836788 7.821355478678295 0.35148240055327207 0.3306400098866241 0.2503107767082528
P 7.1427093924759975 3.4886120627502217 6.11204741339955 2.58427440856053 -0.43586600630667516 -1.2776498092973674
P 4.87390334446298 5.411111399764722 13.527582424639228 -0.19709331214500894 1.193643898598357 -0.7701716379703446
P 7.753836716499645 4.032816213223651 11.244795232748897 0.5431761389492645 0.1470943545190628 -1.721657213764254
P 9.339787054202453 6.013254264725781 8.363361382405673 1.486086057259021 -4.570789700719593 -0.3422035463545074
P 1.641210284170754 6.049072430927143 12.119382613394547 -0.14389281686262959 -0.20720546087834638 -0.3388719108781132
P 5.983373574031969 7.055792115356168 5.27469951092172 1.162141714225018 -2.0382638854862636 -1.1877159631496965
Ni 7.11666734873823 5.963333443520439 8.988657640229663 0.8790599137333314 -0.7603443674672775 2.4815143571824683
Ni 0.7771851661566739 0.807624623925382 6.861955172697351 -0.22699241369728648 0.9246499436583043 1.3013918901093136
Ni 4.883569002265968 0.5564776948055478 6.9127486647214775 0.3458833091989398 0.9510608295516653 0.8160095222400655
Ni 8.249629729462674 4.4459816600537 3.7734820116752648 -0.5287316813891604 0.2804664743560267 -0.0909481463447982
Ni 1.2863517673636868 7.14729367589113 6.822977717202669 -0.7458379463209865 -0.697437957751044 -0.21930635790693842
Ni 3.219188755533193 5.565246422863051 6.387934744339682 -0.8060356988568053 -0.4574807563629734 0.42363166902401234
Ni 6.1032277307890315 7.674118053095946 12.179512210317522 -0.7891754327663569 0.33684536736638765 -0.21691420352567806
Ni 6.69308140225772 4.0632952541624086 1.758268764475657 -0.0975168007012514 -0.11094952916738955 -0.472493941942354
Ni 7.696496352256961 5.551475161840889 6.795560388440363 -1.1409157149667062 -1.729370523248112 1.462700074234913
Ni 5.657070171991446 7.4213657042419765 0.9753974299143104 -0.5933951830058167 0.6792283767215528 -0.04152537293729623
Ni 4.344363377684943 2.405248314637686 5.499712342419948 -0.2822073683065333 0.5931707256998365 -0.5967224476068368
Ni 3.372265158967386 -0.003985933170184962 4.820550754468157 0.8579213319825032 0.7747620855545044 0.33334121086787105
Ni 5.641844459604643 4.670123661810822 5.32736537894311 -0.3055218746627577 1.8845944488528446 0.328282308287725
Ni 5.881184557583417 1.4159820465843442 1.5647153477790612 0.19676421094036434 -1.2794426395317318 -0.8149998500286287
Ni 7.092521615007525 2.1962215606067623 3.2055942379679983 1.1789292180960018 -0.03813125965408272 2.068618329408405
Ni 4.4896796387115945 3.4655709756255724 0.6480344876708125 0.23107918217215043 -0.5222584149599908 0.9653960152274148
Ni 6.097713703147136 6.215708371450671 2.9210980278113374 0.8037530734702157 -0.3606535255295789 1.2943861482154417
Ni 5.856587759821906 3.8874539252550804 9.665192010336717 0.5400841302875021 -0.29762781662666166 -1.4083137861745487
Ni 1.1577064647000959 8.851791005200502 4.964307622702592 -1.3992930707331772 -0.848369683738326 -0.6425377061687386
Ni 1.4018978023571318 0.06144596746185825 12.78144611296227 0.3274562128420038 -1.5489482440008808 -1.923275153252494
Ni 1.2420462330724622 5.455794354979682 2.595900192915709 -1.0916649483606942 -1.0575644071325594 0.10049259550012371
Ni 4.465957352846544 7.626922026852209 6.431492801094142 -2.0206428299703907 0.008292064805463139 1.3535649725684429
Ni 6.86955790296353 8.54828935018665 4.105740379461268 0.02422030599994538 0.8488193696812348 -1.0898430646606068
Ni 4.593249463417716 9.342456616833756 13.205294413011718 -0.5195410160288279 -2.3432273165423902 2.354027749592004
P 8.546779666491705 8.79162458672399 11.515858940175919 -0.031089779426269035 0.12441079687861799 -0.5019829525404065
P 9.019163376794735 0.9625982579054764 3.529687426257571 -1.0834255911700372 -0.954107586797789 -1.4560319181861183
P 8.302726409660428 5.619539803550698 1.723292891311413 0.505339013496833 -0.5440060910497276 0.5596162867831589
P 2.825695223679321 3.615545163174426 2.4895705927721234 0.17247268538285135 0.33091100415982366 -0.3019776089549251
P 7.473164424677614 8.655035033885182 1.5869997519785617 -1.3310441657581076 0.8278782486531936 0.14350355184401092
P 1.067208291498968 6.393363161869609 4.563203075732996 0.8686829413743813 0.04802692150123986 0.5027781947481921
P 5.704321430565487 1.1259110532224543 9.06964388561381 2.219903582080364 -1.2907045855987966 -0.8969774174437004
P 8.288448852277154 8.74793581345448 6.736332919578999 -0.6408724026511737 0.33272388899884636 -0.23732542019217834
Ni 6.605510542562641 7.633236923283494 7.56061193216835 0.15759756804323183 1.9029564962998002 -0.957246903757719
Ni 2.2297936120424775 3.2752311600137607 11.630365686820832 0.9107184211788767 0.473523668758449 -0.1658351254616757
Ni 8.470494612955163 0.8531066068520561 13.27977336934736 -1.0245817815589515 0.22905161021916037 0.7549715331911384
Ni 9.079955761681344 3.1845764952101088 1.780634176092935 0.6558405939252318 -0.2237289124546663 0.419046106535859
Ni 3.196046409136322 6.069361106925036 8.688950446307611 0.018341735731981317 0.1422408830815034 0.4973822205436014
Ni 3.710305431197253 5.791017778364106 1.9969571209568577 0.5432766690828708 0.06569142866053848 0.09738490310907744
Ni 2.0092417117550374 3.9079819413509522 9.175299651327704 1.8484141422775455 -1.9708714149742188 -2.057011855517729
Ni 6.9971998182932875 5.786184949462611 -0.059640790799795264 0.25037479717696876 -0.5559324101736683 0.9711943670767469
Ni 3.944527333234634 6.627446983081232 4.414703591403228 0.4592260211888543 -0.39233311602104687 -0.8519972531885843
Ni 7.970439505170435 3.15705238394255 13.158273289147273 -2.878150728564559 -2.539827491101065 0.4806620795754432
Ni 4.68569917895621 8.354838113301113 2.9249375953062198 -0.7033910900106853 -0.030488912617476525 -0.8458068081071562
Ni 8.163292391811023 6.549937612889646 4.9749656213733555 -0.20479325189242795 1.5835550354414727 -1.221344192727103
Ni 7.807955194807999 1.4418031610009001 8.225748190378585 -0.12283933862644007 -1.0351873249889398 -0.409938487807636
Ni 9.108667368050412 4.922157990370854 12.911784286549642 2.7583429776755914 2.362564069197789 -0.004707946998630602
Ni 8.544331033181615 7.640094937629424 0.07182320178691484 0.13632528892801685 -0.3232959108167271 -0.07776558621625318
Ni 5.153802383660772 0.9195750342161151 11.209886558919854 0.19842694335476793 0.20237075849386438 -1.0496114708340698
Ni 3.3756343311158563 7.073945141249019 12.744247138503338 1.0004553208243931 -0.8888951546561982 2.2391793995908404
Ni 2.989873325504376 1.7304841407168365 13.22365824229856 -0.153143131816304 0.9602072719376238 -0.48881530481019686
Ni 2.2407940511611173 4.3681316904919125 0.5477721590109891 -0.8037119358196352 0.10260887051217812 -0.9104196589915353
Ni 4.043982349333198 2.2249423723642154 9.49824768930233 -1.5318234113951361 1.5587608592159283 -0.3855947688559488
Ni 0.5293217990733408 4.756313713248332 5.945978524800463 0.9798340450296159 -0.5241903418753812 -0.3334887921893289
Ni 6.616234820029766 1.228274972050299 5.553738766844464 0.4942989536325874 0.5252185260295794 0.20068642881290596
Ni 2.8229520179409495 4.557689048091101 4.4101901894786515 -0.8860911095484998 -1.1688399521807997 -0.059638023377606965
Ni 8.786589239278054 2.3255756781759063 5.097017104337631 1.0177575595482664 1.0386112630688242 0.9930788258546639
P 0.9496094548959361 2.522976026678091 -0.07830839790330124 -0.28986334218989435 -0.02928975010305278 -0.017659879173608294
P 0.5484782123000265 2.3182113674688667 8.679748740079168 0.9437108169444973 -1.0351554433097396 0.3172196227156601
P 5.700611659046816 1.968231706505213 13.016187198904499 1.1412466159435635 0.6569389691957331 -0.2276048504703048
P 2.81098501304201 1.0983225042362088 10.892812479272928 -0.43659157161879003 0.1336477420958537 1.5302702079754034
P 2.8554010119938407 8.802735490503236 1.4070408528471603 3.143997653235198 -2.517689521551445 -1.8368575477881977
P 2.0783557677406006 2.438894009180472 5.667020276295495 -1.5748161129065783 1.316742918644087 -2.5473855059539807
P 5.2888086096975675 6.604157350470222 9.81393359638098 -1.799469851168359 0.6811811295725494 -0.26680697459106306
P 2.6545302320709627 8.695363840394606 7.225767770785339 0.9230072658485587 1.2093443400527495 0.5023184815029542
