# total energy = -340865.8985890186 ev
CRYSTAL
PRIMVEC
9.23668880551461 0.00000000000000 0.00000000000000

0.00000000000000 9.23668880551461 0.00000000000000

0.00000000000000 0.00000000000000 13.51882772568447

PRIMCOORD
 96 1
Ni 7.058372683493508 6.432753285379768 3.197621546311954 1.4789687294879497 -1.2871130115927962 1.9232191032035784
Ni 8.813777658295994 8.674488392903635 9.767704071744804 0.8751040144093767 0.1604376085951882 -1.0822570247832328
Ni 0.33619791847994623 6.388703517033869 9.731311518320013 -1.525131086976625 -0.2722985938332536 -0.3004873975626438
Ni 7.785253899677302 9.146067533792683 11.881129565717952 0.9460101545016353 2.4874402357485996 -0.0355904955101
Ni 2.4428547669836287 7.251040772805125 0.8670368829749457 -0.35857401729273086 -1.4184848131702796 -1.3870453637140758
Ni 7.282694904933747 5.079846256780028 13.392521546138326 1.0414908986094644 -0.41701699192097214 -1.1239011826865806
Ni 4.1600567973787665 4.039093122340416 9.29181416824577 -0.8220888956649262 0.08904835821892405 -1.843126668626361
Ni 4.800260926928484 6.421373684918005 10.570330753502208 -0.08492662274106665 0.42046252726741135 -2.0258408292315626
Ni 8.269699747906639 2.4713314782040956 3.575567450317124 -1.6817398087440263 1.043739585434325 -0.34654202582886123
Ni 6.66157377421033 3.1084597904212092 5.450250404472674 -1.7981742722853868 0.30890467509206154 0.730365304606684
Ni 4.920273223032125 8.35075169113064 12.663261882617759 2.4786118388236926 0.15777343149946377 0.21068004969050813
Ni 0.9828852798187147 4.521747052964573 8.149136021488413 2.1206705700189543 1.166326955950959 1.533856639775081
Ni 4.2579102773235045 3.63847022394103 3.27029858390391 0.8706809456410166 -1.0447765113392717 0.720377854376669
Ni 1.2568824130149288 8.797973683953398 13.172462056526905 -0.6099021795219045 1.7396384808330236 -1.817793074957579
Ni 6.724318600457697 0.2566469371675003 7.557254552470969 -0.15281994414893038 -0.7109025678963821 2.484069519504154
Ni 2.1464124802792295 2.407884663616555 7.582858653509936 1.8993379257106064 0.19907923222678617 0.682732018999437
Ni 7.252490932928906 2.580989446290175 13.48915393583871 -0.5782552420405849 0.11997512970476756 0.8327332627526497
Ni 3.0471097041655035 7.392731577255973 12.099918086966111 -2.35404728997603 -2.7113468114317114 1.795112859751244
Ni 7.3675616005852715 7.514304873747632 13.266619937328176 -0.09515524244761032 -2.4466764235676766 -0.5709818483076231
Ni 0.8761876704566572 1.351863282778166 10.881358695311455 -1.6517504614707874 -1.195309202115922 1.556272545576436
Ni 1.4617983515248403 8.182958004451756 7.615642432664915 -0.25576125829986274 0.18847960233406896 1.4444475557826284
Ni 1.620586266734391 8.501965521617265 4.369230849373153 -0.11279455279592833 -1.5854283412047858 -0.8322573515574958
Ni 6.582877186601386 5.054463836269537 9.988223548452815 0.06251997291109232 -2.026840731250987 0.6089346734023126
Ni 5.45960347543662 5.547850799147402 7.562121363739884 0.0656070964768483 0.044743365653961656 0.590128596439403
P 5.098134900379289 7.950350473259729 8.514238309875012 -0.3667472971321426 -0.8315148169645163 -0.5773530419412896
P 0.11551957072652955 7.443237790993733 0.8788007296860669 -0.59114623907064 -0.5509758374993414 0.21294879112002682
P 7.6168967749885415 1.2951592509317678 9.982721253002268 0.2443738423985275 0.7531864162662577 -0.45586173270231173
P 2.404347011849627 5.092740674186376 13.020253434668744 0.18586684730157021 0.2983058165302927 -0.22082562276494225
P 4.907489645890014 4.21253042580675 11.158291248172237 0.20129475182086623 0.07198060410335991 2.3557781566242073
P 5.904257668804532 2.3463221335210602 3.6165293936351275 0.1296743592704025 -2.725271134822287 1.2830601816796612
P 1.6436133316298254 2.9035992720434165 9.688322121835323 -0.1650393690332577 1.6507387323768214 -1.9209110238956917
P 7.537562855860228 6.5931299110433965 11.246569052955685 0.44928279393321335 0.6471834324708661 -0.18805537031245675
Ni 7.157593193363846 6.850057643546966 8.84444993041724 -0.3452675299918118 2.195635196451303 0.19814180801418135
Ni 3.3795750767472366 2.0337248783039796 10.464046024124437 0.735939456260352 0.33397035981143774 2.120299816943097
Ni 1.0548206113091445 1.7724189553630105 4.005993448432358 0.8644588759907048 -1.849044319662377 0.2998721325761481
Ni 0.11238648592407013 6.466273228623062 4.865156054302067 0.2576705595074336 -0.49246344308574536 -0.9223426356813664
Ni 5.514460169545719 8.783915443772552 3.2904687409886106 -0.7840573948135013 0.1674029841694278 0.22762824750907248
Ni 7.374350566769846 5.260811461525855 5.854233610216208 1.091550791380333 -0.07395418288996296 0.3364483890382851
Ni 5.753625749705157 0.49202639863434383 5.621655636427978 -1.1703605025903845 0.92682458271212 -1.9334963167598702
Ni 4.641879426021139 4.709722904423451 5.4973233410256634 1.6106729747041877 -0.3789253272555732 -2.081902962332453
Ni 3.2657883088182937 6.596242675130745 8.414631706417577 0.08066604769249978 0.27467943536060435 0.028193688825396603
Ni 4.979692841352352 6.04605007683093 12.735127938943041 0.2392115814712977 -1.829917883245571 0.7672637202949302
Ni 5.335388485980623 1.4665460095096992 9.419987078803931 0.7372538041964013 1.7133198975431525 -0.4073712413010919
Ni 6.310367160283698 8.759438218753338 10.052140510494498 -0.09359663971123881 -1.190012215383041 1.6253241489584587
Ni 1.9849921087940272 3.8215044469526327 3.5935475885142574 -1.147541704923656 0.17607608646339354 0.19528119863693463
Ni 0.4720289676280802 4.792585238630005 0.6853992472927414 -0.1777251920310423 -0.4405032479683704 1.3956246207426546
Ni 8.34556067208883 0.9721060641215739 1.5162042952260382 -1.918014419074187 -1.5898652939302167 -0.002972195254446494
Ni 0.2743823031144411 5.986279464340615 12.332253135841887 -0.10519642873369625 1.2530883179079193 -1.429620518072125
Ni 1.1624926913276272 6.215903545086904 2.5227484294463434 -1.6063527500622785 -0.09664956760494968 0.9063436891499487
Ni 3.7615491006885877 8.59230957365988 10.451405615656968 1.3933646210638841 1.6678951895514502 -2.8321570354432644
Ni 4.063764317822047 2.4090669597684267 5.34086953704719 -0.28334405301413784 -1.0444579516575883 0.9708400690611215
Ni 8.795876955621564 3.5715873611621136 6.7573859459553525 0.3015765168617645 0.5556002236452302 -2.1959280451013727
Ni 5.49368685668979 1.2601429641212618 12.179990017520476 -1.2164539545143371 0.16371807911867287 0.2375959002447456
Ni 4.016315448039517 0.5479600906442884 7.758928413251921 0.47687998682519167 0.11933261102476223 -0.05230318027909057
Ni 3.9631767780261065 6.960011185671013 6.044943521526288 -0.6857566647583738 1.50666208163816 1.3922575040426346
Ni 7.139045922481363 8.116001248163347 1.8557431240038902 1.4896529486746732 1.4434103727673657 0.7204835267165979
P 9.081715523713866 1.8262319036505357 12.848402070649882 1.4921114375174949 -0.1940568393115303 0.09869076640469455
P 1.6055027541093434 3.207338542810148 5.688925516462859 -0.44290517254164363 -0.05542218552404648 -0.6120868458780492
P 8.186902070520889 5.000650887982013 8.435518630544351 -1.0240444209982429 -0.5817771391509142 -0.8530686318758921
P 6.490519536425113 0.29745647512217643 0.3679185547671104 -0.6229235314822368 0.48347898019894797 -0.22179647131864383
P 8.706752146485565 9.046523739818316 3.9172427251881623 1.153110200150369 1.1653028855618188 -1.3701722421078208
P 8.772526606622103 9.041914632163754 7.156934617460499 0.5945208119698278 1.071642225381864 0.3046412718300173
P 5.866571978963629 6.4836936234857925 5.331217197369801 0.020275719529900565 1.3973945681588837 -1.3739419935628983
P 3.2636269236656537 0.5896166329515161 12.155318822038845 0.05335424725142424 0.1668558534167062 1.113037243388883
Ni 2.2709877005939996 2.3075557511038367 13.30643283657358 0.8125164214851427 -1.8316981150744451 0.47161925264688453
Ni 8.543087259649544 6.950700603475025 7.04209209601469 1.7953236902104694 -1.5119852936232863 1.1473265035890563
Ni 8.727682483049165 3.7648927819930997 10.244919440070353 0.29137360818683367 -0.20684833464924374 -0.6246909077953048
Ni 4.875318259194949 7.180463234551611 1.2724924168951068 1.0481192025592594 1.467260439912086 -0.27441461173499193
Ni 1.432665835407632 3.5150034062686393 11.700910685417993 -0.8775231653738307 2.18755627609791 0.44776044375141594
Ni 2.3475598498050503 5.44212766044177 10.29168017654574 0.5833761082069179 -0.5848665767095154 0.949380356525449
Ni 1.1377106555817589 9.219850203020412 1.9960142494036226 0.4069583221333895 -0.4110085809433631 0.9162678902421962
Ni 6.622881285302599 2.8827520656779955 11.241594172429139 0.9657631687588464 1.0676073931908583 -1.0827198233522644
Ni 8.055445517134679 1.556862351486256 5.99857442065121 1.7017167660865855 -2.5673539786561075 -0.5820085384354299
Ni 3.2154483554768913 0.6406234752160838 3.352628884842122 0.9134075379752656 0.5199390227981949 -0.07394338425668555
Ni 3.664887153584408 0.08042569573105705 0.904348486924046 -0.7540780748425916 1.2231249387766097 0.28209578242933353
Ni 1.688198827919541 0.6970725744547348 6.116093734478366 -0.544754539179978 1.4118927617750587 0.2316283698074011
Ni 6.618724775393677 3.924983070307446 2.4390261595230758 0.8881305085760318 -0.021335014032350354 -0.5298459974992616
Ni 3.1343594654981435 4.858812296512181 1.795935564758829 -1.031470795369301 1.3481229756172652 -2.3117624131648897
Ni 4.432640717205947 3.7208337769585142 13.492006225305099 0.15909086475930667 -0.15153902055397772 -0.7333009901962404
Ni 2.6296390856019483 5.99222789185472 4.445409515646159 -0.2748187891519461 0.06842785375509505 0.050069148742249256
Ni 3.084693790430855 4.473106650341485 6.961453032774975 -0.9082175091338939 0.9046616734618355 0.33588171790153765
Ni 7.219479007563369 2.794301534816111 8.18500115998921 -1.4175497029505202 0.4607141756986065 1.1192243460362015
Ni 5.2521289741605495 1.839745179198879 1.5523400687053475 0.5838008544491623 -0.33382406404156056 0.22708574474204116
Ni 4.896950584098723 5.885747344676794 3.2060444827251695 -0.4574853843486637 -0.30857917343184277 1.5566021610017127
Ni 0.5358313947300506 2.56447424691872 1.4317929683267583 1.5899627387400295 1.1127099419564515 0.6991942783205184
Ni 0.07308437556303012 1.842423818917963 8.315389952163258 -0.5135634582891542 -1.9904830185575588 1.3171774350783443
Ni 2.1971126644794055 0.5583818464892617 9.11033817461558 -1.4275003864053286 -0.7835246622384828 -0.13401772384076274
Ni 7.553274463315958 8.137125555189364 5.4069497315792505 -1.4173296165199138 0.09395505149192206 -0.9055960123506469
P 5.230496649256776 3.1490180904436125 7.485550138197702 -1.1970531813902223 0.3874583044272488 -1.0807457303450292
P 1.7413559713103248 7.747411186128728 10.53988662759152 -1.3019575328047963 0.4788054859826787 -1.5109535099246623
P 8.572155118945947 4.714932396842635 2.849890698338049 1.86198725297629 0.058295393306783475 0.15300069270116876
P 3.295493499634065 7.214842189842749 2.7120663717713693 -0.6876960478729318 1.3714408244075993 2.2016916870580276
P 3.6458226281354804 9.206004406679353 5.818422044509795 -0.07660447602861645 -0.5276667304597559 -2.5897081779815916
P 1.5424715905126953 6.42273147815492 6.603704072251697 0.7116744130654001 -2.319028093588367 -1.181938180125655
P 3.138885442954527 2.5017663674260993 1.712064584147709 -0.6854285919949937 -0.3615364423551644 0.8546022949115992
P 5.6951298002535795 5.229101909265116 1.167366891947491 -1.5543413899919942 0.4605766216794777 -0.2296563336826948
