# total energy = -381177.12050236255 ev
CRYSTAL
PRIMVEC
9.19474615711596 0.00000000000000 0.00000000000000
0.00000000000000 9.19474615711596 0.00000000000000
0.00000000000000 0.00000000000000 13.45744042013360
PRIMCOORD
 96 1
Ni 4.062744538440472 3.353802029818015 12.496754125993087 0.1109418158579057 0.9137186414577811 0.6586459245845109
Ni 0.968822812420041 3.4216776455353153 2.6680449929637433 0.08755788971632662 0.7242108549695141 -0.91560351718532
Ni 3.3353113954089806 4.651180704663723 9.745474613424998 -0.9549645354814457 0.13911802118180558 -0.07603214846491421
Ni 8.323497934165156 2.1172466004301684 3.9233282812100287 0.28495407781373505 -1.2561188772041272 0.36286801668239443
Ni 4.094935344539939 9.084859690309196 6.917299439214565 -0.8710843517270224 0.4284301188539202 0.5605465119069121
Ni 6.248611529022118 1.2215128247666729 9.11701187847504 0.04303023961759686 -0.18822069224572743 -0.24812225369736624
Ni 6.806870538542013 6.3876544795608625 4.549893220564749 0.7056942842225653 0.7536893240446052 -1.4508179780853465
Ni 4.254491773629929 2.4599715665974182 10.047728904628865 0.6933203360382446 0.03775279326874143 0.6600266069821215
Ni 1.518162918222003 7.767730700838622 7.022119544765529 0.2631436668068629 -0.9056525766201949 -1.836040451203541
Ni 2.3612475777113913 6.574500915078507 0.12104883241916196 0.0571255413683984 -0.32814218316543486 -0.2522555591394494
Ni 0.10269703867625232 9.066359861154062 3.0232141285040344 -0.655769117257348 0.1689675004430703 -0.15103945520973988
Ni 6.895452722478679 1.8067859983311938 13.3141587790971 -0.5564456023646611 -0.9506939331305497 -0.5522431342475392
Ni 4.751973511422467 6.539937864484992 8.938903210177138 -1.1945977778711943 0.2001480398109327 0.4000363982025755
Ni 2.425895837547254 0.4525966652260826 10.05409442735456 -0.6687151358950548 1.8974041990230033 0.5730634134270001
Ni 0.844523637254189 5.266943656299034 10.134798552831922 2.3737298560066216 -0.29372025404213936 0.18330988520767139
Ni 1.8634440238053205 9.0533492954212 13.110965004486555 -0.984201320859376 0.0011865641089334402 -0.2787780309100102
Ni 2.641770086505635 7.657081126259648 8.896834488341408 -1.024224398219533 -1.5501754315397624 0.6752966457673144
Ni 5.912846985653296 7.205591508464121 6.822464827929244 0.47978507628712863 -0.16886054255156077 1.0092001568965587
Ni 0.5117556616396708 1.3824484657718072 1.1407241076251822 0.405105842305683 0.9226887061668756 -1.311308120781761
Ni 8.482898052571429 2.686695615954934 9.938885178184119 2.522214920225624 0.33795505549079863 -0.47096156445822757
Ni 4.464996290865348 8.751982297216076 9.513118782080642 1.3305461430757666 1.818412196598817 0.7653109674439336
Ni 6.78982347927083 6.328541456877779 13.088221800005826 3.3559989928402914 0.6672236389511929 0.3415252893405602
Ni 4.723570940716596 6.026788279336415 12.755863910067411 -2.956056439903102 -0.9705274229167092 0.7196697725660509
Ni 2.0994179877404036 8.257075088331808 4.4817849777710945 0.25774769260227226 -0.9304542090449072 -0.017159799608738188
P 7.975908947310498 0.29120496481434066 1.2113930872079541 -0.759889025097414 -1.1411345158457316 0.7035085894251562
Ni 8.097886449085857 3.3960151091675304 1.11967089747781 0.19817394680369743 1.0261691806507294 1.2741916755454379
P 5.031567350860513 5.041755129540379 3.13081932264898 0.9591942572920772 0.14816984697142868 -0.18231358273267312
Ni 6.4832522547725615 4.069714155985 12.622365391427547 0.3988225804001325 -0.6586968324271043 -0.04369384134352475
P 2.77231709164709 2.7576882506004603 1.280232312316635 0.4026815491349065 -0.29801553898338357 -0.26720935223580433
P 9.474450277353046 5.192162786259911 1.3943657761932637 -1.4889476950775324 1.3483687730794842 0.4776477182291516
P 2.6808109784503187 5.3592405176604885 11.601632720419916 -0.13011016125624042 0.22444830711919408 1.6830279314278305
Ni 6.3845098763943335 0.6338076408584478 6.9249430316482945 1.3148544433721225 -1.4581715902369403 -1.1660947853354948
Ni 5.851223797284651 7.104375743384733 11.12997626600115 0.8641809397389698 0.7662869582039578 -1.70597682691452
Ni 7.712231213373216 4.984674145745608 10.623532409184005 0.9522458509987021 0.060342505643799296 0.6340229838295081
Ni 6.367619127806867 0.25968445570563353 11.266098045703618 -0.48447965354932054 0.5934576608126361 0.30391467807663786
Ni 1.5608449296226676 4.129250136988729 0.11619768437629453 1.1348175724887681 -1.0456159765214315 0.5053202444437556
Ni 5.304044456816415 8.209997988294884 4.987516241765415 -1.4687766194462963 1.2784954451271144 -1.3922770444266603
Ni 3.151379694405341 1.1122976305794487 4.885858209398572 1.1595832094692222 0.24338319635048405 0.355868959656742
Ni 8.559922440659186 8.725106054362964 7.022590315765898 -0.6456191733075397 -0.02363358025853994 0.5364380488944827
Ni 0.4979543477421271 3.672878109013591 6.692075972420725 -0.6666775366397356 0.27025790925414106 0.1559546331231701
Ni 4.621886243586059 4.565090296920419 7.736762795970582 -0.4926909857155192 0.22149076715276694 -0.8325419726774502
Ni 1.9447071898456205 5.90312813902458 2.7049048911332787 -1.864986187703614 1.148417165550074 -1.0469915167127195
Ni 0.7000475112443865 0.8274352016255515 5.339737541705738 -0.28052483839778786 0.11461155140000907 -0.5092902848350971
Ni 3.0757529077249304 4.455718792049478 3.860064750136971 -0.8651584731608907 -1.3123872127785527 0.7671932720683109
Ni 6.66773564054226 3.6852910162498893 3.38711643389102 -0.22907217904445068 0.24074498739668862 -0.5402327400502244
Ni 3.353553771673289 7.56973103830051 11.372479419142525 -0.1502213301838187 -0.009423350196428933 -0.0413965606689158
Ni 6.579567220180136 1.4054261362781104 2.458687980041724 -0.28341861500581517 0.30449214784666273 -1.4609576376225097
Ni 4.108332089609041 2.5712739681495607 3.0352583264216846 0.699987206535459 -0.49973066617112005 -0.555558057553385
Ni 8.790499088633005 0.34640562303146477 9.364574900395775 0.054378574750880544 0.41856299625185334 0.45372206065148957
Ni 5.679539498087491 1.4636104896049966 4.52188878236505 0.3505076953448286 -0.6787766338961149 1.5747029843674816
Ni 1.5886130628475725 0.8808649517436303 7.439017608254628 -0.35546812467389743 -0.06447889640967605 0.6639089727556631
Ni 8.616295429004182 4.297155395538392 4.555316281815096 0.11994530490809664 1.3246053521112995 0.7848912035687063
Ni 3.849435623644259 1.0023008829736428 12.084135297339376 -0.0025469347915698074 -1.0220880686028204 -0.9953529666008214
Ni 4.333033294824345 0.1259542294640251 2.799483888476992 0.08964665392455529 -0.5216845447343919 0.6595275558585157
Ni 4.502667165640989 5.651688612147679 5.265478933245151 -0.7585229979878226 2.6121066002814497 1.48772719240687
Ni 1.8912305465224268 3.219494373521266 11.382289293757642 -0.06900892306954566 -0.7770966472249521 -1.027359601414405
P 7.202511268520299 2.9962735224282167 6.143052165884637 0.157611966220935 -1.6782312813701354 -0.592627965822489
Ni 8.605362875890139 6.208264983131098 6.809720909833311 0.07156974181818641 -0.23519166167862718 -0.6916558038516282
P 8.171159380764422 7.14249716071932 11.071113340412012 -1.0957748567640095 -0.7142637710591312 -0.1253947580584421
Ni 0.9084252837066533 8.136348072026179 10.854582586582023 0.377647231874098 -0.4719452685277356 1.444848390765473
P 3.6159718253947384 6.927055064827685 6.798671583443786 -0.41107183008113074 -0.5455091579578153 1.0436367413078735
P 6.654633127348389 2.5668053215444937 10.717693965054734 -2.444499470521016 0.6390692880041638 2.5399925559240186
P 0.7598280724943997 1.1660868952700751 11.508130427844625 -0.131878823120889 0.267430724217991 -0.11999312742689658
Ni 9.10631103296274 7.215871234604996 9.033616450813925 -0.49658877810802865 -0.5914213471088975 -0.9442638612344898
Ni 8.29504938972878 8.648237976958924 12.585533077496313 0.1781630508994093 1.5249115147666512 -0.44691326525977226
Ni 2.215759110155873 8.244450701935188 2.1458965098061555 0.5074869130777713 -0.5320545751148062 -1.4224450833696083
Ni 7.534285292081303 8.930139697668313 4.81835590037297 0.8177892398483076 -0.07832017316814253 0.24444609039735968
Ni 5.502044119354525 3.4044650808343144 1.1996045032319114 1.1933402513150093 0.4098114753114684 0.05561604670240745
Ni 8.832546662552703 3.0704475392246753 12.333326708794592 -0.02887220294965995 -0.4942297909575489 -0.5665194416608953
Ni 6.687513539405429 5.939033622548836 1.9850132788537969 -0.14343901715466265 -0.6706815155928062 -0.0013493149390428373
Ni 3.7463073513758722 4.858163634142475 1.4235416250462254 -0.7682667076381479 0.10709364575640912 -0.4993519426754626
Ni 8.790949631191953 6.7926646558160275 2.9394141320144795 -0.15464157073870144 -0.8988867186512713 1.2537565476195376
Ni 0.3535913171093664 5.634623163384294 12.266362292415897 -0.6008598668139781 0.7539837153565724 1.1895710140805642
Ni 6.544663963980886 8.210788736459566 2.8185933292986207 0.35122143358240154 -0.19265147432357144 -0.4658031601857397
Ni 3.9824560154868736 6.954482992446854 3.384559375000342 0.21454056108717892 0.44499059431576266 -0.8600039255431446
Ni 2.0276805786607 5.1277719793148755 7.7698142303051 0.3903636509995019 0.86510139467071 -0.12137972336177805
Ni 2.072863561000826 1.254448405300318 2.804665127904884 0.37027973576543327 0.4691587069215339 0.5621017722091739
Ni 1.5140436719687722 2.8827276028274396 8.918622358702248 0.38307585908883707 0.30380206375817354 -0.40377503930940134
Ni 5.485861366216833 4.696262544796739 10.557766068222266 -0.8102242830168562 -0.5282354584790321 -0.2601295625708875
Ni 6.544737521949693 4.962505612896189 6.214417187747252 0.714307736923189 -1.0752266002990127 1.201533585759079
Ni 4.967314465106992 2.346453231234944 6.932371467023261 -0.5365843446643598 -0.5229834660514735 1.477408069869049
Ni 4.44101639303404 1.402447038541399 0.7912906547026707 -0.21096364236919796 -0.4930141733828929 0.0912484511940364
Ni 4.912522973091361 3.562118197481405 5.090465216484834 0.4004475175980652 -0.9259858888609085 -0.30459859151753993
Ni 1.584107637258101 5.484307454125771 5.342644000948252 -0.24096841626140436 0.9978654486100298 0.04129654475594178
Ni 6.149528945038154 8.63785710861094 0.4235752881076169 -1.2618046147349946 -0.34327852458624103 -0.6332971614070771
Ni 6.839576250423135 5.791228078975875 8.571138191953139 0.9457715561282678 -0.1187793096244535 -0.24141090311546165
Ni 6.606985953053205 3.43463304279157 8.53710383926043 0.24273862078794967 0.6718274562717914 -0.5335455578380359
Ni 2.777898302530374 2.972477519518928 6.28925414573759 -0.13228017232436573 0.9082226513402165 0.5780068734752045
P 0.16398002143916265 7.5596811808121585 5.18937769766593 -0.5379899667626347 -0.24517448392295194 -0.6521202076508511
Ni 9.287796931503523 7.306218809793046 0.6513521358936929 0.1454341932078205 -0.2477227042661024 1.0588268187847505
P 3.3344562840215914 1.5807883339156539 8.401385708911793 0.6374888308909215 0.09895816113346828 -1.4953867658346567
Ni 6.618663280601426 8.15060912322877 8.994522229341857 1.566857520181134 -0.3872788414265911 -0.24746122307459964
P 3.8120497859977487 8.213556355035955 0.11115160771608669 1.0119412099768055 0.506638706144863 0.21101352177052693
P 8.887733528650676 4.824915432241396 8.561260276216876 -0.9257424053915347 -1.1030827032793324 -1.8447606046853584
P 1.2835129977254582 2.88531132648181 4.690591225401666 -0.019500789037088996 0.014704910310342418 0.41912992449891684
Ni 8.49275482039166 1.9029262635628503 7.617113403907987 -0.533863603299087 -0.1912391673570771 -0.5417052108306929
