# total energy = -340896.74853736337 ev
CRYSTAL
PRIMVEC
9.02478066284959 0.00000000000000 0.00000000000000
0.00000000000000 9.02478066284959 0.00000000000000
0.00000000000000 0.00000000000000 13.20867873889563
PRIMCOORD
 96 1
Ni 6.3436988719723475 2.0229497249288135 11.446654644336308 -0.16731119578656992 -0.007994331059386232 -0.06070503118954061
Ni 4.615931675218108 0.4551296195617206 6.061079741054464 -0.051544961956827354 -0.9607636586617261 0.031955726970990125
Ni 2.711964659456886 1.5186720519799732 4.863990408323697 0.3006606899157145 0.1119453174217556 -0.22654992684322922
Ni 3.3601785602966485 4.181063590877273 4.566002075819617 0.38530526263998804 -0.042312130504649714 0.8565298509516153
Ni 5.092151304871891 4.337165223194615 2.453050017609057 -0.8509209894052701 0.7588878375264092 0.13236013363268173
Ni 7.144612062793576 5.948621045877866 2.5419576449880408 0.05241605170787101 -0.4676942065608655 0.2974357552205135
Ni 4.84887931546643 4.617917126979096 11.157595429888238 0.6517695091796516 0.048614932794225955 0.527061235665273
Ni 5.705935667219969 7.770011317943436 12.423805558243593 -0.8651381614459165 -0.05684786222697952 -0.026467964383541515
Ni 2.068389495913251 6.354014196348755 0.5241358004710164 -0.7197471627712057 0.2553113152466377 -1.8874139205795106
Ni 2.5690843309115805 1.6188471181025663 0.299032499634745 0.8524839630170158 -0.6632132322402191 0.5538037938664397
Ni 0.673315425967094 9.166379541446528 4.772097383478645 -0.3474725080629306 -1.0688559208859785 0.40350250237430507
Ni 8.776418766026957 2.502526573014813 1.3935687365200984 -0.5363709431019731 -0.27354069377047086 1.031900426707552
Ni 6.855485162490017 0.7663437682282023 4.959727087282409 0.4159178453195224 0.44000908194077126 -1.0922390756966092
Ni 0.7457474136421679 7.530610959471903 2.3742339000443327 0.7242877309540364 -0.4011278314945414 0.12049269277113442
Ni 7.7151857749979635 3.753144587699898 3.928182014948629 0.4864375486066397 -0.20055658810326105 -1.3704316664167946
Ni 7.726349428763157 3.8884170260883257 12.633519802976057 0.26063581278334463 -0.48534868641783513 -0.7747106634912787
Ni 7.935652143494254 8.89924603178628 7.0158293442293616 -0.3337685282132768 -0.17704924900994026 -0.15165369175497107
Ni 6.7010621393887835 0.5978050855844153 0.3557018052837178 1.1253731392464166 -0.007996902162547519 0.6470327658256148
Ni 1.7294819050932748 6.639874126027416 9.379984369152458 -0.18653533412350454 -1.0074494927540392 -1.4346462534214905
Ni 0.0984224537044842 5.038336537368376 1.4248197472380548 0.018935660562238357 -0.634954494504842 -0.4708201537843569
Ni 6.315117391394847 1.9889172767893273 7.1691693936427825 0.4539166931607989 0.3914052048901388 -0.5910770763956015
Ni 3.5375606255794927 4.025855411852377 0.4270408920121748 -0.43764238148080764 1.0845082827112549 -0.34718171629538913
Ni 5.866847507667342 5.192533940951314 4.554471113478641 -0.5141195879029404 1.286815020736403 0.6911842635318484
Ni 5.2682157521678965 2.95019179643329 9.368401063083237 0.06798588112167002 0.2925630005092445 -0.24911598506920318
P 0.19827262772073365 5.704654148356058 12.34446149100606 0.8268996867900081 -0.944617902139799 0.26307887500719856
P 4.038129113647577 6.07017581755401 12.653069282997206 -0.09272015064355645 -0.2733532603500131 -0.7795271110433155
P 2.469189032991672 8.426771686136181 1.3135369809908053 -0.21931895631242876 0.04878951069887726 0.16682859972319655
P 6.367858209991283 7.903298304570876 5.858497780534313 -0.5662165657084959 -0.9533884492435774 0.1838251342811931
P 4.6794390572275395 0.9402828796618775 12.682550534213664 0.06480954027621741 0.45969524751578894 -0.909477349682924
P 3.818339603706169 6.0934236527190375 8.09928405285418 0.8228519990831957 0.04159247872980579 0.9722955705607256
P 4.757954649593896 0.9837191493238631 3.677996141024563 0.13458490919814242 -0.3468703557025575 1.3121699545614238
P 0.18235742690026582 5.804793115355725 3.5303624604678365 0.506222958763683 -1.878876058311829 0.31901862359761185
Ni 1.5105407245406528 0.9923107405805035 2.605029130088128 -0.16714818784614438 0.9147272852279538 -0.03746302994246451
Ni 1.8856647604372023 6.687109828377475 4.7461691884362835 0.2860907625213396 -0.07464375275781983 0.006354995683750346
Ni 5.976552742242679 5.654268797530613 9.17622738218103 -0.3798990040227522 -0.552468619994784 0.36374270597786384
Ni 8.448990696297786 2.315397744541663 10.359236252014098 1.2137792358956514 0.49505382952074095 -0.6045769106542491
Ni 2.284072730621706 5.255788629100256 6.827024613974323 -0.24590827676518295 -0.08074832299366094 0.41787265505304805
Ni 0.44293082344659374 -0.12186973652368319 9.205392766071876 0.4858227978407762 0.758051714778359 0.3397023771992085
Ni 1.3569570060474736 1.0472987295791485 11.391692827201785 0.3006015545430049 0.5858027153705396 -0.1473589210343591
Ni 4.103991963427999 6.778079618153668 1.6329095314388025 1.7179717944928672 0.4249185061562359 0.03989683619493774
Ni 5.709410207801699 7.741628382542035 8.046727339784672 -0.7826728557611489 0.572109277043847 -1.0311182971258885
Ni 5.277069062065759 2.703986753290006 4.95991209528741 -0.4204748685625855 0.23681351355276634 -0.22040190496396236
Ni 0.6743316162774907 7.464937630086848 6.844248408000896 0.6383509217809006 -0.8691804498360902 0.19461116915310353
Ni 5.159142252243783 4.584525438271566 7.067356329817374 -0.6622223290818595 -0.6669801554818191 0.10765543179715008
Ni 8.033038552370732 7.153411224007048 8.964611616148382 -0.3321908993135118 -0.02215776704396184 0.31999435724731984
Ni 4.559617043451894 0.3952971282662642 10.579676448646266 -0.4251635322875065 -0.24233958557731813 -0.8975029509298672
Ni 8.103973328922406 7.234959142699277 4.611810057857911 -0.3948936776593715 0.6119693464635784 0.7640020188245229
Ni 7.098856424483527 6.040881379298701 6.900161437024547 0.523206380695557 -0.01172397330514755 -0.6110221520589607
Ni 2.347553038288942 5.265066103692511 2.575058735756009 -0.5880742850135355 -0.46047943397998115 0.2941632551168289
Ni 2.331236234725911 4.986019883466333 11.384533468647275 -0.18090898907566264 0.9920362435227623 0.1326234145963974
Ni 1.1957202734937578 3.3678586486993805 3.8330129946979463 -0.6175334708149172 -0.16209879834769503 -0.5528841102656478
Ni 3.6770566613503863 2.474829520949026 2.562708323324588 -0.31299530022166744 0.2262401089122942 0.07287380534159063
Ni 1.1239281427725663 3.326055864349845 8.282264189624938 -1.470275829699642 0.3892531915441425 -1.0225333836703552
Ni 3.660775956910282 2.5983697443861584 6.997284322303656 0.2277909983391819 0.4973050874487629 0.07519474016528341
Ni 4.266465090941967 6.7655441977172455 5.982355676253204 0.16453877524775534 0.8038721155465833 -0.45330477060841284
Ni 1.0041422281198475 7.586140435314453 11.544173717489542 -0.9889123531818002 -0.40894655620801185 0.5096633519037996
P 0.16870834852154423 5.5968982664187825 7.961187760574783 0.24027318996659267 -0.4910315957352253 -0.13723674499869268
P 8.420869479537606 1.5573793365385138 8.158234823072142 0.2461820992518599 1.7605168669439293 0.15854476244784954
P 1.713074853722926 3.1227275544631765 10.38817691886472 -0.39671144759440063 -0.03506573335488155 0.9039993572874883
P 3.982762083858198 6.090400351173896 3.7320067462699575 0.21506043814639092 0.7201703663515533 0.7080337309890194
P 6.993762852862122 4.0141953951469365 10.439241835679269 -1.7068725992559122 0.34049607674509746 0.08767178958637159
P 6.1552975494160185 7.837832545142652 10.148096091926012 0.74873198003933 -0.6060108148872981 1.2017364457985047
P 2.454406442153041 8.561313117285335 5.996436139150903 0.32715462244118493 -0.5951535604578202 -1.5949239394000467
P 6.887920224439981 3.8604311810391216 1.544715764215701 1.5982640595168733 0.5510141469364446 -0.042885743619932595
Ni 5.481110329630236 2.7517639424839704 0.28680031183091054 -0.27511292335359716 0.8111444808382805 0.7406641154295308
Ni 1.4219715264391097 0.9831325385762985 7.225794477866169 -0.7389576742613854 0.5338209229866097 -1.230827706737506
Ni 6.647427867499903 0.7622762995523957 9.273562349807337 0.16348102340720233 -0.05984936805746466 -0.21015065954959936
Ni 2.642726541682784 1.626310611767736 9.051471520779328 0.46602761749172 -1.035323593456488 1.9079639768167207
Ni 6.4184240564313635 1.9319167616874986 2.6384208187956593 0.4937646783956722 0.1783437994516477 -0.38550966534131026
Ni 4.021685963154301 6.9207343271806785 10.301580537831143 0.48211423864093744 -0.15591092436942827 -0.037593127762425585
Ni 8.196558554449584 7.2874923913388825 0.2118449954632352 -0.34303324134465435 0.06118119949501076 0.47619890159776695
Ni 7.597656055528186 3.8651330918003715 8.260126402489918 0.4010054469840642 -0.29016313281850026 -0.5758975404416857
Ni 3.2150600861298653 8.301056490542692 12.365489230111072 -0.12433957732105037 -0.22459485999938736 0.635690344229602
Ni -0.0767656873824674 4.95614785924419 10.159495292468305 1.0987501373422497 -0.5451862274007578 0.1549714432742944
Ni 8.803754826863473 2.3615685227653733 5.798371983865073 -0.3915458442330611 0.1556612702524674 0.6640475552160564
Ni 3.591492715232521 2.565384170811557 11.476625038668427 0.07617664446257848 0.13253599708891367 -0.32766730041154535
Ni 1.0626769559460763 3.3616676491173902 12.674017604031782 0.1068496480664031 0.12838186571122406 -0.3959948811433503
Ni 3.2849931120203135 8.316218122172057 7.9854517860502074 -0.30247408897536937 -0.24438849768654686 0.9381724036247713
Ni 5.7020459867245785 7.891322420539824 3.6827910070273493 -0.5657599377870515 -0.5826258603044546 -0.10711550013328003
Ni 3.1807207954454992 8.458674286022971 3.4908294084723392 0.18899150897348094 -0.7635317640563237 0.4838438197375345
Ni 3.184123137781375 4.182227787591671 9.117938128390705 0.8593737481583136 0.9487671484214821 -0.24114659371048144
Ni 7.27526381344734 6.305686495530153 11.288295011879878 0.19323537185149947 -0.6124336876945066 -0.2131045999716007
Ni 0.56652880548041 9.242007203978721 0.48495832483635076 -0.17753235929394587 -0.9169952553265239 0.027246237310462752
Ni 4.526820990272659 0.3130163973786151 1.517729864871577 0.12595525854760245 -0.6931814964675352 0.4532111824533421
Ni 6.120768738336285 5.470461088366753 0.07990450612097531 -1.1185458319119381 0.5060622648161026 1.29237863086711
Ni 7.963692137227848 9.009853744434794 11.222463748832016 -0.3602087246826764 -1.3563497344024318 0.10618887455395261
Ni 0.0814152544154728 4.980027429060441 5.763672604429511 -0.2010828929203763 -0.34166644290411485 -0.33840268455117845
Ni 7.879680453395847 8.830432078706572 2.5822171918324455 0.0357820426956158 0.532349994868038 0.2364435318078573
P 8.589678003125274 1.5782085304674278 3.614198161075569 -0.46061827355069057 1.236792408961373 0.08497470237018268
P 1.8745011066720088 3.2624311601909004 1.6240336595891116 -0.727531948922947 0.2629500627388181 0.040165773585608244
P 4.599876590296298 1.108071603026855 8.358029028824252 1.2235761673814152 -0.1415968217396013 -0.8769168992483994
P 8.422683460464691 1.5659528782336907 12.568401497606006 -0.2683306103244411 1.5305548290953577 -0.5409850448352167
P 6.43752951724051 7.66174102350445 1.5048117937321284 -1.291109277236383 0.21541525038264836 -1.1288634117878622
P 1.8689959904256321 3.238750135550749 6.023012313449806 -0.6607444589847523 0.028067447660177467 -0.40846730257874814
P 6.901358122949579 3.875132548851167 5.925690882994597 0.7451062103612844 -0.10977839167742386 1.1434276827552823
P 2.414327390923272 8.517750500693106 10.169692392217128 0.22310850526184797 0.8428991475420581 0.1494710822813555
