# total energy = -381169.89157986734 ev
CRYSTAL
PRIMVEC
9.20328981107329 0.00000000000000 0.00000000000000

0.00000000000000 9.20328981107329 0.00000000000000

0.00000000000000 0.00000000000000 13.46994492129462

PRIMCOORD
 96 1
Ni 6.800273921780731 2.3615641285498032 6.858262929643472 0.0430729199300742 -0.7793545900211933 -0.05980951595846473
Ni 3.9140946723434586 2.109642480495268 12.837544512074766 0.5665037579316115 1.0999135615227316 0.03688247484864615
Ni 5.010427350634054 6.040063788707968 8.518285135760678 0.9645804613046549 -0.15960251428840255 0.4789957476166138
Ni 1.8138119374395203 5.549491636298698 3.7536288746967093 -1.1509075360720953 -0.7418766476803933 0.02447124566848689
Ni 6.360641977678254 4.68895644256607 6.903306590260624 -0.8665707801273851 2.4159586827688453 1.6052811142646546
Ni 6.185834693743433 8.817441747702077 2.969476383555271 -0.7295124696880856 -1.257310326409067 -1.3492393486098957
Ni 4.580155152122907 1.771642464185369 6.1312766722685454 -0.1208873571063918 1.6888663924864784 -0.6066407351618133
Ni 7.564689958231308 4.539292546001469 12.586639827528433 -1.2118902464030548 0.61000939452373 -1.2581572477903944
Ni 3.3101471945265306 0.5030177610259415 3.9495899199311086 0.5289551102538762 0.7512945985601835 0.49037133644340714
Ni 0.49450563841294193 6.5603257535829504 1.834121757076635 -0.38073872631522815 0.11908527090064651 1.2645888623483512
Ni 6.233351278294106 4.104207026994485 3.1793647670427263 0.25297881045871917 -1.3570745283835983 -0.032642211515053456
Ni 8.323206686005344 8.67332743480667 2.4326043214893045 1.4532127035697682 -0.12554336782116443 -1.2928393725536123
Ni 3.4530006567375597 3.120835526076533 3.9370900119054015 2.245885865076738 0.3193672651862823 -1.4302990321963882
Ni 8.325682370925763 8.256814154347675 8.754373444272122 0.3421055873240624 1.8272845593877822 -0.18189295025548674
Ni 8.260697942587143 9.028289113972832 11.716642731689173 -0.22228163848517846 -0.5934746300935005 0.6395529125088019
Ni 0.46168210581561975 2.001393387432124 6.880420769845719 0.8794568920614338 0.39064030169965624 -0.9198034141992804
Ni 1.279919900567725 3.7890955920863916 9.001411826829353 0.7414292757303296 -1.1887474897380044 -0.36938602030657025
Ni 5.094674264245687 0.46208797088993403 0.5203926515882533 1.9719155399680168 0.33974171507757617 -0.811269693562235
Ni 4.174943511374975 8.311297629176257 1.989389536719468 -1.9868852739039717 -0.8735235572961342 1.2430623011304849
Ni 0.4419263242164576 4.5789311145971965 6.030750059564974 2.3155632749682185 -0.49305145437873155 -0.03195084187498368
Ni 5.6763957975168315 9.166955079385382 11.746828601467938 0.984113132020944 0.30196989564544124 0.01848597461932945
Ni 1.752002644036011 2.5083934118969724 13.399039055315802 -1.2061091209449035 0.8116892975981569 0.2341508791189387
Ni 8.722003633855383 6.521036909994567 11.018764638873005 -0.153706974739574 1.153152366242214 0.1355236189623279
Ni 1.5999090789993233 5.484001027028393 10.618667266193022 -0.747078760706623 -0.02643016916707061 -0.9576320550112798
P 8.913238789845783 3.4149358506748864 3.1909627526810684 -0.7423849547753796 1.3614207211674358 -0.3355035086265125
Ni 8.406367611436272 4.30897101879536 10.25771332512468 1.35470679948237 1.085036387300583 -0.4741636163352931
P 7.260622470923603 6.633740395256535 8.168416557096227 -1.024850461839306 -2.202420594804252 -0.3670362891274711
Ni 3.741137249631703 4.4715563340524165 10.00189224323824 0.8184289303148355 0.034722748193166 1.1134182808773858
P 0.15120544758382304 7.066856410274783 4.297504640199256 1.8138330618685667 0.028284705877306124 -1.7699425311332035
P 2.4488481277515426 8.82797951437078 0.2384314660606604 1.357405943581088 0.14382108308442973 0.1501269706977995
P 4.9359083142004305 1.5914420525056918 10.200277434970925 0.6750500769741471 -1.17338720523185 -0.3766761262100803
Ni 4.870169216109116 5.499342910903266 0.4123441902398495 1.1680249124786724 -0.33032942062474074 -0.5748022504949779
Ni 7.6591985398216345 1.8168214131606262 2.479762898071931 -2.4320872128995923 -0.26404972356090006 -0.39433163450831443
Ni 8.45913007109713 1.9140909816510505 4.811141156842972 -1.6457960436595658 -1.554153442350904 -0.07337414201677686
Ni 6.249429425342338 7.243421522535998 1.1939768206704662 0.09304513808314298 0.5627460906613921 -1.1552611850551007
Ni 4.246361039190822 6.307097238395702 6.309349283377215 -1.5072768324040235 -0.6752742771698113 -0.7615206471635659
Ni 7.644786188203128 4.019371102844165 5.254086285225565 1.038087015134238 -1.0848160437596608 -2.2403176269603415
Ni 0.9123432722550182 1.191347440812607 9.521702321902302 2.5081057345177515 -0.9266469194836752 -0.08246684834666443
Ni 4.211821093070607 7.514780518367218 13.149386938493146 -0.8447799095045386 0.614832012723354 -0.3917443333971124
Ni 4.860376915903439 3.522163378584995 7.9474428112048825 -1.3641409483120763 -1.2321492537624068 0.25769961297315613
Ni 1.7512387709936508 7.139332316402333 12.392160511930422 -0.6847009698003498 2.168574078568452 0.0009597928101080244
Ni 2.800625468692927 6.3089194897497665 1.6010650121814973 -0.01628870985769453 -0.34798390048171035 -0.675353981367811
Ni 6.311616053622195 2.20288100811155 12.454579983438853 0.2665172112647861 0.17867701442135034 -2.0593577300420853
Ni 6.457147673126318 7.132853200476772 12.128755919358381 0.17341756579462392 -1.3314961656938615 0.3519649966166455
Ni 0.8974725968110947 9.220223719977923 5.2626131331020325 0.026070214724490587 -0.6576275106223254 -0.854455999141722
Ni 2.8201272394972796 1.375808975608101 1.710574955929019 1.2954251310029175 -0.0859938876633164 -0.831386261806452
Ni 2.812175597225 7.454784273028105 4.337282178468957 0.367010063875226 0.17072407812286083 -0.029382566927175204
Ni 5.535999613646889 0.4256291388741505 7.785507248198314 0.2885572217839611 0.3028574404567171 1.5345168990668991
Ni 1.5920862827823814 8.782754548947189 2.569917403320805 -0.046034830771875555 -1.9315895866554602 -0.07450748429027168
Ni 0.6825684204551292 1.6394095982500474 2.194819846692233 -0.5929087302877015 0.6194828812318041 -0.37656916831857085
Ni 4.024202829919335 6.780983826638718 10.749649405062598 0.19739130300140198 0.6511056503434077 0.1385246105721808
Ni 3.519144699574222 0.06694012739285655 11.571544587128367 -1.2322901502156454 -0.49998931914914535 0.0773737500944732
Ni 8.25480783720027 6.40408150490645 5.940164840359685 -0.5340525793814415 0.2607725954715251 1.654776135670989
Ni 8.250123362759771 3.9716336393414844 7.745945987235788 0.7775399054099577 -0.9617504480550274 1.4719599022702845
Ni 0.2521434473355098 5.786568378120378 8.280890880445488 -0.15636163875360168 2.2092098498119435 0.38493810910855636
Ni 7.014416065752269 0.7875531066733917 10.070683152183129 -0.25533136985129573 1.5081679767597254 -2.2761192100399827
P 5.291035652580598 3.6502639674598374 5.21804068091583 0.14837527811401544 0.03977676567730569 -0.10928576831172145
Ni 8.612484486818195 2.2136764668909303 10.86126138017006 -0.7963583236680414 -0.4382720446450065 1.9572103725473584
P 4.147002323945991 4.219827955080889 1.874019858440973 -1.7018478923478109 -1.5550039632766575 1.22175814033607
Ni 3.1816048477476717 7.416783889993101 8.135374906533798 -0.5110862003932554 -2.0414813639822973 0.5377822216272029
P 8.524436614574094 1.9563248779328706 8.598471557971234 -3.6345574515403274 0.8120500233716854 -0.059357516022710666
P 7.402316318636592 0.7256655853077131 0.27599653349441616 -0.45608516156702744 -1.0025235162073314 0.3710945183572448
P 1.0061956592920889 8.19403851552913 9.550595129482852 2.1356996964379347 -1.2069830389094245 1.2681007321563516
Ni 1.3487605072768152 2.5309414715811 4.320256092585024 0.5895346716091461 0.5542776481790648 0.5454991306554863
Ni 1.7394125437715677 3.9638200464142095 1.8486555921187469 0.386612925707818 -0.11639101189793505 0.39180655409361553
Ni 2.8843477947935408 2.1031357547007055 7.881776419101937 -0.47935467361792927 0.3722234897553654 -0.05694453570584386
Ni 2.802180824646648 5.166542753255216 12.443508425969462 2.7636345650918344 -1.634103952033618 0.8293342643734298
Ni 6.158344467508132 0.8997494906747082 4.618681963326863 -0.14253141773872874 1.992770014819523 2.1429039274958575
Ni 0.39161838190978654 0.03453902579124925 0.3362513912731707 -0.397887727290689 0.2990879461119559 0.542027370056802
Ni 7.691272004311098 5.075494608579677 1.344571169820401 0.5214891408941342 -0.7233464500866897 0.022215102644458515
Ni 6.507195162335413 5.472202409675311 10.380087627168722 -1.3306443592165276 0.5100503029295731 0.20977399293647098
Ni 3.164008157904386 0.10913629018704205 9.09238818584549 1.418697443401718 1.3117524074080313 2.5085741895137375
Ni 5.996044454230751 7.655057059471489 6.501726567615287 1.93843077794701 0.6203061484640479 0.2782761515729272
Ni 7.867873929730981 8.525016421823116 4.749462550152733 -0.2776331186722896 -0.9811890163956133 -1.6080463357146177
Ni 8.41386829251487 7.232736503232622 13.494325314882987 -0.524185971000007 -0.6065337772703038 -0.3623028882075438
Ni 7.282240998351364 6.498553273338109 3.0467536459020916 1.0696421642326999 0.3484526125880128 1.2048420813070218
Ni 1.7151986886577153 6.808878997619367 6.402318154606254 -0.6765243475268284 -0.5218254411876303 -0.7258375919396596
Ni 2.8372729681468836 4.565586344580061 5.643394641428937 0.18100514833389475 -0.3501878501115646 1.3621779110484347
Ni 4.7546311176297165 5.891992061255755 3.0633352128951086 -0.7419743496005222 1.4153580946158397 0.18476050161126892
Ni 6.20174718157766 5.729452762447033 4.961815574613009 -1.5519348374330304 1.840338821468579 -1.3913702163416748
Ni 7.782347758855638 0.2144154816746483 6.642218465697766 0.26870290606219527 1.044011608148789 2.1520709387071064
Ni 4.9568273916135 1.6113671746347267 2.4850704352228843 0.6312770456532548 0.6807026472742341 1.3785751214595354
Ni 3.020436839099332 2.282020095958003 10.618303736251173 -1.580406205399846 0.07867704228692901 -0.35372723072339085
Ni 6.390911597392987 3.172217492287342 9.700367624865525 0.14302944042106977 -0.3572403860829718 0.11430456168255153
Ni 1.5067073645417088 9.054398846758085 7.574351571723715 -0.6591118084773359 -0.47036918228986735 -1.2748961578116302
Ni 5.8017077896225775 3.1229430794102737 0.9791168201049022 0.2450027342317781 0.878967611129841 -0.11602591524903244
Ni 1.300489252973449 0.8115709317173373 11.804292101490693 0.073348430985164 -0.2473282970411611 -0.14962020626471007
Ni 8.393602648668155 2.60831352781149 13.621347278208859 1.2335145095410496 0.278379767030327 0.4720617395009418
P 1.1278079289517033 3.290801879646516 11.513596994069125 0.5379794252396735 1.3316478607803777 -0.383901697424242
Ni 6.226191118933187 7.9322233310825805 9.71402530673134 -1.387729534265294 -1.6130908401170605 0.04885250272632877
P 2.4842623863901228 1.385500039627442 5.78297081218955 -0.18704621232165203 0.22277503318182923 1.04098644816922
Ni 0.6827764148016031 5.260655593389862 13.286295075579298 -0.9959371212390653 -1.1331602393910034 0.1789220405526209
P 3.0822645390821752 4.796036717841506 8.002157288604108 -0.8410574663476289 0.5645031825618149 -1.0910031464069792
P 5.028180496401679 4.258040013778234 12.131449722243909 0.34845312680864504 -0.5004819425148477 -0.7029010377481443
P 4.960370658135291 7.719056735815743 4.438615919676324 -0.04143692698854799 0.16023680543829177 0.4173394082573974
Ni 3.9194693935089813 8.794635995907274 6.32240138878294 -1.3716331429240636 -0.7305961896705676 -0.8278188561701679
