# total energy = -381166.92596243514 ev
CRYSTAL
PRIMVEC
9.25256729893203 0.00000000000000 0.00000000000000
0.00000000000000 9.25256729893203 0.00000000000000
0.00000000000000 0.00000000000000 13.54206750581948
PRIMCOORD
 96 1
Ni 0.32404895924155974 2.6024695701025484 2.572478298852396 0.6071007055173674 2.9280987783479118 0.027541657063694505
Ni 4.914676855270027 5.787536285123066 7.00808775912712 1.6136181733754402 -0.9553918528268514 -1.3880144124955645
Ni 7.611605883690836 2.645632795987031 4.235836357081917 -0.6163106541514095 1.5205725210716652 0.05316012896274716
Ni 7.972456003625415 7.554184451785348 11.456331599883145 0.5545363011570901 -0.8326764413727852 1.9656466762401694
Ni 9.306787221471716 1.4146897637855773 4.951886979432307 1.0743233717584528 -2.0869523518309028 0.20422323832157085
Ni 7.712699432675585 1.628442570727338 12.518327381701383 -0.31118318671359313 1.5921538328540774 1.947964171358742
Ni 0.8104138539700004 2.056262771894905 12.928598238702797 -1.1640047355756855 -2.650843097619699 2.134945077660097
Ni 2.9374865224766835 4.940833862681695 7.403800626930971 -0.38905058861503317 -1.5119521263925058 -0.014548330127820103
Ni 2.184049977187636 4.39336871533787 3.466349383509522 -0.8097059486195409 -0.18210172383218318 0.08470705053109283
Ni 8.350802728093234 3.0728423277208625 10.294002830102174 -2.4502034628843288 -0.5558984716119394 -1.0248954561446286
Ni 7.573550074888504 6.105556271591565 0.9894621319412324 -0.6035674955531283 0.07866958608776128 -0.45025158560438583
Ni 3.066421046099463 1.3245512543393547 3.448528013868343 0.27989286124074375 1.690335006612205 -0.170308587851997
Ni 7.363257728071244 0.6873935712872775 8.39434808500216 0.9847595073556913 0.3642790380973081 0.3356017247672736
Ni 5.650931383309882 6.202458407644766 12.634275002033386 -1.335117564496533 -4.56160237779337 -0.8118265945069696
Ni 8.301273735990419 8.154565030819066 5.212111730281335 1.0190960758540322 -0.5084832155527693 -0.1843118441096245
Ni 4.838010083634695 3.619132399033106 8.98774852735694 1.2979844070896613 -0.5072519142488296 -1.2728583014459949
Ni 2.2817663391524845 6.110330596255315 9.411804784196574 0.29049171980251265 -0.14155928363344653 -1.3397668903430862
Ni 4.6605736028658376 3.6136271215623093 3.150304820133486 -0.029007700086259722 0.6411994469732892 0.8783538888052421
Ni 3.2575420737243013 2.326391470651061 7.243814487859462 -0.5249560163968121 1.2005889624576225 -0.46535013180872115
Ni 2.7507327065597718 1.3859605426984782 9.452471667456484 -0.690213929198779 -1.2487004732528688 -2.218981841597043
Ni 7.311202785128886 0.48050154290786257 10.762977524819924 -0.7640269585251874 -0.373160399747338 -1.5904787591444998
Ni 4.173240889610598 7.542711268484863 0.9162197354184082 -0.0682573896155018 -0.5084060824579308 -0.05460457471875758
Ni 5.638532943291617 2.642838520699333 6.266997839480142 -0.3294593593149616 1.3728564738082034 0.8008526119939691
Ni 6.3064017473202805 7.888757280934948 7.4186287910901285 -1.0271575127059278 1.1883191439513339 0.38886032698109807
P 0.8460325365776967 8.116370433509069 3.820298013586174 -0.9143704161091671 -0.06940358740480304 1.2300892859095849
Ni 5.969247451928071 3.768903703940312 0.11203656018594492 0.9666134325742837 -2.0866060242350772 0.8193763818297695
P 7.1305186532806175 2.8005762859466325 8.252847649895198 -0.9692750385668468 0.3767995391618221 0.7889658878587122
Ni 1.1462450322557831 2.7473555195398713 10.842104554067832 1.918498043578825 1.1821351266278093 -1.0984693728770372
P 1.8664371036749607 1.4969265808619505 1.46462864461437 0.8148486691627451 -0.4460421755087286 0.0505399177310807
P 8.460612195359479 7.261229669801536 7.491132832752164 1.5321478846140903 -0.1581853222259018 -0.8230371185108084
P 3.692570024723382 3.644031057308592 5.122923459484273 0.4191864887684652 0.22329388179977672 0.819047537735441
Ni 4.408237590792611 2.2845883721417164 1.3131363622120908 1.4152387954291563 0.5090426876006653 2.456106458632325
Ni 5.093158876129977 0.7845621812751999 8.754187824600924 -0.5330922723507012 0.004649840067185541 0.4199385364431412
Ni 0.6753060175261869 6.201773717673608 4.83025273131282 0.09528199783346171 -0.8185952806893708 -0.01764805209906638
Ni 7.098810105562263 0.8151104570694566 6.07724619179762 -0.2331653752772178 0.0784099046684714 -0.2055974929612782
Ni 7.676799472025683 6.081869699616372 3.8212464017219 0.31180102280325006 0.8115921098986604 0.46914122342003717
Ni 0.08277809225627493 4.742699389136077 1.785317996713667 0.07926788179339252 -0.11773261352749402 -0.7052924207984562
Ni 4.784437719675178 8.869002005453646 3.0437281998391663 0.7655503371482493 0.7765469453690691 -1.9683918430854745
Ni 2.0950217758027505 0.6343328742926919 11.448166209348729 0.235901029040826 -1.040236457377073 1.5338219298824036
Ni 3.308181373888454 5.842820374010478 4.956125580456462 0.5237511974554334 0.27145707176856476 0.3644309902941401
Ni 0.6556711447181568 4.980111010351497 7.374210917096335 -1.4580504912780436 0.6539449195644158 0.13440004688084595
Ni 3.335208122614836 6.82706220754999 12.269248273274743 1.028405526180416 0.9839521809630475 -0.6338972568849212
Ni 3.8852824939028037 4.056242177647194 12.96723325821046 -0.3035765780109288 2.0088576644100047 -2.0979191352550512
Ni 6.721037040259469 1.7336072492703238 1.8131201105695498 1.0643896575845087 -0.06598427731060895 0.5029486588877855
Ni 5.58955910521947 1.631505170463193 4.071733750873001 -2.574251219996573 -0.08348140565410783 0.5045142036026924
Ni 6.494506438045153 7.896279618050508 13.14643605405356 0.4902170702537299 3.842159376526144 1.83830122221326
Ni 3.226703267320661 8.32589481725057 10.093431230361922 0.3301247608131024 -0.03051513786972164 -0.41108185738345976
Ni 0.32212627578201086 0.44886794098364885 9.605646066571689 -0.7227941771276455 2.8572584584965823 1.441357604003395
Ni 2.33353445251233 8.572799572390423 2.464574860424779 1.0467698876202165 0.17526747451916913 -1.4316360058402569
Ni 6.957421626518152 7.922260826685797 2.249134385229785 -0.14091290829869924 1.4865290583337107 0.3938850338891991
Ni 5.250831873407034 0.3171308147627114 0.6962612316704904 0.35809270678093813 -0.5908631606125824 -0.7272409000450895
Ni 0.06774267059233409 6.309140507204913 12.907391354731258 -0.7893926909834856 0.554356066825484 0.7802863578068432
Ni 0.980115188578209 7.862489242717147 8.904925097521494 -1.1175341028179722 -2.689703779240639 -0.5458269463085503
Ni 9.157746869371556 5.315201983263056 10.562446636375252 -0.6522472201470186 0.4996792441078943 -0.1497996692653678
Ni 5.089022978601496 6.5377621896014135 3.113104873795102 0.7893209572052858 -0.5666022311826886 1.2039967025875908
Ni 0.20052533690436403 0.15173655017577323 7.078343426964948 -1.649589449263727 0.18456946864638538 -0.44264471979140546
P 4.3268982727324845 0.35409482063806136 12.288992326375471 -0.20436490610575772 -0.7893168434402278 -0.9827401629328171
Ni 6.898852876282617 5.0989602357504635 8.378693666594023 0.36262376188207224 -0.6266382613296627 0.8292483895278427
P -0.06150644031449031 4.135157323106733 4.045259380407134 0.06740866846196132 1.337151049986794 0.5797030302307049
Ni 2.1903787331372575 5.095499775625963 11.279323512974619 -0.1013793689804512 -1.503572644079559 1.2863321675627137
P 2.3352184197386916 0.812143158775533 5.439983954736434 -1.3322723817382538 1.2322104460176455 1.7899837660547946
P 7.220981002578063 0.42998067560358577 3.849210435503394 1.1191425849556726 -1.4572585915043677 -0.8347592920437429
P 2.7356787797614754 3.5007920648289192 9.135031816950033 -1.4776248138655455 1.2642875290578486 0.18015642718035427
Ni 3.679727461480582 2.6032282806111287 10.983998223279851 1.2032953056451923 1.0479855051948725 1.419919231623961
Ni 4.600598462419275 6.561929895069852 9.101786417823444 0.4298424258204146 1.204780631941467 -1.0022196118136677
Ni 5.4935544681825155 7.967145030065352 10.794625930851621 0.003624741236780854 0.6998113430792271 0.765423581762398
Ni 3.3420642748935934 8.372509250692376 4.694100280034632 -0.82100877522687 -1.309812252962525 0.8540338240026388
Ni 2.2977270175342066 9.161059288421212 7.684432839947376 2.694970169845901 1.3244834818214544 -0.48201550827954404
Ni 1.2413614228436674 7.494153795935718 11.235582001641523 -0.220619163181091 0.026542526375218808 -0.15729983429715488
Ni 8.380901329122649 3.1845948340944488 6.639892026110077 -0.38853096866613734 0.171738121209672 -1.1474303761567721
Ni 6.054028724978342 3.2274527252620633 11.105240162551 0.045768464484366334 -0.5523068976059392 0.26138837467865306
Ni 3.1158575125305004 2.020584872857271 13.229313148778639 -1.3666575440863429 -2.3798015161219985 -2.188688075709508
Ni 0.9020457277587215 4.186675617152778 12.935477522399498 -0.741294035704046 0.4350640792306701 -0.1516413504597969
Ni 1.8475433614978731 7.027704126800796 6.895214766868302 0.12970572672897018 -0.6213672427387106 -1.170663892763416
Ni 5.864036510549196 4.883847301433565 4.991890453625567 -1.3561255342067677 -1.3644014010623147 -1.672230069481378
Ni 8.522743183958472 8.710348236055742 0.3078181058982459 0.17465940862152501 -0.18962220057894438 0.5034867907794425
Ni 2.5536807833739577 3.718384687149471 1.190078144003939 -1.311527950102051 -0.06462056419386292 1.3721167674287016
Ni 9.2772715321745 0.6066862035653964 2.4580073882419695 -1.1850412445310108 -5.276111432094087 0.10152695030190902
Ni 7.059977081116996 4.341517328873424 2.584828625521336 -1.0164537531351785 -1.265960031664265 -1.1439930683404491
Ni 4.5649113108144626 5.151163219767667 10.748812769727413 -0.7648347991384634 -0.5309878244131887 1.4807119374313016
Ni 7.792382541210882 7.799395987131662 9.405358520643794 -0.8319133379545156 -0.5749583164568679 -1.9897713372025152
Ni 4.757235172172416 5.100375878528669 1.315239470731607 -0.6531404213852494 1.0724708919307466 0.1259917682124927
Ni 7.629296792134807 4.491492190258542 12.512517694770436 2.29941031935744 0.8271107743595497 -1.4693011244911984
Ni 0.7490249212586683 2.7017773736219803 8.306907624144987 0.480126004566315 -0.3901253097364507 0.28687032099984144
Ni 7.12476355649602 6.0381235619996865 6.268013771356266 2.2992689086835694 0.7073405615767366 -0.6127152234906674
Ni 4.356136385014364 0.515955529819794 6.4707245646280285 1.4644314551037232 -1.5441850182842827 -0.7880420904928622
Ni 1.4351009269798256 3.081465720330581 5.644387967801735 1.044741544336278 1.018214187469711 0.03912524813623584
Ni 5.909494373093776 8.031764959235176 4.911829840349415 -0.1251157933654426 -0.31055249510812966 0.3947838915543846
P 6.689624574690805 5.330737043554598 10.565601761782885 1.0518228766630917 0.38005712686717125 0.6037667560481279
Ni 1.6261849443359526 8.102519340443887 0.03507278114420564 0.18720459227638728 1.707106055422957 -0.07598895393180462
P 3.9566938073811393 7.606637255116352 7.1775263208274795 -0.33168824864548035 1.2671257698375917 -0.2746892055526173
Ni 2.0442806973996417 5.908310044495016 0.4284086644400759 1.8413477223490673 -0.9512598329363489 0.6618168661133247
P 3.0922357085255516 6.20489183281253 2.4050438432027508 -0.7992212470381331 -0.06580815674406086 0.21266468422070472
P 8.107821061436772 2.992539297184652 0.6687801818956776 0.4109041941550149 0.866114923536889 0.34323841537692495
P 0.012442852340718551 0.10167275969008022 11.93558497147872 0.1730622393377342 -0.18054389242676006 -0.38339621854273326
Ni 0.6694917043116513 6.931579206390531 2.0288455648336194 -1.1912815690137677 0.6909739472932551 0.10697331812846093
