# total energy = -340865.7340204195 ev
CRYSTAL
PRIMVEC
9.34352751199187 0.00000000000000 0.00000000000000

0.00000000000000 9.34352751199187 0.00000000000000

0.00000000000000 0.00000000000000 13.67519697203330

PRIMCOORD
 96 1
Ni 2.7607694292157485 5.348963906464099 6.314809010543464 -0.9591523483105482 -0.9658917239169107 -1.1568647820967948
Ni 7.014942881052237 9.314553169536914 9.229541085049888 -0.23848215950444088 1.5204753333721686 -0.8124721985107685
Ni 3.505999834953034 7.89722414739904 8.86294965432707 -0.8063331754925661 -0.27478639325211385 0.9378381602138042
Ni 2.765273009445758 9.157077357925733 12.558069959652693 -0.03576918717980936 -1.7856887382238664 1.5398557947813094
Ni 3.7086142276662457 3.9150688101606486 13.27970982728888 -0.9538077961691832 1.4869404348395168 0.007768845312141459
Ni 8.063529592448727 8.291240699887679 6.406446590343976 -2.203726200989553 0.1580940480636761 0.6798050751606293
Ni 2.2684402809176367 7.210904682222363 1.3713355082743373 0.09331613235634251 2.189699547693158 0.9938624980982237
Ni 6.667653309331815 7.626187103183 10.837237938474678 -1.448391628032041 -0.4917736161075724 -0.17738914884786225
Ni 9.137857721964881 0.6600258445848283 4.520158450761313 0.9991376304542342 -1.044933605742426 0.6424178927614226
Ni 0.06382470164559269 7.225106843943557 4.938127135863294 2.274170313843729 -0.39853410262543626 0.5483926501531975
Ni 4.752024624856459 4.681415587930761 7.5763328437778865 -0.17375360897780395 0.7760687201810699 -0.32555745315739415
Ni 8.265929084030631 3.01145627064971 10.055344465383582 0.2903603364309709 -0.9758141252369453 0.4715554892884846
Ni 1.5635365396465817 4.444211456604486 4.084343628233358 -2.021906270063847 -1.119945283362626 0.17059809406795778
Ni 6.999171006719753 5.691703180317271 1.0197460452222744 0.9624359041578264 0.048543713236658334 0.5510401150783736
Ni 8.67603519078499 7.574106281186991 8.524091681775861 -1.1742431254742423 -0.3095741903552604 0.733764302985904
Ni 5.89696179129831 9.022287630958669 4.776541106527669 -0.994906623092022 0.10953413687710167 1.050459420656662
Ni 4.048952214965242 3.354326353887156 2.24977471613446 -0.8182062727810683 0.3668714814148327 0.09291349760128516
Ni 0.9023717190658236 8.863587817251778 2.6310672529442036 0.46364626174373696 -0.28392255122542714 0.6361757685064527
Ni 2.324417353859525 0.5404707391219783 7.916722220477848 -1.1379309213067692 -1.5576054054552464 -1.6383735259432493
Ni 7.792128150662209 6.44435234684839 12.507827009505736 0.8583969860673409 0.9733607786004463 0.1122862457009421
Ni 6.804947101654984 0.8249858216819806 0.9321289852827033 -0.7559151280513303 0.08093267109032513 -0.5596916201057844
Ni 0.19447711465861464 4.805759251210791 11.098543698853467 0.30389436636166367 -0.5134559861770125 2.8211066911663734
Ni 5.928524227018173 8.052541604169699 13.193897936852293 0.38139050096661414 0.8381809161307823 0.6291553713245617
Ni 2.134790464299247 4.5224354684004275 8.395449061516937 1.1712225934803635 -0.40075347887425816 0.5255463416826434
P 7.32149467309871 2.213827362983179 8.106287442756967 -0.7798875797065279 0.6646638486438166 2.359153500854344
P 3.3382741737312283 8.798939950838003 4.0763296847410775 0.46943638606295285 -0.19603478897350754 -0.6679492042633077
P 0.6942652009185872 8.955032920386857 6.329236351276158 1.7914271833695405 0.7384884479344507 -0.194744095186542
P 9.007861224578718 5.257387993944745 -0.06513559854656865 1.8323403766441346 -2.193143026157068 0.8447547126935581
P 3.405285952589386 3.078748355331313 7.195355183843146 -0.6729014060622605 -1.2085830364066925 0.538444280691234
P 0.9830792404574851 8.547141229637711 9.190347790463118 2.331811361395965 0.25692056871528657 -0.005775726141512633
P 4.598874866453773 1.6287543612346942 1.016059089291233 -0.14758774921571358 -0.22228138137486234 -0.28097452434069675
P 6.850992004919486 6.827689247463789 5.196984892050666 0.21308248848441363 -1.472715035268754 0.1776899679177327
Ni 7.161514796131423 1.8425436127758974 3.7795101108846016 1.090163167004187 1.1776068997401525 -0.8963937770260885
Ni -0.007481362427736619 3.215743154776141 7.610698337732196 -0.6266652579128562 -0.27326661417347775 -0.23546882659941382
Ni 4.528200424835939 5.708129101571124 1.4563812294601766 -0.9705531339483221 -0.024081723539552076 -0.4600431177735109
Ni 6.458657287371514 7.109106950674729 8.208468258929976 -1.6422852022928298 -0.5373711022317132 0.31655190722467424
Ni 7.5992403700225255 1.2432123881415307 6.360511940703363 -0.4800732969515087 -0.7580730549345976 -1.8520648516562555
Ni 9.169280004773022 0.8186537131303671 8.167839798527169 0.2990645490731882 -0.39728531781999965 -0.012098840146063035
Ni 5.235692323210133 7.180005636951319 3.2026631507014716 0.21353937351617416 -0.932996772961103 1.4346693933499421
Ni 9.02227828743122 7.913491228686276 0.7263583489975053 -0.07823635520508461 -0.7422083199881992 0.4470724165454559
Ni 1.674603050422784 5.01476461669854 1.482076864295344 -0.6674496389190698 -1.5446704425611333 -0.12247578463943423
Ni 4.7584155976309965 2.9691581218919185 9.347106019166281 0.0041538742673734915 0.12628564530382766 0.2624137306193739
Ni 1.12616601979851 3.119560883224848 13.439764452475753 -0.6059717341192468 1.4374379572340148 0.19982356659197845
Ni 1.4869476451540664 7.074180845073531 12.406863654959222 -1.029847143722949 -0.1687641261830126 -0.3392722316403254
Ni 7.9776625752001955 5.752118428797032 7.049686787868196 -0.6460488046457906 -0.08989245138677422 -1.7219220373898667
Ni 2.702699406125473 4.216528379747878 10.85072158293511 -0.11266085543154145 -0.4503564866133663 0.38948201972549695
Ni 9.03411653670803 2.8562135620986373 4.987877682113733 -0.40335903481790536 1.8866536453747185 -0.33191399150304124
Ni 9.073976024801855 7.743354937382847 10.826311617476808 -0.7308232180797091 0.3293742558003231 -0.3001521257104121
Ni 4.696103613079259 0.96245807537941 8.05445889600206 0.47985218207963815 0.25531285790853453 0.3477537867487753
Ni 8.811376185871497 3.238111559487021 2.356004082750753 -0.7323494249162484 0.17850989271586676 -0.16403149659403363
Ni 1.484368831578376 6.492518230843623 10.005170657339741 1.7091457115608049 0.2697652858884386 -0.8771184737362443
Ni 8.45322943525632 5.207353404459882 4.02849456161751 -1.5024560139766125 -0.638757670301016 0.39483814183108773
Ni 7.719996118762462 8.09899762264192 3.707578030472246 0.31308040373630597 0.01631390666867513 -0.7737426431510546
Ni 5.766030941167332 4.4122565927318 4.423146473972623 0.8426685195884906 1.4138737967608295 -0.4438706217787065
Ni 2.5461112296218666 0.6592409882791833 1.00835721961572 -0.4173113832329394 0.9636378948857276 0.72408692779714
Ni 5.663448353314054 5.7210605435593695 12.775464878436138 -1.7568967536928386 -0.6507423534667179 0.5147482226258747
P 1.070403847987929 2.6229617428829304 10.964444458564822 -0.604500806000675 1.7950979473529083 0.2897838951022106
P 3.526237915405735 4.97696070464331 3.5989156093084533 2.273981080651058 1.1961931473827723 -2.0537390983037276
P 4.909257504753989 8.295445287239348 7.325296554417363 -0.2917289346437234 0.12094006472119817 -1.0979860054827155
P 6.250950672199059 3.321427793742207 11.59506248485933 0.10150252482187681 -0.5181649616169076 0.3810775977118856
P 6.990808549653656 7.75366084815816 1.7398404934185374 -2.366264915088144 0.3690399498210612 -1.3024735532092664
P 2.999935701306137 6.1768004383705115 13.430041577813203 2.834582614165621 -2.122907943989905 -0.21156193807482918
P 3.583709952739328 5.906510876350323 9.82123958211186 -0.07020731425302103 0.16848876103443886 -0.8401316120992498
P 8.270815748886015 0.5035927706368607 2.44273163887726 1.1414708161392277 0.6396848101009758 -0.1704183739569839
Ni 2.516520278193564 1.5622191022763923 3.825800748920989 -0.8792612311108599 -0.33198212573681535 -1.0534601551561988
Ni 4.991573981572222 1.3140643567808794 3.106580854893873 -0.8488178270193383 0.2881535585876392 1.5410361882426558
Ni 2.7795499193865374 2.069638047403272 12.252429161532415 0.01793087344680783 -0.04840641632784566 -0.43590071619935256
Ni 1.510521364905758 2.083821522069569 6.161373340200865 1.3278012333407778 -0.3940896937008374 0.028928767219208246
Ni 2.4992254088870314 6.645649302191413 4.057129670187866 -0.3633907219550839 3.037123579688763 -0.0778180367207434
Ni 5.132287504941416 1.5826347097506077 12.633721698342157 0.9230664012212684 0.618741117969773 -0.5525131000794743
Ni 5.319615886749448 5.017165903252715 10.656493006106615 0.5734835316835543 0.25839869592270975 -0.8242589067330515
Ni 9.33228718463351 5.106265780998307 8.87375357511537 -1.8915528824485488 0.46780836354122657 -0.013277690945512616
Ni 2.6866659130244415 1.7465014941363264 9.642941719582467 0.03854520726304974 4.851873754054961 -1.4316969409851796
Ni 4.811813856997195 6.5760587097575645 5.828396183825523 0.573922933213818 -0.1071044443896865 -0.01115190285176144
Ni 1.3720596316515692 0.5303834668889517 10.82612007516412 -2.513245112626846 -2.1167583794487417 1.385146604029466
Ni 3.6880771543352044 0.7756790929853291 5.851835356781962 0.8623189468295664 0.22646739443175193 -0.29287230421954724
Ni 7.726060068076314 2.9141714628595348 13.21442473230314 0.24869895213644266 0.724578779831894 -0.7927101853924929
Ni 4.205353520919886 7.380274804275045 11.47902895489169 -0.5643797696100732 -0.39446404632112064 -0.11330543099407583
Ni 3.8414231268143015 0.3696392893764061 10.689710180537546 1.0582799451423452 -1.1416104270408856 -0.43065823685349064
Ni 5.757070498344554 3.6511702209149974 0.5665335745858581 0.9518187907636124 -0.806908845490378 0.6280708800111312
Ni 0.9172886606368009 6.6546377755965365 7.239594917604664 0.33624655744012416 -1.1067043591923198 -0.3567266796713469
Ni 2.781100944942931 7.630092697656328 6.4406756687975415 0.49825690983907095 2.5706976983173595 -0.4869466270325743
Ni 7.856850765295569 0.6953976364453034 11.850583667394968 -0.5375071135889453 0.609979312616743 0.19239873488281703
Ni 9.146986348281727 1.2995164845441045 0.4875658180050428 0.840941509595055 -1.4787401584169113 0.6092938565139442
Ni 4.768048774430043 8.863298167900886 1.8105410969132265 -0.5968620585084946 -0.7207748327047716 -1.5743306886297275
Ni 3.7948269554303593 3.5355627557989924 4.955535996204694 -0.45911829196639636 -3.4327299671444425 2.2851558663209546
Ni 6.88704867734191 3.561995594949819 6.296115415177943 -0.0350176537257655 -0.14965054528201324 0.3018598524301382
Ni 6.723415481142395 4.305020928209341 8.670471120189616 1.1907835463314265 0.42657558214368463 0.7646522508140121
P 0.12815021636240642 8.824531872518497 12.52478457747139 0.8756601440231628 1.4932085272364155 1.4233724802798842
P 1.4430610967300888 2.628352958220515 2.084427917000954 1.574465928656011 -0.581962772799159 -0.5313032987710786
P 5.825296935770971 0.2676827178621536 11.035938327539858 1.324008856177881 -0.7401336968473575 0.11590918716551005
P 0.4482071429824404 6.521539227097588 2.961911282003131 1.4457552188504583 0.3397859380519503 -1.4436854808056234
P 0.30438969979496994 4.742419478639757 6.058973885485569 0.8548907726862954 0.1445942138050284 -0.32432872295661563
P 6.801237721258067 4.181686365893713 2.616598800690738 0.3264372846591862 -0.3295822580460711 -0.7724956581178308
P 7.709764956206734 5.758752333285221 10.45129699675948 -0.5875950313842718 -0.5120817315373052 -1.8310743654475172
P 5.662158946526209 1.8459913744042662 5.211179578949902 -1.2472480570770583 1.0476823721321569 1.3344768455887404
