# total energy = -381172.61137904564 ev
CRYSTAL
PRIMVEC
9.23902438924308 0.00000000000000 0.00000000000000

0.00000000000000 9.23902438924308 0.00000000000000

0.00000000000000 0.00000000000000 13.52224608855614

PRIMCOORD
 96 1
Ni 1.5712716533866602 8.745133943349874 11.696283466910335 1.2208453987138135 0.7008955772823413 -0.2445329936842111
Ni 3.1802292876055955 8.1096184058336 5.933588851309372 1.2345254673040673 1.0663889474027248 -0.26702757524230136
Ni 3.609040130549548 0.7159098328852652 7.707937034357139 -0.12016770533154789 0.33025562996401187 -0.8521204090300099
Ni 7.280379003131955 6.197380554208375 12.100746708656128 0.8721238487351303 -1.8023302034352895 0.06958356462609307
Ni 1.6792111763245052 8.737419357913504 7.811693127012843 -0.17164890392997534 -0.045777206235114706 -2.180860352134973
Ni 5.079172183011738 9.011393389686067 9.320411041291143 -0.47448166179634416 0.10517611701872209 -0.2738248006697929
Ni 4.085228690999729 0.8153152689158357 4.646689751741542 1.031450740764643 -0.2621476214421808 -0.04144978250435442
Ni 7.35259121842616 8.094641947160124 8.410769952000923 0.08435995160431922 0.3002575409400248 -2.096932602972066
Ni 5.448308166873644 7.168947128942675 6.299324874164591 -0.29313378541105 -1.1721055103059492 -0.2946301674509184
Ni 5.359234731913125 3.741629370785875 1.4094917153225386 1.2750483671187782 1.2530389527272225 -0.7387157334539084
Ni 7.796498627361761 3.635121896641608 8.197483376392832 0.43935242219337883 -1.4140596875193905 -0.6902244707217403
Ni 7.144297411644193 3.7817636931039442 3.033958899927142 -0.11939328905936858 1.2411491432681723 1.516877074497949
Ni 3.6579053309962024 5.515790001636807 5.479376234474697 1.3406366945425492 0.9613028189946476 0.28993404752682966
Ni 1.3388455146767944 0.8929424764546585 1.980386743955461 0.10715663778386061 1.2427913068572853 0.04195037628985678
Ni 3.2146631318227783 4.613118832410295 3.299860796016165 0.735673861303791 0.7426405224296113 -0.6838062259002223
Ni 7.257456983410241 1.2399417576751994 10.079116959445637 0.23570948185531018 0.04596386832462407 -0.08726606950752068
Ni 5.370783512506491 1.1324549469366145 11.677054285271156 1.5534412467752279 -0.9128308395361893 0.11152674182709825
Ni 2.6701797024556626 2.821126884323206 8.424278329685372 -0.5844050636920645 0.4543602084561208 0.3537570555200617
Ni 6.963850024628954 1.60278596586984 4.302427069570405 -0.32700009914119166 0.661603464550938 0.7386475992201343
Ni 8.47596420430415 3.318583679114132 5.287333871743717 0.3153370609809666 -0.07674280137869365 -0.6057920140082728
Ni 4.294538790473912 7.553105766600434 3.6884227527385627 0.24866552779534593 -0.9417930310964943 1.6682358607203205
Ni 7.631766820977975 2.7790708449144006 1.0507921335072457 0.34398377818338177 -0.9393803078899435 -0.6236447259189776
Ni 6.41596663425515 3.716804112022374 12.488375523906582 -0.049350782518985975 -0.10565151399324386 0.08523284112757579
Ni 2.225847298394225 4.8624985810312245 7.185978346659326 -0.40840842431635466 -1.6137703826825887 1.3457860999539726
P 4.268854302434264 3.7976732932493666 11.02691891542613 -0.18919796855733223 -0.7644573611943867 1.1325169493800495
Ni 6.707753505214922 8.00701903904213 10.603712464728526 -0.1311316605422193 -0.21692937303432966 -0.36964852993933756
P 8.84321542717322 6.523702898654552 10.585187296754318 1.4994036003035338 1.530243468502526 0.7268107544862062
Ni 8.24140385094063 3.765974200276693 10.64806532562174 -0.5958539289589544 -0.37549573274873393 0.165245828617109
P 8.020628122093353 7.587086898618358 6.182533441877542 -0.32328176974934003 -0.04198148663810834 -0.08373234532264934
P 0.4164250067331783 2.6658281219280817 9.29278543420936 -0.22758608141722741 -0.2486022786575783 -0.35589698468119996
P 5.3417822146804275 5.120184212654903 4.0764433026267435 0.2995623146452131 0.11533428849864652 -0.3256428137823489
Ni 5.977537966833041 4.121057627912591 9.837366797235909 -0.6257262910383548 -0.5726389242950719 1.347884377243898
Ni 1.7581863575341858 3.4770237098306516 11.151823135104406 0.781685295036899 -0.46732731013975 -0.8718441127111825
Ni 0.5713569798566571 4.9296755279867215 9.375203075938312 1.0207222986035454 -1.4539382688818832 -0.627140654887378
Ni 3.540061573821486 1.685521430040721 10.552463595967401 -0.3897478717923739 0.9153507777445654 -0.2231036201658416
Ni 1.9033961052029447 6.093718699602313 1.8569561486808972 -1.3478933761049625 0.30452737195997237 -1.7771976700337198
Ni 8.578240205239009 5.047454611990115 0.7962440745951733 -0.6784367340581928 1.4259587529498214 0.6967897826440839
Ni 6.868540248148014 6.254634788878051 2.4694323308646258 -0.18300829480685257 -0.31750604360782736 1.322289302383613
Ni 7.927277018801049 0.38929923087547796 2.4629280576344414 0.30705785169130995 -0.1547158756200626 -0.19109647113162573
Ni 4.125871159663906 2.780271918096111 12.998056471979975 0.2557507167769015 -1.317728679596124 -0.7803002417639142
Ni 2.0355695893379107 6.631577748421074 4.004911079533875 0.11573383792991035 0.733300475975608 -0.3525571216746896
Ni 1.155238381291209 3.8538373230310285 1.83509014945664 0.32708006044950766 -1.8168507656489676 0.23916761560723973
Ni 0.5829898355727438 6.8335705405113 8.288636515762606 -0.9085422394631643 0.2554776656211729 -0.03823256111863738
Ni 9.269882816439042 5.260053804177288 3.3905954075772358 -0.030404323323470216 0.0462978546252751 -0.05990618943732909
Ni 5.698565622819669 0.12525530260831563 6.593406718803877 0.25040102242921397 1.9353981617682736 1.0413471739427484
Ni 8.932390491402963 0.6598566713972993 7.317360970299258 -1.407859986466582 0.19460654116741324 0.06957996508166726
Ni 1.5582631069262918 4.479217650698562 5.06689351948487 -0.3672504620208062 -0.1267808397726913 -1.0873367532989855
Ni 1.6880898788446856 0.91604096154384 9.573628680678858 0.6486857280480054 1.172101396540891 -0.9055224788002341
Ni 5.694574364246602 8.264676953592383 2.0040645158792056 0.13626846754815242 0.4901430224826849 -0.535531220809497
Ni 0.2972536017414484 1.4795281403529532 11.301866740378326 -1.4430342203748696 0.27252356535986616 0.5594921025004687
Ni 0.09950521749489719 0.9409114915272675 4.617833506599731 -0.029513436078084654 0.7241733168633593 -0.030403294882205705
Ni 2.0903108093504703 9.104578190537826 3.806634223087372 0.1279792309561667 -1.3029715758916076 1.4381036158424716
Ni 2.6498723266602857 7.834304715512207 9.634195105622712 -0.1830239785361364 -0.1522195915607701 1.452024596798938
Ni 1.6148890879316886 5.8956802099872565 11.333143609932506 0.12561381604778366 0.8880083811758707 0.6677957094045789
Ni 3.1141979796849606 8.210988982369939 1.8279372967083323 -0.3747549979279675 0.9586954632787876 -0.36405020991595366
Ni 0.09020983497090798 8.70751263568892 9.738342932916144 -1.8135569253890442 -1.5683582730963763 0.4682037992074324
P 3.7459347561910827 8.794590441362907 11.218515033274981 0.610241050918562 -0.13318880018156418 0.9248479186017233
Ni 8.9146700424605 7.807271329899254 3.9039941390992454 0.12500395037792664 -0.39005666128204436 -0.07930799100270858
P 7.401798262778377 1.5002605112741654 12.473555204746726 1.2852011392820641 0.9899991584880756 -1.1833746554618652
Ni 2.883240845866571 7.165685753303109 13.208272919755126 0.9800258493254477 0.4519207457766926 -0.36401575713359247
P 6.873797253074115 2.0483563992108866 6.908853807540892 0.18011323264724466 -0.8527824680940411 -0.30977036552646653
P 1.701412552137194 4.028870641704098 13.23648058537881 0.5641565978556735 0.2764972052956335 1.0589733716649439
P 4.848787868710779 1.0162926922162923 2.377819088076012 -0.2935161084511332 0.3644122212410627 0.3075057378620059
Ni 4.9671674893050275 2.8122204647296014 3.761875769019719 -0.3483659664114775 0.751931460813234 -0.17902051380369813
Ni 3.4434028997672415 2.762930269157111 1.7440451066732199 -1.6453234748985215 -1.9495466853545136 0.03463121692062423
Ni 2.3546300605469783 2.6302301606270877 3.968576767982248 -0.9961240404388909 -2.0845949073423196 -0.2486850681793717
Ni 3.2401905564463567 6.600063435937894 7.886431291598429 1.9287806564517556 1.6059570572857569 -0.5058277802077934
Ni 5.860710502350541 7.834849817956215 12.717321322096831 -1.4564942025345173 0.7129810476919656 1.8367922417679012
Ni 6.263541208471655 3.875826201280799 5.837309901161038 -1.013833284793196 -0.2440930779333151 -0.1258102483293059
Ni 7.897564316090435 7.696042714248418 0.7430226741087009 -1.6548846362243952 0.07773858963305966 0.96720607185296
Ni 3.856747615740557 0.18394528168135904 13.348025175666683 -0.6979768609736496 0.07823609809476849 0.14236429603324513
Ni 1.3272690170100032 6.938719878057786 6.06288807493026 -1.5679908624546286 0.13733650380135057 0.5331295533465399
Ni 4.301625122246001 6.594205894420938 11.164574836684379 -0.7419542949958642 -0.38265728349417966 0.9182358126018444
Ni 7.470813775604339 5.778520140623667 4.848591077489467 -0.6497383376822359 0.5320730870575675 0.33811497810743063
Ni 9.063880287726802 3.4772454464180442 12.772735143091147 -1.1958252225203923 -1.410287879181784 -0.25060413957895555
Ni 9.163606317906643 0.879394370964968 0.21532840001699816 -1.9467516391078794 -0.7967208492137826 -0.7073426184592657
Ni 4.187828057791202 6.089025275169168 1.5770728368543203 2.1343449821822533 0.3564394874482313 0.3328845829464267
Ni 1.0877750245769964 2.492457827660457 6.622966053708211 -0.41286877408055345 1.4985944741386772 0.5275808556141688
Ni 3.152891014184977 4.852705215088049 9.541986869657928 0.0795751286211662 0.7252310687039122 0.41973181974897394
Ni 4.9111605229394355 4.532415953623847 7.815371182656218 -0.9461322819017964 0.8420509406091498 -1.1038591764340409
Ni 3.5414751445661143 4.921960942550352 13.23333007803294 0.43822679322936786 0.9511510752726265 -0.8776311517066046
Ni 0.6038164445435981 7.446699921725388 13.197590759657485 1.4236411605602384 -2.7863458906464205 0.7423134781074958
Ni 3.5678710374903138 3.1167387114155014 6.005094281231262 0.43217595904959766 -0.5239453157441106 0.49770643665223957
Ni 4.982236338223252 2.346952431208508 8.738386683776003 1.2615588172727756 -0.808963928247194 -0.30060309720490164
Ni 9.296029255702425 5.13716553963939 6.60427827890325 -2.202734269389929 -0.381120278024363 0.8856321676342103
Ni 6.066639118866986 0.8183087128456363 0.4601320598156112 0.15868257357729446 0.3086735329178619 0.8367590960825911
Ni 1.917827461432416 1.7689313429982543 13.242335355188425 0.9183006044015087 0.6721478157256876 -0.27133211615492625
Ni 6.969763000292757 5.680466373873744 7.2929394569053 0.26337018099537224 0.6931974373071352 -2.3469052796146097
P 8.849017534543329 2.455400100492461 2.9297029760473574 0.423285084317871 -0.5907932266065954 0.5055071636435811
Ni 8.368394242345293 8.462983374917206 12.065751131750885 -0.9793671326955262 1.7052422627413408 -1.301776784252558
P 6.416234565964915 5.558372665440669 0.5282384526332623 -0.4874811593798056 -0.04091730703965211 -0.8675118038844156
Ni 6.399724429228638 8.6093849567432 4.5377958375754615 0.9138495106086907 -1.2832473579898027 -0.802271860938999
P 2.1235435803859426 0.9787083406532389 5.764763233180848 0.9944607938038551 -1.444786941399918 -0.32051526274779635
P 5.394444654186181 6.653603582768743 9.41349790848347 -0.24167058453475154 0.0576022238945008 -2.260453221367952
P 0.6471326868907514 8.044113722308023 1.6587060854053701 0.15696019156954902 0.6154292799877207 1.8509546493112123
Ni 7.356665628219499 5.7586100428807026 9.346454927382855 1.0706178978824077 0.8163327099074392 1.8569355494849955
