# total energy = -340885.6776100558 ev
CRYSTAL
PRIMVEC
9.13953733063045 0.00000000000000 0.00000000000000
0.00000000000000 9.13953733063045 0.00000000000000
0.00000000000000 0.00000000000000 13.37663672197098
PRIMCOORD
 96 1
Ni 6.36069736309476 2.087415423356522 11.32741608525281 1.1234558676190458 0.31741579788686625 0.07038652014336265
Ni 4.550813121580337 0.48354914213899153 5.8923810873450275 0.9205351501589825 0.11890992166504682 1.617864093135988
Ni 2.6917947289237434 1.9634101847596175 5.091134325968177 1.0727971649219137 -0.7476184352601769 -0.5473901770306121
Ni 3.903651643115701 4.813126974246148 5.359456510285935 -1.5083150438605506 0.9904856112061908 -0.9540476800941312
Ni 3.552318699652878 3.268874237344079 3.27167093567918 1.1899152847938606 0.4087015300767413 -0.16008691012398882
Ni 5.506223765887969 5.658433615798997 2.843016594880444 -1.2565024857957907 -2.441149065991544 0.023248943225611572
Ni 5.783846343100495 3.14413783578375 0.2353120044265218 -1.0234522959401986 0.925261094879742 0.5438878203043085
Ni 5.417350907683643 8.11590889401907 12.836996160475556 1.4986129860814386 0.027438298716610812 0.38369755183323595
Ni 2.3980591479047355 5.626801678093817 11.974577563717446 0.11715668641936597 -1.2168547894971817 -0.6440883384853101
Ni 0.8135083642734893 8.028708571093578 11.825896489058648 0.7098183336932679 -0.20260524310217362 -0.8341165162534215
Ni 0.8213829893895781 0.44352710942850787 4.907647152389229 -2.027820578665753 -0.08761368265492653 -0.5051099282051624
Ni 8.737479668763823 2.9630287697433424 1.853052102875044 0.5174221699136121 -0.6786089979699991 -0.265809129454168
Ni 1.797911447988337 1.5713880223821852 2.723817838814356 -0.24819758701999187 -0.3873148368708491 0.3162680574356682
Ni 1.8193436623537362 6.739485475834198 0.6319313539364897 1.4250568099608425 0.8591960849298688 0.20734404333873965
Ni 7.704711982925812 4.364512798499611 3.7334725494247953 0.24319344893718114 -0.45409564194082436 1.0524461120693873
Ni 7.961989950681033 4.018590460966133 12.812196026709879 -0.7081982815913417 0.059316635482446235 -0.6217845327817872
Ni 8.25451911281039 0.06343478475306098 7.035869694688212 -1.1051197883140194 0.7845595312609005 0.27076621634912723
Ni 7.0524963404765 1.148556480633426 0.5703701742772057 0.804023553522783 -0.6872093380445002 -0.5612126847360012
Ni 2.0996075657716355 7.17505753222064 9.225719221313188 -1.0750404524301358 -0.7628565923661701 1.1285926746249788
Ni 0.08570783652639934 5.393917134705867 1.4493450423883734 -0.45900824875109336 -1.1913437897102708 0.6235498522123261
Ni 6.367899318284498 2.292003960059919 7.174104278507074 0.7457387017389607 -0.32102074162930516 0.2793423880539124
Ni 3.71902385531381 4.809251810539996 1.1207265903380565 0.5237874500100076 -0.09439419591186969 -0.5297976607598295
Ni 6.266404759424046 6.038501263724428 5.069878504667704 0.6187179780413214 -1.0686399482204305 0.766323724979164
Ni 5.032987677348089 3.5094999686072934 9.324800028440634 1.3253175476869756 -2.5937684640938943 1.1197303391383424
P 0.24430805073776388 5.941814101348497 12.642646647121225 0.3150305854841413 -1.144856187671693 -0.7674647805621427
P 3.9729201943631907 6.494618999383118 13.052560367213669 1.1431800855208505 -0.5179225065887983 0.07325664260230609
P 2.5669852110670717 8.711267476525032 1.4174416604330218 -1.043029446741178 1.4129607980282568 0.7268732322930256
P 6.4457041971299756 8.117691103742418 6.0500253059817135 0.33403952248647634 0.7739164497247574 0.4140157432008031
P 4.94416965636602 1.2594647626479774 12.929054147339302 0.4961354926206939 -0.6921229732960338 -0.0025582476454794655
P 4.081552731654081 6.650905082815242 8.307131771751054 -0.43373019091059495 1.5343839730334607 -1.2306009354386807
P 4.779539175613806 1.431845570812497 3.992725571134969 -0.6370448013749673 -0.12013659498329633 -0.9335133075862052
P 0.2513820524089021 6.013029373986106 4.151345892327828 0.4703337010662416 0.2165498782077238 -1.3048466814271333
Ni 0.8772721723600916 7.747174272026728 2.6855204367438517 0.5632513124325847 -0.4671061952678794 0.5371121921433717
Ni 2.146219204689989 7.032773219538107 5.140841526082931 -0.8026045616880694 -0.9246818253375042 -1.2272060508245188
Ni 5.7038479753647415 5.635776703469861 9.178111372857169 2.4005855427468847 2.875092915574842 2.856221018371004
Ni 8.692787332624462 2.659769791125722 10.395398999959966 0.23562283567877487 0.3426594029450034 0.24571955779314456
Ni 2.3628262326046867 5.789942414308052 7.194476306575507 0.009914173789918409 -1.1741495373191713 -0.3613073570634939
Ni 0.893780918120527 0.4335403373018247 9.207098328542157 -1.1160737162223617 -0.6544485986737116 0.5133256312467354
Ni 1.7230312209965597 1.746574668418849 11.683783085718817 -0.3341104849337278 -0.6383923165417973 -0.5647564362232016
Ni 4.18439994199687 7.244207269486572 1.7822627326636304 -0.548105715040398 -0.2523157229534235 -1.340844696788297
Ni 5.79042680977132 8.271591768006367 8.111886583766525 -1.0714272811575807 0.3776660009271754 0.9256403325960317
Ni 6.878269345829333 1.076811114847334 5.054227961435589 0.26322439944612736 -0.45669759834004575 -0.3440434277767236
Ni 0.91232778064151 7.851712296722437 6.981413591126012 -0.3684226279520364 -0.8756146354972082 1.2937019776642236
Ni 5.328039351701261 4.765345474586315 7.225643955798913 -1.5561082520844296 -0.16783338683862709 -0.9408880027837214
Ni 8.625602595822736 7.378896626886526 9.449389283454574 0.09557613203511281 0.15887926296913282 -0.08244602241105801
Ni 4.753345262449101 0.16976690057027502 10.62854036433882 1.0935876193047038 0.8249654458817727 -0.7390350644665401
Ni 8.211088032782937 7.763853927129864 4.907018352240684 1.1239916855178578 0.02856881277662822 -0.22087061707026473
Ni 7.4316500346976495 6.623806355483297 7.437556917488421 0.5620333808650836 -0.8010675562182528 -0.8345566891146338
Ni 2.148467530802521 5.569643013428057 3.017408101194383 0.6516049585773294 0.13130109624054806 -0.02783424860344884
Ni 3.395968639461454 5.027174931788858 9.471755558505748 -1.2775148263813998 -0.29252546240308974 0.7985062232489797
Ni 1.0361310354697677 3.6111316205233877 4.194712081642277 0.5864920281280802 0.43035536090109106 -0.22052326103317504
Ni 0.8242061923821035 1.028837684909602 0.6710056166556335 0.019800579665694932 -1.5243438151886393 -0.4006272377090391
Ni 1.2578927622766132 3.802056549347778 8.546987953995263 -0.2744860884028757 -0.23137820146980798 -0.3536297859135781
Ni 5.478476131425984 3.2579707696520015 4.9686444226129725 0.702858357435667 -0.3564050346658701 -0.18867012107832024
Ni 4.387343362032561 7.1929801643615985 6.0005721849967495 -0.10285878173945512 0.013627360975447499 1.6825530486739408
Ni 8.53881355206417 7.507297982801023 0.40580549819170053 -0.22423130601238156 1.4638146474553304 0.43658797207436423
P 0.2907597477578674 5.682324365628914 8.003268669734904 0.036739007292246405 2.1417073360845955 2.04391851266888
P 8.60155647386309 1.9709594423569823 8.288658939480118 -0.006881814721497826 -0.13662302267409374 0.1920323526823338
P 2.1843676323066954 3.6667914011141263 10.640258164781413 -0.840645575621191 -0.08661480907676695 1.028411696828003
P 4.090792803604367 7.013324284710998 3.8511203260547178 -2.4716940286579367 -3.0872991721018894 1.2441838163294379
P 7.043320245285514 4.167930496245718 10.475096676927011 -0.49112055590460574 0.04312896997899024 0.8590068517371979
P 6.588619137868462 7.782206117511834 10.371040305833459 -0.6257879975142255 0.3493874656974564 -0.2915708117993043
P 2.4400004833942104 -0.06489162695768558 6.157733836077575 0.5508529387682319 -0.1621245093793079 0.9045706564099258
P 6.994889838495642 4.265586449548189 1.6912749855875973 -0.1503984791916313 -0.4082963242185227 0.04878051183781276
Ni 3.061178258046125 2.1467218792273433 0.4481827895981174 0.6620906886000016 -0.166983380133506 0.43537646826476634
Ni 1.4845989786236211 1.717209335900287 7.26269746687789 0.6330937871470195 -0.4054076898168179 -0.25966496422964314
Ni 7.420408404134989 0.48806681529925466 9.47765421571318 -0.5307440838334988 0.46970069546793297 -0.1726925147031413
Ni 2.8536833485631123 2.0285293861896694 9.342871635035388 -0.2200604624641436 -0.19340712154267334 1.6338098178319669
Ni 6.389870765335424 1.874912047574047 2.702147082532139 1.2736828542298193 1.6948899729727391 0.5188427044102225
Ni 4.143226327618992 6.944668082445378 10.903323287392142 0.497545228484027 0.3912625086646875 -0.6437332691387364
Ni 7.409578052739254 6.289226183419952 11.616364376768793 0.6654189816422862 -0.4120889584917355 -0.12175124776858388
Ni 7.6455608991847175 4.168588542912801 8.405757429933768 1.011994431812244 -0.3020686260068346 -0.4897822967091565
Ni 3.2018265935979935 8.936767273982388 12.536864731433988 -0.6606986933484815 0.03726454077841324 1.2967325369604314
Ni 0.6703521397570724 5.394456367391393 10.462495997206084 -0.8558698487701131 -0.47367536384496495 -0.7200880910503921
Ni 8.652061555561682 2.485634191848982 6.184460584251877 -0.4149197430723112 0.5124121182935304 -0.9857164719523218
Ni 4.047818700429053 2.61426403618955 11.491306263504557 -0.5875284398123946 0.7552708095991121 0.06427295104645704
Ni 1.1220152650610935 3.6109122716343602 13.138492122397619 0.7037140205677429 0.3956022736906219 0.1541134661493733
Ni 3.134888624296422 8.999747823744423 8.39288987573119 2.2300090459454824 0.34790779582813636 -1.9879525388262214
Ni 5.877919597882182 8.02144263914454 3.922698438312926 0.3172268218045117 2.504561725920235 -1.1874783932175936
Ni 3.0478162548895305 8.905701987573863 4.063541446003806 1.0169111523875713 0.7715255808950777 -2.4010627394936197
Ni 3.9526395616651855 2.597684915993885 7.458852952751882 -0.6185164035534767 1.0071067647026397 -2.910617333733697
Ni 5.4599594293772435 4.788102921822924 11.797577633531489 -1.0010582445157146 -0.16484833606837415 -0.47728596401435863
Ni 8.458312509791062 0.21217252454152463 2.607748460231728 -0.9036224335640438 1.0966060944160534 0.4646975858263868
Ni 5.004545438070851 0.2654560255011318 1.677082198513811 -0.9020167796398207 0.8288624669433339 -0.034115453626470275
Ni 6.394851813023757 5.813257373304271 0.41303578594627094 -0.5993807111652903 1.2820247984366113 0.43206977248903655
Ni 7.755271901846661 -0.006500952698553788 11.953268733102124 -0.03768131660085769 -0.5824741652179388 -0.6630749068901419
Ni 0.00834805313490655 4.893792528186027 6.007099642352728 0.14442683498922868 0.5626075082009989 0.474891495640253
Ni 7.469240950554745 6.618496284461423 2.7789155378769617 2.573455463568155 0.15522649670789396 0.12177515902798382
P 8.61935115248545 2.1577258818268916 3.9069007485344214 -0.7087014464800052 -1.7496765817953157 -0.22796120536845904
P 2.011730917104977 3.6232323675680735 1.8223258932908066 -1.064646253680005 0.19761396053516933 -0.21590298865234428
P 5.0821949447866 1.3093849139758287 8.644048923436246 0.3916152640184159 -0.8782253336471778 1.1522637929896735
P 8.78312251675564 1.8733309076656404 12.544662584438916 -1.1845025984187212 0.5788021156829902 -0.6731436039800536
P 6.847176640809678 8.158526555249711 1.5257524860200051 -1.28149823650918 1.074491264794885 -0.4707108819000022
P 2.303419241826394 3.5920939648632055 6.233472265597673 -1.1625165810659333 2.082110193247253 0.9270369558332421
P 7.013580191748197 4.31667646161752 6.190346446107449 1.204416563733829 -0.7422510003006765 -0.9286636928033878
P 2.584204098855734 9.017588200051996 10.480434166560014 -1.2941100117359197 -0.17694486222159203 0.6688868855862287
