# total energy = -381163.4260762839 ev
CRYSTAL
PRIMVEC
9.38679942399179 0.00000000000000 0.00000000000000
0.00000000000000 9.38679942399179 0.00000000000000
0.00000000000000 0.00000000000000 13.73852978924931
PRIMCOORD
 96 1
Ni 7.643023002688292 7.658116976005842 6.391466029562442 0.5008213281321375 -0.656858493666785 0.2534786329132731
Ni 9.11697578018525 0.21703969667521641 10.275074024493401 0.6045954225970104 -0.6500882648224869 0.6480606928694969
Ni 4.725793507894471 5.712102060362345 4.918256686572168 -0.7823216430693172 1.29532665775184 -0.3945609769103011
Ni 3.344131741378955 9.2561069198076 1.6618952736188517 0.8875098442728975 0.4562813367382335 -1.0576315129250689
Ni 1.725997726221809 2.3639339952728506 10.982044570513716 -0.036243041492434354 -1.5591113005768116 0.27752178990540594
Ni 0.6336587045978033 8.47716215126884 4.752376923588068 0.24975361865320211 -0.4943537181299228 0.41916540572254257
Ni 1.791583293118406 1.7010100664137737 6.187380115958257 0.2415492284655388 0.9714746173213269 0.9968526910747993
Ni 0.9782546786454496 3.692335062407904 2.970105335401883 0.9989792504994989 -0.5704396026509079 1.766010800178965
Ni 9.033423879377091 9.36759393541242 7.843079163341465 -0.2363661416027026 -0.32259862763938635 0.04625877385722356
Ni 3.7667911546683603 8.191362272164692 9.267448989434216 1.1775523923531332 0.877081964071354 0.11625217232722561
Ni 0.42044694468807015 6.88288938000051 7.545612431353992 0.4099184332029779 -0.3750632731970057 -1.4907934900370197
Ni 3.789019095474306 2.6160164911950083 13.201875238560794 -0.3748611844885286 0.985555263784109 1.277667035688548
Ni 5.494412797173712 2.1923996243742656 1.5579909145102484 0.17769665278595204 -0.20095433776231197 -0.3759672730685138
Ni 3.0212164577364997 6.381812645134724 11.058581716184932 -1.3093276000166227 0.6062812949398655 0.06838825876641125
Ni 4.574806840722328 1.3616397235513764 11.677474985441625 1.3187306384980775 -1.8888149146920954 -1.2468868170828977
Ni 8.091430406531206 3.209121406661086 4.745809918779014 0.7827433039877681 0.9496780902715257 0.3399576877431242
Ni 1.7625686963991585 3.558798455184348 8.211601150193282 -0.3464463807912614 0.15226330031451193 -0.017393512886099076
Ni 6.531419452805823 1.620602743380104 3.7386795680443545 -0.7333848081592983 2.5446387964467787 -0.7325286308065901
Ni 9.294536476251663 5.670368350555236 11.956161548015897 -0.7718150871110385 0.5230860530676088 0.542457258505369
Ni 7.059755452916738 1.1873644072493554 11.6872851294181 0.007706881725954468 0.186388267022679 -0.2693837341793038
Ni 0.14839121715827308 1.3740678458601063 4.618494882149284 1.1482924670467516 0.7908913870161993 -1.8309188137062598
Ni 6.794578371933645 2.5073549021875645 7.535486890920136 -0.059274469390601145 0.019939933457036627 -0.5929421546287983
Ni 2.959272968978715 1.1456306974422465 4.050860107976641 -0.7841275859298045 -1.2020457495088073 -1.169902074896727
Ni 5.905686022879666 3.8994923367518286 9.475161962298287 -2.24122959725165 -1.582146070909088 -1.9035825599195733
P 5.747790671402972 3.229594015992913 11.56373419931843 0.11084437104809296 -0.05251555340021278 0.42976606405652434
Ni 8.871154279414093 8.710058029366948 1.670234506140812 0.7073886412058527 -1.2975781727901783 -0.8475495018298759
P 4.957337686889513 0.6963165287843603 13.748421629365769 0.20084506587795734 -1.1947810975265938 0.3383880292631592
Ni 1.6764166521774657 7.771847436649777 2.605169105892917 -0.9360800398721169 0.8344710713793628 0.21362087748638692
P 8.614969752186107 7.232237890547332 3.622781695435854 0.7399804590989449 -0.017496099902234382 0.15751246452859324
P 9.260068149123525 2.997007902272592 12.17695314838205 -1.146464412699077 0.49435268968865825 0.3745966179732323
P 8.43953047276756 2.732525444439686 2.6125461914838772 -0.09980508251479585 -0.6249557314209172 -0.3964124282967431
Ni 2.032448563844995 8.925269177533297 7.351225897494228 0.6065564029781231 -0.41300529965841776 -1.5736591164839995
Ni 5.115955821914373 4.506029762054607 0.8440375284706975 -0.22441462566778125 0.7090045795427209 -0.2150948909287521
Ni 8.270605632081834 2.3051820182861897 9.88889734546767 -0.5420759639065503 0.09313127003904606 -0.5815364838950178
Ni 3.3359464523659548 4.191525050608996 10.108342878810356 -1.025698154551582 -1.2200146752824022 0.9144506345277994
Ni 1.29477755194633 0.7745179539762238 2.55937842141675 -1.1885574852143854 0.26659254458741183 -0.9145370235940185
Ni 5.265975648755852 5.713998193826366 11.091211169324945 0.6924559311554204 -0.0021589553245317658 1.5671832789516686
Ni 7.344316274509744 6.786393082920644 1.8180061945435142 0.04132739799387721 1.6756087561456239 0.03663564894516271
Ni 1.5092002089692247 1.1653805232259078 8.978513919354903 0.010434565069762675 0.23131032434635004 -0.7733482359261133
Ni 3.6234828893455684 1.9529142131487212 9.7710761176771 0.3997528055238857 -0.37261018367082277 -2.1482001428977906
Ni 6.376311980729199 7.753984357530809 4.387193821256807 -2.132491473913282 -0.40361717357529847 0.35447490752269273
Ni 5.958355353902538 3.904101255221305 4.890573137997465 -1.2555864017394247 -2.727116672671458 0.7082867275400899
Ni 8.157316351006262 1.2857099037966073 0.8163004751398323 0.10651489043480364 1.3742739229810204 1.0730833287037647
Ni 5.867791513997232 1.1720545375472875 9.197643117560274 0.10068362846500725 -0.09870979256808807 1.8285330870829024
Ni 1.019847586462656 4.680389559550569 5.966561293874057 -1.701679742201063 0.9444196700860638 2.23895031429917
Ni 4.872058615005216 7.492224071502686 7.328090253193377 0.8221899400191648 -0.9895255612857669 0.43277451186554494
Ni 4.030475734558486 3.512549694901031 3.2231415301356465 -0.3323811609474469 0.5665289547425921 0.6049438070753645
Ni 1.2125210294452737 6.293726920251704 0.03384222761303868 -0.15300969156223324 -0.056527245662767164 1.0938532142612645
Ni 7.224906800273075 3.082793861320538 13.373936208901615 0.030355472363405786 1.3056131272795128 -0.5400422213059731
Ni 7.2367717146221935 4.51269438957666 1.9538801147994524 0.6303887295110304 -1.763283888166105 -0.436329576206655
Ni 0.34069575892734627 4.074668785789226 0.8765909485361616 -1.7797219791174703 -0.651900121220245 -2.396453522856383
Ni 6.909144257717667 8.953664245496972 13.486688565055692 0.18222050879823457 -0.4805533219117208 -0.6549882732272655
Ni 4.18305815761619 3.343343250235501 7.328859970738177 0.19504928513178668 0.5778315242396048 1.2035025365599918
Ni 5.513768377385646 8.570720380159408 11.120103737652943 -0.20385891300361664 -0.5467579427632518 -0.24221205886051836
Ni 7.186974744193334 5.561434544367314 4.187668953445532 1.349885723944643 0.7930066335869891 0.21686432412434908
Ni 3.2372348706449565 6.717306239875138 1.433615823429683 0.6347531771273133 -1.1989411424415546 -0.7778078143593637
P 5.508399128170696 6.029770123181099 2.514439119639527 -1.3734581119479443 -0.46447518540293564 0.3980319661780371
Ni 0.20277551641815775 5.87788232327358 2.171333769324982 0.04038380313368529 0.9353855849082535 1.2078584995358426
P 3.235282416384975 2.0135153896027687 1.8988706547044005 -0.9551995343103872 0.5984288887749822 -0.2561286689416105
Ni 7.769801114396526 9.232724402684454 3.6071057405600393 2.165908873031463 0.6137380083282269 0.19790809473682044
P 2.3045155555339845 3.8151237844022345 4.833077114760735 3.303188276797163 -1.8352760622336908 -2.392328959165048
P 7.726377780710588 8.309814292870024 9.38252270106182 -1.2533120038829513 -0.21603231514135696 -1.1813817934015525
P 8.481846164132932 5.522441779963641 6.383374608542709 -2.0496369032098958 0.19314512613053833 0.1302680269903434
Ni 2.159658468322265 6.329584493680213 4.335536387201368 0.4528355442814782 -0.8479158840303591 0.5828194643724994
Ni 0.2171898854644458 0.9319261305678547 12.478788496776232 -1.2523846069726754 -0.9820169116135474 -1.038868887605585
Ni 2.730779499764894 4.048948955633697 0.8686422068661976 -0.6819396050051287 0.8849659948051211 0.9093950743817629
Ni 1.005326207904042 7.898578614361377 11.863453763144344 -0.5939541408330803 -1.3016446295500679 -3.381491737794757
Ni 1.610981274070098 8.86063167736871 13.644269458754938 0.5313945729333042 1.1483019801284482 3.4757874604555496
Ni 7.913137540117298 0.9221629205880135 6.0072821680338 -0.7050913605312438 0.25118932265846416 -0.26269655196711533
Ni 5.508155071388199 7.028262741175205 0.16183123643443562 -1.457073214966439 -0.1919513629327533 0.5059411658572062
Ni 2.600049545540062 9.299764923476712 11.024346181680102 0.02541098387393688 1.2545882994922135 -0.11975967125985182
Ni 7.403603299058035 4.626809708992995 10.830137997007546 1.4466353074625666 0.6547625303697047 2.055322126520131
Ni 3.618094866531965 8.0279756430818 12.77257372606772 0.5870741258837955 0.705303990762682 0.2762807184094532
Ni 1.663481642705087 4.208533930989222 12.256568225552536 1.7223470407424273 1.1312848767451613 1.6027107824343172
Ni 6.349540829049064 4.976374115924335 7.06281367213742 -0.5271962185812404 0.47718209144664264 -0.9687590181623769
Ni 3.1634170807387254 5.802356135889865 7.023960771043717 -0.7150001350045234 -0.25204781400401755 -1.3923690899198342
Ni 0.2536942093665749 4.152757569389167 10.291367630764919 1.5378945572898803 0.4419057847428518 -0.8998315990630439
Ni 4.256106229977622 2.0945516281913363 5.431362604775293 1.496874149013461 0.5667145883908368 1.0181815344595624
Ni 6.654001665214962 6.148635163056813 9.05106730739181 0.6019988655144277 1.8575695835245687 0.4083462036198516
Ni 9.244589317033574 6.7175502966576355 9.829094046956405 -1.5776620669958055 -1.9647820142470291 0.1892164805000935
Ni 1.5162966292603122 7.979849522933117 9.318748786435302 0.8385185019758591 0.9443265961516253 0.7557333510578275
Ni 5.92391518717238 8.938194800206348 1.881684363816898 -0.3469757709321702 0.46196501738657214 0.37483547345691576
Ni 7.384651351217155 5.985830515532184 13.320012801488677 0.7145036549840791 -0.713677816648674 -0.346817390977435
Ni 1.2621302638875973 1.9585181323468417 0.39556817175222636 1.4260572262008988 0.4409573047866535 0.8596439711005647
Ni 4.150213746771595 7.69327053948484 3.218319531321451 0.6698667330009948 -0.25690257099315755 0.603816892559773
Ni 6.219421016780476 9.337856555145008 7.295749913472632 0.781573452049383 -0.04849280539406488 -0.027369136041572217
Ni 8.1502293175145 4.257533023475301 8.44709341698519 1.0207927468301645 0.39172916388846085 -0.8483545142296745
Ni 4.106011308741528 0.7340448913187088 7.615940209270507 -0.8451270084313122 0.517454051592812 -0.4269633045004066
P 5.6744891554597165 0.3961144834730482 5.148074633171005 -0.6924456467427752 -1.4339947358804206 1.4089354789189477
Ni 7.760095163892579 7.628567331724966 11.424384347271767 -0.4669560428432603 0.14958266815855528 1.058655583314209
P 1.944203263373418 5.805050147296666 8.844837448821377 -0.10507121600974162 -0.5867262556260734 0.6464424405397835
Ni 4.213264877849946 5.8704855254040345 9.069847476805009 1.068956708129901 0.9326496740343293 -1.814246495256901
P 8.987963610237228 7.741490527626793 13.399146335853695 -1.5927706405024697 -0.1144338881715642 0.5366745903853208
P 3.207441169581582 5.900607764443849 13.215146295449072 1.672291518846933 -1.1461016300430196 -1.012541819675282
P 9.182007525921565 2.448180519231196 7.385490531076974 0.08874239694273103 -0.8449809697717513 0.28295401666457076
Ni 3.8211407227707355 7.962774934957603 5.462837481598103 -0.67224860296961 1.0378131926475611 -0.07467897687112945
