# total energy = -340896.20159181306 ev
CRYSTAL
PRIMVEC
9.02983675332084 0.00000000000000 0.00000000000000
0.00000000000000 9.02983675332084 0.00000000000000
0.00000000000000 0.00000000000000 13.21607883837780
PRIMCOORD
 96 1
Ni 6.249188641832561 1.8539879686208964 11.303341632961356 -0.4451073223992851 0.2430147572674718 1.310704425759491
Ni 4.5489516991407495 0.3864508152810049 5.949997651480534 -0.0975535674764578 -0.8855282950664942 0.08763065193579102
Ni 2.550161272553164 1.6742039240887947 4.8352480829838935 0.7994156224371265 -0.7248960539619967 0.7743283404511955
Ni 3.4489008984838554 4.221863931934004 4.95534219936077 -0.15456598030575963 0.7373255379746011 -0.3889318036489818
Ni 5.223778469608733 4.619167707693317 2.611576802461784 -0.017709758574937243 -0.4008781773775806 -0.16030365412048522
Ni 7.308234954984669 6.134311061996428 2.5576415891021536 0.17373175460093307 -0.4067886293247446 0.38409504438197073
Ni 4.856535019527338 4.554324451852784 11.270275274715646 0.3882849140936023 -0.6451625453860954 0.5549674751572378
Ni 5.400970951067971 7.790274716373779 12.418699812437477 1.0636031571274716 0.14350972249159802 0.2655077961636653
Ni 1.939482460515921 6.458066819538065 0.4219209160005704 -0.22835818369656152 1.4154239148567687 -0.33031013735103115
Ni 2.6519907386600705 1.515901860568339 0.22387131821485068 0.6806954481853825 -0.6488325380385148 0.7968758867344082
Ni 0.5678421707084714 -0.06653093228066659 4.712378194869742 0.1823842880696085 1.3106355201947686 0.044129386219046586
Ni 8.575653774998795 2.4769022091031916 1.4599538966549062 0.3557347480717228 -0.08951552766332971 0.3369957769013229
Ni 6.839839276533178 0.934425539742388 4.811498710029405 -0.0020414559100610007 -0.9325756262632842 -0.3624065036649436
Ni 0.84951437528467 7.611041491867617 2.5831481682377553 0.39790983877787606 -0.8725164561878587 -0.39761853278970233
Ni 7.701059931844539 3.7019349766294387 3.8433413130919325 -0.22264467825155204 0.2707399910968821 -0.9941975128401394
Ni 7.673356393490723 3.554504836243922 12.48567862460809 -0.16587986265668206 0.651078139539582 0.4572488428578254
Ni 7.90835788816415 -0.09632216883115931 6.888841490217877 0.45945227826704743 0.24713315031121952 0.019006623009489843
Ni 6.777136091940968 0.8790067242473167 0.5504525115944623 -0.8055032233921029 -1.058523685722035 -0.5186110480153907
Ni 2.021843599148633 6.505265774875547 9.108852075026611 -0.774611418909253 -0.26838408927019586 -0.36913328086581587
Ni 0.24056387395176898 5.0220067732215 1.3919962502086909 -0.8851246318701724 -1.1094510686995216 -0.35712057267565595
Ni 6.4421291581317774 2.048183632192337 7.049931967246696 0.472987850859637 -0.44946559936798075 -0.17537571796225923
Ni 3.163865079814829 4.468938317995649 0.46403878234467294 0.5621917608198189 -1.7418223758582196 -0.02971449634529721
Ni 6.119628547862364 5.743472649164537 4.692156779032214 -0.40123633204794773 -0.6483527701886188 1.2237659147947182
Ni 5.2796550978138885 2.8506290817849913 9.304488900501985 -0.06407317633082514 -0.07758997987033735 -0.6872903277940808
P 0.2442417263544774 5.542314981658679 12.367381445692885 0.14000787998592662 0.38309668502444344 0.4279508652246565
P 4.06836574142666 6.038946958816943 12.641178729865446 0.09021743882636075 1.286930463268345 -0.15394145934788325
P 2.566333709708211 8.45331755022125 1.4706190365342064 0.020247951615758677 -0.1254117273393066 -0.4783946236975051
P 6.3331932107066 7.861547215795772 5.876885774365362 -0.051134099671653874 -0.754900570743887 -1.3366106041022916
P 4.665346291507339 0.8468099392556713 12.568226680856162 0.19882829255824466 1.0261077312851747 0.6953499648737637
P 4.043046079906419 6.126265477683113 8.19178820190511 -0.8285961006558246 0.5237689380672463 -0.2798895188066341
P 4.667450243409698 1.0807269505665522 3.917497039305442 0.4820862136164794 0.21197665701474458 -0.7841844073096688
P 0.1754424991473184 5.689745122044195 3.5671782117587796 0.3053858633055257 -1.102647672624443 -0.32124777003844673
Ni 1.5808263849372899 1.1292352321952037 2.629007998823651 -0.20347504730163665 0.18616663793017615 -0.8564429476647637
Ni 1.775274883930473 6.568826793934385 4.717452962977579 1.310110500929234 -0.17856645698541504 0.043498694613583154
Ni 5.894189650032709 5.627177384999346 9.280316931199726 0.6139663222889491 -0.14202439619532314 -0.14591421816803257
Ni 8.395788461938276 2.289840116359494 10.338792558685615 1.0587543136756026 0.7680198817346644 -0.13766894744010483
Ni 2.2769816291965754 5.22730010584015 6.8861054497611605 0.18375545738552224 0.8062089912098761 0.6709643369405476
Ni 0.38244788876462715 -0.0763869988103898 8.835635409340409 1.0182532682377625 0.22955734621098528 0.7613290999780501
Ni 1.2825528259727301 0.9941398484561392 11.280715571666324 0.13559895228495358 0.5812300083981926 -0.01382199348475684
Ni 4.231029215972179 6.77339773963377 1.7141121894435953 -0.28798772243373627 0.5603220546009318 -0.9853061238877805
Ni 5.699696001857071 7.7991600754807395 7.985537706618433 -0.3994103345828024 0.13134609054587057 -0.035212029124758716
Ni 5.35966847895899 2.8913355846855793 4.979686638540003 -0.08659938245779925 0.28152576885847647 -0.6576269964016932
Ni 0.6378116647248399 7.246209008129269 6.811540671954616 0.703078443866273 0.5235074568757436 0.6391304802594024
Ni 5.1789092120858795 4.668380316568252 7.107501689793879 0.47458039215773756 -0.40155797705342455 -0.8402637668017399
Ni 7.987856568629274 7.153003035871089 9.209743341122122 0.4950211765105927 -0.48489180138607463 -0.6546717704281113
Ni 4.5566270601579415 0.2651087755010989 10.409948573216877 -0.1396312133727982 -0.607225918241322 -0.9334850254514311
Ni 8.249053618962552 7.168173161175656 4.863543075627859 -1.366497364359395 -0.45634612853789797 -0.3749084927866963
Ni 7.441777206847313 6.087211434860343 7.000015031125478 -0.6276055103389385 -0.2987279916693758 -0.35052954972169953
Ni 2.321516782769269 5.272729213225434 2.534130603831022 0.37852629204494165 -0.08823203296521578 1.3833077510485143
Ni 2.3895566007275506 5.3504580457383595 11.395194032729563 -1.7380060874359229 -1.22345763952568 -0.20321870831645647
Ni 1.2040383976851046 3.3215982636363632 3.734044172207123 -0.4499569371821025 0.752989212653787 -0.09988221560963442
Ni 3.773956952480169 2.774038008669909 2.880100662123709 -1.196534589882591 0.03507601776752669 -0.6974834662769988
Ni 1.0624325018361636 3.406325219429669 8.215484298824304 -0.6523816888423539 0.2983001601033379 0.8380014531301245
Ni 4.061792020461348 2.567363111068164 7.0777258039654205 -2.050338814372927 0.6933596739166124 -0.6058295521144276
Ni 4.085161237299574 6.913179608511567 6.048972786272694 0.24730541422302568 -0.2238528396270403 -0.7064409325806027
Ni 0.5772584842010919 7.369719111650619 11.014504253129697 -0.17180625544344605 -0.3206232490805704 1.091638723108449
P 0.27154343698445277 5.564113006947503 8.128456540693138 -0.3075751576473606 0.0016735310476809887 -0.7406636012088986
P 8.38552153784822 1.8123513925617543 8.082583165352506 1.3733958912514412 -0.9456987939088036 -0.1487804839722341
P 1.746469705524777 3.309751118160416 10.389304561031578 0.5582458887981934 -0.8873427225674136 0.3400865000115046
P 4.014421498230539 6.064320799356131 3.8094947769734153 -0.49733619779701443 0.29882029427286605 0.7136029975466807
P 6.802311276077356 3.919517916712086 10.465204851655113 0.5010866659783823 0.44381560017105504 -0.24342793354549044
P 6.195993875065176 7.748945154755325 10.167604918492767 -0.593583387757223 -1.072866327596952 1.423561970582871
P 2.3470441305287997 8.47405005480416 5.779959509472968 0.3222926663631933 0.5181186817600045 1.3164570119725523
P 6.919635941602499 3.9445847428105854 1.3815026772227164 -0.13617127984865582 -0.09494981130502357 0.6437924045114461
Ni 5.02821930072718 2.9538130233655195 0.4443248433179284 0.6789668955300501 -0.4743011703544219 -0.27572690278851225
Ni 1.4965238314590525 1.2686197882674046 7.148973019845239 0.21873762988766196 -0.7856658769512017 -0.8124739982829813
Ni 7.032770762995905 0.5735815347820327 9.30596979368648 -1.3836713050355203 0.1487768844278083 -0.9784119678711084
Ni 2.894080654978787 1.633524510697679 9.149014981770451 -0.5260747033822876 -0.12835384068676603 0.44040143228318346
Ni 6.186449337894387 2.0392260343934496 2.560628659013315 1.195305088350864 0.8270195001973241 0.5786864160407325
Ni 3.97615305118247 6.705132175763219 10.438521684824757 1.4138059196373713 1.5857939520743205 -0.6291196329906197
Ni 8.156606152969601 7.111817951636488 0.4015505078609437 0.2712971491519328 0.37721245832952455 -0.25237974342213954
Ni 7.603266802649026 3.8390349840694635 8.178466484130213 -0.004813876448875581 0.9625006959574909 0.5700691066853666
Ni 3.003296527335179 8.236782071171538 12.15617537614005 -0.4096700646375977 0.12581899008005426 0.6692136727980281
Ni 0.0775166313553906 4.897367940138798 10.195146822773399 -0.015141226516812633 -0.7787259552982588 0.21208490045783476
Ni 8.758851097724424 2.336434072652093 5.752615358611485 -0.25765179045435627 -0.33558167016261564 0.33644401816291086
Ni 3.717231519644877 2.451492249218042 11.421282133335174 -0.8483527144574615 0.6444488071485223 -0.29337881154232054
Ni 1.1087736227070197 3.1590070277827715 12.615275740907897 -0.2519868788590951 0.8147771924948614 -0.4648071148210575
Ni 3.233485119159003 8.394768090414814 7.977780174089175 -0.515316436424519 0.01698625014535139 0.09543420714060984
Ni 5.532625967104036 7.804261933098049 3.568301523418237 0.41519613666214944 0.8329152968564688 0.7370332035451629
Ni 3.1368839283802776 8.498222927090067 3.6317252889624143 0.27852426302799127 -0.5805676922238453 0.4648181705646511
Ni 3.292242265204728 4.226243402632048 9.02848472429107 0.27807354864381784 -0.032923233090582 0.5822738762816746
Ni 7.281317012405553 6.0659551997609675 11.385360540791067 -0.3388014626514939 -0.1828550570584399 0.26725306098954615
Ni 0.8260232556538181 8.774129581066882 0.25152699843526594 -0.5437003868838508 0.37967634648898485 -0.27949048359600254
Ni 4.562198469272773 0.5335540755855535 1.7146277931072207 -0.6184037892350124 -1.1169509766209924 -0.5398794704758638
Ni 6.14732305637969 5.697203766985607 0.35109719945217094 -0.8122040324510463 -0.5035472117037327 -0.2127914396065561
Ni 7.630916161983897 8.802501327321018 11.511534446077206 0.7737783814849964 -0.43671678434274463 0.4943686305282582
Ni 0.17159578880223175 4.718360461544907 5.61050288893541 -0.3168938639451252 0.7250714031975963 0.4987076242232444
Ni 7.889368142023969 8.736240387151426 2.726767717624148 -0.8745640827455067 0.6955093732697635 -0.31741194123212435
P 8.664335799175078 1.6298042180634638 3.561098422849515 -0.9034535120863474 -0.1159888913635099 0.5127733582876911
P 1.8080802799015994 3.135755198818926 1.5788190522853818 0.36318580503312936 0.1507363221470243 0.29441907988137683
P 4.8733395452367425 0.9164019861067237 8.111659238852928 -0.04783948808078213 0.00028693511279950584 1.4208476569755013
P 8.549557547540344 1.4150385869659496 12.675660063489266 0.47376638089687445 0.46174287407343706 -1.0167016074799264
P 6.2918094700692 7.774707278263616 1.4375526782884953 0.07068605366165245 0.5147677630099006 -0.2592127071835729
P 1.8584396780108676 3.2542988922703286 6.200904300148881 0.4988657470676634 -0.6402206279997877 -1.2025298882340776
P 6.990041576721374 3.958599049044328 5.920419519071224 0.4401679761161387 1.0625957989088797 0.4811549600514617
P 2.1909724366215744 8.453037625290035 10.110418963996445 1.200081940914217 0.5945899746448663 -0.8087353571761555
