# total energy = -340868.43908572185 ev
CRYSTAL
PRIMVEC
9.33128447002684 0.00000000000000 0.00000000000000
0.00000000000000 9.33128447002684 0.00000000000000
0.00000000000000 0.00000000000000 13.65727804256938
PRIMCOORD
 96 1
Ni 8.203981266666784 3.56433602288647 2.0097505730356415 -1.6417362717678952 -0.08655567370405738 0.4879971797842757
Ni 4.258219662471735 2.933457215598776 9.266954529578197 -0.9318513465027499 -1.6709949115226963 -0.31785391386554934
Ni 0.09768735017132936 3.260406758555279 4.845110795077741 0.43690498909415076 -0.3019624394462735 -1.0122173464563278
Ni 1.7877527851591852 1.9934236247135058 10.746393279864627 1.4013931477953154 0.1837783402036577 0.21848103379216566
Ni 7.960378756009142 0.2269228397850253 3.203314228056248 -0.7456597688719094 0.806290752290405 -0.39941239146533153
Ni 2.028238646825804 8.120811528771604 5.175548372144558 2.4228376692768663 0.3070583659119422 -2.1831406635287176
Ni 6.060771864696078 7.117091921827251 4.170495324658836 -0.5054639691104714 0.4066988978244157 -0.2228915041550355
Ni 6.508561540687763 2.2191473944525835 1.1853838511118306 -1.6210563748210405 -0.7812302097773514 0.24482352834143642
Ni 5.466135766034535 9.060807794519258 9.947947932887415 2.0856086933188145 -1.1530916882076077 0.3131215413868865
Ni 0.8628862639446008 0.6514878820229447 3.654987584616986 1.7264111835094718 0.7962120278981643 -0.35232469394890936
Ni 4.079618878974176 2.7567040264132614 13.371239725746596 -0.9663750913112327 -0.2927771734025797 -1.6382051186861852
Ni 2.932477430736329 1.2273625002612807 1.6789434771064171 0.18120029506383634 -0.18244573743516318 -0.9729352610272535
Ni 8.862704626616793 5.487000517962463 6.332224526786678 -0.3252147251059947 -1.3165536854514164 1.6079555757730244
Ni 7.359238752117829 0.788753874994948 6.790958866256121 -1.232992832709625 -1.1233111145110655 0.14486803629170533
Ni 2.669587155215079 0.24721185146521038 12.749068873064958 -0.4653377905135469 0.05547977823485929 0.4522336490314212
Ni 9.323278162242316 0.7725006438196058 11.397230771364596 -0.9471419541132335 -0.5832467817179052 0.2942468159695707
Ni 8.295362534837714 4.072153851450767 8.42199272984574 1.1549670508534498 -0.8645128691570918 -0.6838427355651125
Ni 2.244248549500046 9.05700063048232 7.31608062861968 0.7934465493378852 -1.883171600363389 1.0661889155767768
Ni 7.4436402195543705 5.43500660126192 11.008079819697727 -1.1568917786799882 -0.22992912772810725 0.5034988749643007
Ni 4.0216062838328845 6.5637654192233725 5.698635914507987 0.39703849191651625 -0.6721262184591328 0.5674131571197583
Ni 1.9132678916809023 1.702567489832685 8.280215993992718 0.6914665706589576 1.1295879486587126 1.6028992442960395
Ni 3.01247453193406 3.39913496379343 6.919295753181687 0.5233691315256664 0.41992388115512197 -1.1603180307527177
Ni 9.490476116197868 8.077365068585365 6.201469904071969 -2.6885143869182277 0.5778718905592372 0.7586145292603644
Ni 3.273582532134096 6.185083235529645 12.3049753188258 0.5415997956010802 0.0866556896170314 0.10682419414510635
P 4.389912079269073 8.222905111438626 12.477098324689921 0.31439603722393594 0.6327114641069362 -0.3080140449569921
P 6.23850483874404 2.4335896413469094 12.236347454546221 -1.6614365784102998 0.8401146428183853 0.8422941669682076
P 6.059456153595077 6.152470396536753 8.248545614724655 0.43646250224009353 0.2899690145298232 -0.03085375215606299
P 0.7895311709858229 7.763199385262699 8.303843739232747 0.08630961913152232 -1.6466712471756675 1.4435947208640298
P 7.189707977061213 5.4813550908978845 1.5401042295838554 -0.07110514347694205 0.39380404413961856 0.1638021541920469
P 7.598324921123809 8.764978085050966 10.198518113609717 0.07225802613446264 1.2784892744795273 -0.3575769434867842
P 3.0592709232214297 4.792295725349622 4.7056155582615595 0.7558256536613176 -2.016033356222838 0.23228914331985157
P 8.83374965111037 0.8517307134393065 5.212969621990966 -0.8141938091875655 -0.1668813073380029 -0.08537476602207877
Ni 6.223892047366968 4.056617262917672 9.289611821240182 -0.41249647834279923 0.9109979000925085 -0.12899687358740367
Ni 2.019700521595905 4.058530176220546 12.219467161058914 -0.44408608022362234 -0.07531249669007029 0.6208890175507114
Ni 3.081227435424656 6.550085756286726 3.5007153258182173 0.06148227567519733 1.2245457303835363 -1.6099816050641176
Ni 7.056457235768362 4.210415492468704 13.420078735190058 0.3427619899611387 0.46290629825391894 -0.8685014214911947
Ni 6.106336526442086 7.79293818865908 6.595345285032714 -0.23121879307380822 -0.19592757397168192 -0.9630887072504768
Ni 7.520688634880356 7.895712955087612 8.299650260021473 0.9199209136137513 -0.880325153599 0.26618245363318677
Ni 2.6443180370483397 2.5496334941983014 3.849467414785276 0.4429861622912241 1.3920060501534608 0.0012472421435397874
Ni 4.626469470201498 1.852381260943098 5.543530372011918 -1.0316201764629718 1.3737429901782148 0.9160380336195773
Ni 7.102227185771263 7.696928603423637 1.9208141013786282 -0.852424827644306 -0.9843848976250916 1.1733164998949148
Ni 1.3264514093501298 4.239603750085234 9.781178284886018 0.2225390059116232 0.10964006632734667 0.3266200900939536
Ni 8.448675537599726 6.87778180199557 0.2675736471637487 0.39424755943494033 -0.27932439033178347 -0.1811907819821396
Ni 5.010181216189122 4.226176031827502 11.583120221110322 0.7026886646270221 -0.3881982679170669 0.6145869865920834
Ni 6.1210146368099885 5.346088792173715 6.212886730540582 0.577462056715328 -0.5746040184412426 -0.13520068840527039
Ni 9.0941857988333 0.23656578908838882 8.80845253909042 0.7404939084002538 0.48484500730853924 -0.43632134867653893
Ni 4.34024165238519 3.4973000757262573 1.7515184746889987 1.000772852064812 -1.1718504568723493 3.1016415568664906
Ni 5.138812971701862 3.9359077678641494 4.154339138841297 -0.9449369760421145 -0.21114876179681055 -0.07564494032882456
Ni 5.951595837166223 0.3678149698765243 4.585512596694314 0.5289350556492182 -1.064484017070528 -0.8410561807960483
Ni 2.636470426864356 6.604169880693823 9.673941298255368 1.008048816900935 0.14968011296836803 -2.7252387389224553
Ni 0.8809590955787738 2.441763846485042 1.9497952044813827 0.7631756662684857 0.1977810822406529 0.09492461449404298
Ni 4.089239433194969 8.035560914454274 8.471513856179154 -0.504407502821499 -2.2733347053163104 -0.7839383527371337
Ni 5.098977718580071 6.284106825627664 10.186417303994272 0.8861651573195447 1.2315779546399692 0.4286111245164747
Ni 0.02750955955220236 7.530038581853425 3.467200151623432 -0.03338963120403927 0.23767303333958423 -0.44959672562920633
Ni 2.333595597670847 4.709629876812273 1.9703902822900274 0.466203480947952 0.07262517966589427 0.30343670999895483
Ni 5.1356216724356045 0.674275811666591 13.717369723796057 0.13080538755105214 -1.3537644901737589 0.6174997893635042
P 7.03015234503275 2.3392223621666166 3.297440760098911 -1.1815759116902296 -0.04709695348780276 1.2521398379517208
P 9.17387496764569 4.942464085267398 12.222157370352662 0.05807273577301612 0.03572265021259009 -0.6062586692320462
P 3.5832691989427157 4.806171345258759 10.115249464099854 -1.5391374285580461 -1.464831261645303 1.2722090978977703
P 4.292922709171182 8.67960616403638 5.915704917962113 -1.1940892136658918 1.6486839067303218 -0.6372957410435088
P 7.548915770203245 -0.049515527562771486 0.6571211784177974 0.42355350748790926 1.6622691016139244 -1.3011262951527527
P 0.8871933266892608 8.36133471557584 12.43809262275167 -0.1771479793713336 -1.1263383313731634 -0.5086230835647435
P 3.9714692927287887 5.001540446830775 0.45240119674427104 -0.41618755404114127 1.7185286954376016 -1.6733564697763377
P 5.805803849634047 3.0868168747828086 7.189888070850214 -1.5169490653864648 -0.48481081163649414 1.5002273817564098
Ni 1.6157305571666305 6.964674722368049 0.44894582212937306 0.6240411900264479 -0.10366199436704084 0.0802839817627327
Ni 1.909180789111836 6.456045072060582 6.8911078092532945 0.05562890221821388 -1.133451545379177 1.1576996192932643
Ni 1.1784199135609308 6.534073272249014 11.132306275843217 -2.3771928748545577 -0.13997625541704278 3.84684572625822
Ni 8.009983863902194 3.0662413926714125 11.180748705699498 0.956346760540953 0.46383909448083344 0.22480337646576767
Ni 2.0853461073798827 1.425988220090384 5.981095759681854 -0.07654765464875203 0.8182124434286554 -2.483095328516343
Ni 7.216712714127143 1.6542127740498034 9.410847600734106 -0.3295586038969873 -0.15360027395838063 -0.3977941391356181
Ni 3.992091431262206 5.204794483724393 8.087498843448392 0.7635027105906013 0.7064679291637962 -1.256796619997442
Ni 1.8164744785555011 8.780953243951062 10.307570968185438 0.43404592237880085 0.5834642970453499 -0.4245891478412752
Ni 5.060224894449174 0.5977135562580684 7.632615525052588 0.8986450349541104 1.5443750228079016 -1.2200054193110215
Ni 8.127520722258268 7.598772822775213 11.773830212379291 0.6758689733310167 -0.2891766005355149 0.43471312364915454
Ni 5.17671664895197 5.859738673490676 2.2875671710899477 -0.07669240775673243 -0.6569993901200233 -0.4167678520246435
Ni 0.5145718122161015 9.126630674706917 0.819632961345529 -0.16030416834111746 0.7491299868086969 0.8026135605491339
Ni 8.52401632787973 2.141427126649492 0.1444258874953927 1.5348172039161374 -1.3171013304247705 -1.4892935084527252
Ni 3.5706533024281546 0.20254299302201215 3.7357843768881622 0.8224305952750611 -0.08228455713252926 1.191262542850374
Ni 7.294591613765107 4.977633696187058 3.830265497738188 0.7851935653004736 0.26323108431434666 0.2883453628834711
Ni 0.2571384718144634 4.804211775533865 0.6932939024109157 0.6058439502921308 0.013261492995596516 -1.2202021087028598
Ni 7.02951781769326 3.003553824043586 5.5396513570850665 0.9267726464282621 -0.21359928021983213 -1.1048359385250135
Ni 1.0864414431881284 5.720263965500184 4.6773856235533495 0.1186795508217956 -0.16165913970711515 -0.6460107523190036
Ni 9.03350445635239 6.0106255423075785 9.513727810676405 -0.06387545849772225 1.4124956854663804 -1.5109383404160108
Ni 4.434356986886569 1.1141180327311668 11.359208586802552 -0.3066130508444074 1.1642459050522143 0.33624655744012416
Ni 9.267393099945195 1.9472057730592 6.9442476076786805 0.8854539901851332 2.1269538319245047 0.8325813105558177
Ni 5.613075501548436 6.472776064997421 12.682408043537798 1.0027592863672214 -0.4668035764257961 0.5587891628961731
Ni 4.17574043962247 7.731323717737743 1.0478332539654978 -1.0761995057352434 -0.2753553783817064 -0.6044133884931914
Ni 6.949921961724912 0.5011786197106655 11.96780428693287 -0.11542736243308509 -0.4735072136982167 0.8299011926204932
P 1.158283001816535 4.230468422653462 7.605068640362768 -0.7002643714562455 0.6460392915640938 -0.86592491901327
P 0.3972057163646257 4.62290491955907 2.8890197730088034 0.9273367464618482 0.2678037912866936 1.9571766910959456
P 9.42095804738612 2.3552721713419458 9.323782984728586 -0.819557130382008 0.15261014213096943 0.9513228249638003
P 7.978602754450664 6.893999574290175 5.106838392562221 -1.0314412276829463 0.2500521237302274 -0.5911004734343691
P 1.679808487170692 2.0740459219663223 13.559055152593363 -0.033017335466285075 0.6982424559302104 -0.3312046241408425
P 2.040947856184408 8.465779781912737 2.7198743799980827 -0.33636302841333043 -1.2803458680722917 -1.3085146171970239
P 5.30195181694156 8.718536282570959 2.513362791718938 0.11763696848989416 0.7553780246009378 1.2681151303340545
P 3.693779600142381 0.7243969395871991 9.235816033521177 -2.069121237186753 0.5610805300335111 1.220448420385711
