# total energy = -340861.22466566967 ev
CRYSTAL
PRIMVEC
9.30601680359817 0.00000000000000 0.00000000000000

0.00000000000000 9.30601680359817 0.00000000000000

0.00000000000000 0.00000000000000 13.62029625866053

PRIMCOORD
 96 1
Ni 6.944829016982702 0.35320986467362275 10.114568123404492 1.1835129808119424 -0.6911436401019 0.1780046709446741
Ni 0.7122183083665614 7.234441563379957 12.88341054366545 -0.09038121809773467 -0.02795637600360992 -0.7642051359742644
Ni 4.29976127212924 6.1546644431565225 11.57176284959981 -0.2757592986883445 -0.36687996605526496 -0.5026115872633408
Ni 5.491592139699139 1.700804840131998 2.9197422732089806 -0.33761618409414107 1.4881282845000305 -0.12999086206955676
Ni 6.378139128712375 3.298238446518914 1.1176470246708807 -0.0158891604264307 0.8897086516964291 0.3825724370898572
Ni 8.486500971172955 1.5111296073095035 11.974678010787587 0.34332351889156354 -0.17727422053655276 -0.29964536127732266
Ni 7.269627612604853 4.61406268088927 6.401089627151529 0.8077912480953314 0.9832446133730615 -2.8376918492185643
Ni 0.9056643391647047 1.4171853685035432 8.25989201918522 -0.19778159646128518 -0.2880825961403878 0.32438091635078975
Ni 3.693427752624303 1.1091655210306874 6.848816050659499 0.5084289652760663 0.9173636944095362 -1.979243698198314
Ni 2.0532423054177165 5.228641331209668 5.579567499379777 1.335597846567061 0.503365691820546 0.7848500659181258
Ni 7.481023088455888 6.272553062987519 13.016644785070595 0.04308834654904192 0.28193431715080475 -0.28438946355951666
Ni 5.200239368174919 1.764216038073931 10.801153939312695 -1.6184636743931997 -0.2924737832295479 -1.262143229021336
Ni 5.826441233380771 4.039537126539239 11.130505968916793 2.0065881516495376 2.0358239085862038 -1.672859732645577
Ni 9.180385495996017 8.57175339036081 7.874451696197525 -1.4143905884962478 0.8578076892227743 -0.42553608513557684
Ni 7.767183102649377 7.9914208815764125 5.76748761744855 -0.6464645520269705 -0.31294362104812556 -1.6544516624520345
Ni 0.11040285998002873 4.036177654502691 4.964597996357065 0.17874514865512445 -1.4467497215532439 -1.9495443713616682
Ni 8.870523057212257 7.4426450754954345 3.747133705727134 -1.040440345857763 0.17525719010652396 -1.4299069389642922
Ni 3.689472695517564 2.7050636346585164 4.3411423366858 0.080404566500997 -0.13412905260764643 0.9287341410300071
Ni 4.135798563508912 6.081184135121668 4.101262074251192 1.5515486577382052 -1.299175342073969 0.1312782134224126
Ni 4.950977710283127 2.9741564141843355 12.824107952106166 0.557791060648962 -0.6917121110108604 2.1611806143178582
Ni 6.7809221444627035 1.0379744931093804 1.191385109368928 1.7201394915681472 -1.1939321192627375 -0.7897588160736528
Ni 8.516959563903207 7.494014287799437 10.823313426330499 -0.22260045527717792 1.019811613863818 -0.4659581977063652
Ni 7.876212394561278 3.8250799711867516 12.487836899069451 -1.0590882999762534 -0.23892490346881431 0.4475537270572486
Ni 2.298967676955248 4.490841713476717 3.258737197340146 -0.780273759401353 0.27324501690692293 -0.6477706724329038
P 5.592925355782161 8.489869749226223 1.4053285725983748 0.5532656619747827 0.5148011873509973 1.8748412261208225
P 1.8421818461686643 8.735502060596538 1.2895970874434781 -0.07103700924316798 -0.8668500019307006 0.5419461231969053
P 1.9427426628637814 4.85544214261775 12.439497725810048 0.018112907550626868 0.26843628266437 0.013897841028014776
P 2.819750984737234 7.516385951998498 4.697204495484635 -1.7560722009090144 0.1996515597904884 0.9855691477411799
P 9.244643541459627 0.34213291296973614 9.871472632192525 -0.7302138666304843 -0.07712075354340266 0.7612812774592502
P 6.098772506725755 1.7625223430305743 8.590797222980177 3.2063235078576136 -0.6942490185001011 1.2900924059360945
P 7.518340215510063 5.349107717672586 10.409025382107084 -1.4434900769653656 -0.0031945956778977242 -0.7365531785849508
P 2.958047699239004 5.824096117166892 7.6235791668112 -0.4243924584494368 -0.35932272253329733 0.2188553864124489
Ni -0.009841112683239521 7.024767700622443 1.4711686409046818 0.29931317474888447 1.2987505958317247 -0.8703690708275527
Ni 4.6789628415066815 8.005547414960013 6.102424187687365 0.27915341197155796 0.16880680649548993 0.4350537948180249
Ni 6.3365784580330855 4.0624764577583266 8.207018023977312 -0.7538934696356113 -1.687345584966578 2.935666820503157
Ni 3.7214760870236256 7.11104378164969 9.472466928629549 0.06808306882116662 -0.4145335633774861 -1.58374118331035
Ni 0.8132313974743549 3.1050083153087145 10.558140341047876 1.5748179126787911 -0.6301984678770953 0.6467149774748797
Ni 4.877609074448933 8.526377252825608 3.8479383400603604 2.292688427252574 -1.1583375099875792 -1.7669027158656152
Ni 5.400365257775927 5.511032408630853 1.7870781293542284 1.7247605352799265 1.8008973276435047 0.22068601186328446
Ni 3.504552837239878 0.708664340580529 2.3110785271169196 -0.8813538519738304 -0.5411989606182356 -0.8547784154781471
Ni 3.5285530543652444 3.818454087280873 11.1095032197775 -1.4103297881633132 1.583987494993201 -0.5418049696333508
Ni 7.597134259093032 2.5167191622272305 4.9966460567433915 1.2606231928323837 0.780148032456766 0.139596760590437
Ni 1.1723347625378553 3.822893057257143 0.9863586713622522 1.5025290333063928 0.5400887582731925 -0.8804315972698772
Ni 7.897858189456044 2.9189624290076983 10.026240065690102 -1.3356880922880223 0.06001957508674179 -0.47329355502551396
Ni 5.807652385619579 0.956211830192177 5.053538389971746 -1.0163521945603076 -0.2682457639201187 1.0229339615428836
Ni 6.108729944618016 7.239392364275922 9.620274392220937 0.802462122572934 -0.1954010120442506 0.19123119693727714
Ni 2.3009033284333698 8.452068709302518 6.8299657831879435 -0.3453626608087794 -0.0014354468949459148 -0.14199405717801997
Ni 4.637002012108358 7.358983985166996 13.555041590701816 1.2641723436362229 -1.3542257460808937 0.10124387184385145
Ni 1.2748219246943724 4.743258111037179 8.97582994243546 0.9529073958421007 -0.41456673060826665 0.5644443042994214
Ni 1.6638785657801356 6.7765762346536516 10.671856142980845 0.29252726217530267 -0.686642666907753 1.3762138203162106
Ni 0.21901896474948346 0.1793827783282506 0.17018657260382763 0.8044022770184404 -0.34372126855061447 -1.3429234336941969
Ni 6.989497897247051 7.26382996418721 2.2865748544869073 0.4926357069975516 0.47236178723986394 -0.45638212398215594
Ni 3.7388504202431134 7.582579648940231 2.0531511064538432 0.3329028377788718 0.8822791920015772 1.9327782076469229
Ni 4.745835877669101 0.6208983662761316 0.14737659501717193 -1.0006005881530058 0.691783330568428 -0.9973396580135468
Ni 3.7553965179743662 4.771594931954876 0.38123307282779684 -2.47423942078761 -2.1900993542347376 -0.33478462818261695
Ni 1.128512729795184 6.865997749332846 8.405002599130649 1.5828888626123836 -0.024359916901603208 -0.8672076423804354
P 6.98253699673919 8.141461789181019 7.652944302576648 -1.010060190904009 -0.6405417587846323 2.5763322708953176
P 9.323418973009153 5.251068831509061 6.541978067310304 0.5373160806240617 1.921637360538755 2.1448350830802996
P 2.8527408140158 2.0042182093275924 10.396358032145454 -1.2367728685773474 -1.7135667234466356 -0.5157134147526214
P 0.210504890050764 5.501931124276993 2.8960696278722193 0.5935787597715325 -0.6652582876947059 0.7236932919031471
P 5.524405154659993 5.3707069824837435 13.204155438403612 2.190925192570143 -1.1672808352237962 -1.180081329422574
P 8.810536473423923 2.6018226851475377 0.3590912672417621 -0.2430805775084007 -0.3198089807093911 0.5487808867305516
P 4.850528565788672 8.459466992596301 11.753811801718838 -0.11981366442623882 -0.2001567815616811 -1.6018096107762865
P 2.0457323499232727 1.8526697270140648 5.509450385788157 -1.386006123816284 0.9954519540725308 0.3286286358835502
Ni 8.903689700808537 3.584724171297664 7.90370795156733 0.1604877451068333 -0.7251778468684736 -0.32540241563676864
Ni 4.320234508917067 4.384250597945913 6.613852156858987 -0.8552137032433529 -0.7336699434998848 -0.4275340894022121
Ni 7.255547609304862 5.327136212192559 3.522480878454309 1.2541429844246788 0.614842040025683 0.09084504510803064
Ni 7.549561901611499 8.690805262282023 13.0121229915455 -0.765589675026617 -0.5173229253315864 -0.4785594314101436
Ni 2.7217586286573168 2.049864221347725 12.71341567500609 -0.6764490142042027 -0.33359549297052227 -0.060893750161579
Ni 7.423902757817852 0.7814988110548954 6.685699258959177 -1.3450785323639867 0.8043796513106212 2.646487905974797
Ni 4.2366013366387945 2.483757250998829 8.54158700655562 -2.0368330665770085 1.878061018609701 1.326776134510373
Ni 8.199214928956135 6.089103555351867 8.440456661637132 -0.6484671842792962 -0.019578436352559833 -0.4370150323094538
Ni 1.3177971099153654 0.24059775632385302 11.676815680566511 -1.2160302367133573 0.5448674106087584 -1.3156394011672632
Ni 2.851047118972444 8.682830005951493 12.994429461952459 -0.2420102272623574 -0.19886557355408332 -0.15610041467241503
Ni 2.1063982729322923 3.0660812473616783 7.331696882935512 0.38767710530627425 1.2759847628901184 -1.0045325762175603
Ni 1.3698735794902195 9.033099169341046 3.395008922603266 -1.8671939939882103 -1.5070369484790753 -1.1925516939754428
Ni 5.8450904908911365 3.9664569772234186 4.56695376304048 -1.653752322392165 -0.034978058737081694 0.19878638357671571
Ni 9.240976970871262 5.356841017568352 11.447218566609425 2.3904363701280253 -0.3204111330697643 0.7263155600173427
Ni 2.0543031913239944 8.76632358797894 9.579235789079737 -0.27937606950532534 1.3446846393596776 -0.739544657113107
Ni 0.10415480035305283 0.8783642085098097 5.749713125510028 1.6593629837107229 -0.6152390183537856 -0.9137201841196781
Ni 8.981404246451783 1.124650732855662 2.0306091421487737 0.28637435520002935 0.046466261882339335 1.9831234928686943
Ni 8.846746184488213 3.4383777523315886 2.6373800444396323 -0.31718285594045376 -1.767910331194523 1.8959630957011027
Ni 8.140428821324905 4.877227527763341 1.1666338966941177 -0.6511349609194463 1.7136950214943842 -1.1819584918406287
Ni 1.63763559862483 2.06561930765763 3.087571631777191 0.09333387296815539 0.8207596353305413 0.790117227854336
Ni 3.10102534015181 0.2994880913423649 4.522524047405879 0.8727216302201294 1.2144667488809795 2.5481174990239985
Ni 0.6459399266726604 7.213744982190808 5.57157270041413 1.496990362876351 -0.3098130458389438 1.9457000579149137
Ni 5.578603396047405 6.160620293858436 7.397645831637464 0.25532699897592154 1.5804691974272975 0.4562219442552078
Ni 2.3795019456651816 6.387277637133122 1.0156316775621559 -2.9526965222919346 -0.6181675048544902 -1.2289158344267739
P 7.536244991682691 0.9622142109776991 3.594695568215008 -0.2724783139442275 -0.6234940592737263 -0.052048126845491004
P 5.755985380780481 2.6794534766402887 6.442604698348881 -0.00587857026796407 -0.2372148627562431 -0.8520679585255195
P 3.8223812263374475 9.061454602292185 8.370175762151211 0.18051149652692783 -1.2016976221407691 0.4354649142135146
P 3.769560275424854 2.4449139372022883 1.112763227095312 -0.21958557971025405 0.7816279594364023 -0.5710810928896487
P 6.392554148614349 1.2154867620765613 12.427512506874121 0.8879140216898515 0.12553462607041604 0.3052449668522872
P 4.482363932243213 4.096964555729093 2.9000740068675834 -0.8728206176918388 -0.9503074963254085 -0.0494579975208116
P 4.83142331345894 5.115200987371664 9.400360188662821 -0.695790394845292 0.6337345060548117 0.9809609595452075
P 6.175258658161732 6.425069371040107 5.183898002811545 0.04284074931461009 -0.49084621919729665 -0.015156910246096477
