# total energy = -340860.74502911005 ev
CRYSTAL
PRIMVEC
9.32646636882461 0.00000000000000 0.00000000000000

0.00000000000000 9.32646636882461 0.00000000000000

0.00000000000000 0.00000000000000 13.65022626444256

PRIMCOORD
 96 1
Ni 6.884321732855606 1.6553731468958264 7.172005910672908 -1.2138157455605418 0.5898105509783519 3.5962737254687807
Ni 5.452587920067318 2.3303201826366147 2.755243311260557 -2.851647025847076 -0.27828489332367556 -1.4501152955913672
Ni 2.6187504777535797 1.6797711825947843 12.725204950659817 1.4404214653423708 -2.052899890231884 0.5947874353676531
Ni 4.1267374785673585 8.395992687836467 13.068317250022409 -2.397898482833025 0.08200225000542007 -0.5190190820870868
Ni 1.2744336330869783 4.292944433533388 2.7329801036852577 1.2576378849518146 -0.4948414563996187 -0.19952660417684992
Ni 1.531797469139253 2.1428115787652255 7.456872563037361 -0.3352168306240291 -0.39094369187268796 1.0181141715567368
Ni 0.4196312916760871 7.565536153913558 1.4577490577342653 -1.7925669534009387 -0.676133796956629 -0.8287087149742889
Ni 1.3253095064577034 7.196282702310672 3.618811598295856 0.1384359075131164 -1.6924574522718467 2.0502866209787527
Ni 3.3455899716858832 5.910638656796267 3.817613620144259 -0.8037926684588996 -0.9969164544331992 -0.1742986828479966
Ni -0.34748547938523816 5.72842748575248 7.582645556241441 2.0022748689861647 -0.45603142551095655 -1.1149892249089313
Ni 1.2794419454609618 8.848718012339077 9.099049692842035 -1.6452882507852118 3.2749416232466437 2.671648978621457
Ni 4.533679180269439 0.09895100892784264 2.7087098405738663 1.128604501699521 0.5707381077279333 1.1445250295845193
Ni 9.243013025811882 8.336014183409862 11.103284905540976 -0.7503764576212884 -2.6208375523965444 -1.7603813698073296
Ni 4.72343546250606 2.6402946147813293 6.65522268540779 2.3696469441864996 -0.3078034716080828 1.0788904223038451
Ni 1.8614880509275447 4.815935354731697 8.304320053166832 -0.22716107806466684 -0.5991482834395101 1.6421905856964945
Ni 2.3778385281588594 5.954612945145116 6.334332557169015 -1.2658831556797425 -1.021251688744454 -1.7322388459348426
Ni 8.476601335598737 0.747021034241545 9.724707287120506 -0.7219241158178664 -0.22665122830778384 -1.1476584330071782
Ni 1.6628436463586953 7.267872657213272 13.186008860224522 1.2481685120087986 -0.06937324838749988 -0.6074786576820764
Ni 4.835138548731757 7.443247528498902 1.5588153092066506 -1.7105233086346219 -0.3206101364544478 0.23631291976726398
Ni 2.2220678889218566 1.418266395529384 2.6184548287735883 1.634634370615791 1.776991981780817 1.2603059187022811
Ni 8.942570242170353 4.753280154492553 0.4722978465660017 -0.054538497367512526 -0.8627200389227272 -0.9548226105869427
Ni 7.319102936301337 5.960031622033913 9.027085746642978 -0.9429392288857954 0.45505363497871953 2.386961267095231
Ni 7.1698048646389045 0.820675868770961 3.400257986232142 0.8042670369921567 -1.051911579722156 -0.5082492451650924
Ni 8.336984135899423 4.04164280054087 10.349409851255407 -0.5031283789987593 0.6836961826849193 -0.5715045535803126
P 3.3058872048776013 5.2000458670641105 10.059124522002158 -0.056354210420012624 -0.5324980904101281 1.026708083873335
P 2.677973538414277 8.606379113408753 4.5504798765645855 0.571135600276668 1.2941812312934873 0.2388505985874532
P 0.517275662682896 0.2867244844406118 1.7160791156896025 -0.7076714625535941 2.5501407001016148 -0.005003366751862351
P 2.8649971660408857 3.628144593068007 6.751046530203423 0.20862342427179556 1.3169210960931643 -0.8758018118073497
P 8.741361059383914 7.109947604273495 13.101527863677005 -0.270515790901218 -0.29656903634484405 0.08351560132615293
P 6.991604074080803 1.9087918877261365 5.191467383411243 -0.010716615086555737 1.4722599500092066 -1.3968986023590715
P 6.724773874789062 2.9757209733107755 11.450355357178278 1.4420435743268263 -1.3477565934167823 -2.7477106947727257
P 6.951201822304088 4.252374305364249 1.6317342855492747 0.08930546853505264 1.2349173034258474 -1.7415035590662202
Ni 2.8447214284225617 3.2935109841694525 11.1422835241477 -0.6377053177771017 1.6208128913516668 -0.4183660497496989
Ni 6.30570776696747 3.7731151843923976 8.495777482846684 3.317994745682376 0.4086814754720832 -1.0432587891431644
Ni 0.9078251673113947 2.9613115829610464 5.122493502290583 0.4263938051501818 0.9830654074827196 0.830628557704821
Ni 4.322126946416431 3.4369427085632895 8.942604750095462 -3.466030381068786 0.12103236732468835 0.9237441440145833
Ni 6.620037658848964 7.31266767459175 5.439614805519438 1.0906318791104892 -0.9175984361281617 0.25201824631766273
Ni 0.7993760851588506 1.5880174076688096 11.133014881992647 1.6443497981313422 -0.18194102988460278 -1.1216342410292746
Ni 5.358455896248669 0.44197190892122634 5.05478802057935 -0.2713370012509327 1.0636568931835422 0.5657437398371353
Ni 6.8736056231392055 6.702082582413083 1.1200106682224908 1.9305351772490171 -2.0287094090286093 -1.3607599476549856
Ni 2.3284362364549676 7.203949057564702 9.966862454665788 0.9803474943309245 -1.877745030031179 1.5843765029015036
Ni 7.706561650015985 9.312569811072901 6.0812299835444374 1.0683242167522249 -1.48846304213163 -1.0289079197381312
Ni 3.688794603064309 3.3595050593245857 0.6876133095491812 -0.7386684251557407 -1.8254079111903594 -0.9966212917902838
Ni 8.702404409875294 3.148587025176291 7.440219224908898 -0.2073630695021332 0.8112429540893578 0.07135865424864483
Ni 6.130845851325358 0.9408072825429681 9.813093275085128 1.2625669468223157 0.30330481240678087 1.2965857269699217
Ni 1.810453627630641 8.225047888017583 7.223617642230425 3.076599012075566 -2.0837014489937724 -2.646909824003564
Ni 0.11773171400696805 2.173663529106263 3.11892606457484 -1.5594352595751337 -0.6404677110135872 -0.9271899364713387
Ni 7.961575216574323 5.413696555822419 5.077188327208463 1.172171587657194 -0.6809214481532596 -0.04963566074925645
Ni 4.880092116036413 5.995593437829069 8.936666589036774 0.3964453384172076 0.5803193236584651 -1.2874619102917828
Ni 8.643470469668216 2.6638905743831507 12.437143983606184 -1.8489345335573901 0.21016840016141222 0.28984894401219113
Ni 4.81692396015375 6.847137111933685 11.182988886077405 -1.1777465106418104 -1.2835844296142473 -0.2705044780473083
Ni 8.812904381955285 5.68832368089563 2.5080238725438164 -1.4102058609909391 0.18061228377085023 2.1525507065570024
Ni 2.9373052588444106 5.3676797713657445 12.293502413721818 0.29177007229430396 0.32868854258720814 0.4067289797314027
Ni 1.2329401847595072 2.3483575683559517 0.724852023975328 -1.859883833480042 -0.15372471535138688 2.29926685180104
Ni 5.8295730121879545 0.2821694383261733 0.22757137227675783 0.3521395745212968 1.8887028145942637 1.8068622869776882
Ni 4.501073854274195 5.010504093551142 1.9407891281221552 1.501837406556007 0.7154027697595808 -0.2648102558760085
P 4.676840437142148 1.1779513397743935 8.40883989509003 -0.8695224065565412 1.2018045800322785 -1.5768179738279553
P 2.3824737818830113 9.160138046751888 11.498800753445352 -0.13067528973109108 -0.7268092118243096 -0.5353851821499359
P 6.6024759229081615 7.918011292740289 2.993985924806509 -0.9370076938927088 0.43572948072881085 -0.11240914443205156
P 7.524630272959571 0.7046014678158679 12.51736651566588 1.324326901638932 0.9427841913651699 0.7912045473812438
P 0.8075171575447913 5.283862819214927 4.654058678043584 -0.4893706630930346 -0.16225306453737218 0.6700127716605557
P 0.32006753391589676 0.31357071752908705 7.22095586876388 -1.5554343659458565 0.3269445633129079 -0.13798107936388493
P 4.003861285779219 7.0257762464053375 6.987769031160539 1.3248722326194409 1.6392780400353897 0.8461809036171234
P 5.126357457256209 6.228120894268834 13.197803109438933 -0.24586971021776366 -0.19298340374169345 0.9886668128298972
Ni 8.569987242117723 7.906371862865556 3.855820421766718 -1.954914120314014 0.8209198150574893 -0.5959760563591155
Ni 4.789662699317338 5.024969442698345 6.459955394266537 0.1004393736646851 1.1866044752530727 1.1488717365889893
Ni 2.4331444729963296 8.593667139915757 2.287095742173927 0.9603119158362879 -1.5024254178489933 -1.5428231049397494
Ni 7.924884898363428 2.1420934408643006 0.9178016882545047 -0.45513950982430645 -0.25736099868681483 1.286851016180661
Ni 0.4241135913538085 5.490583943552621 11.823102503036832 1.6373661677246574 0.19905763496023138 -0.6008459828569073
Ni 6.161781739862606 5.793265079093137 3.603318472568368 1.1121167884571428 0.9905979684143391 -1.5806625443850262
Ni 5.778920974007129 8.482309132941154 7.137962443582566 -2.0225585589358652 0.7055898974342171 1.6693923429222668
Ni 5.032188127572578 4.090672033594931 11.527902126072057 -1.9296807996685217 2.891019614107427 -1.818416824584507
Ni 3.3877829049817882 0.6864437706819606 6.673882146425719 -0.013328341677789948 -1.846919045789258 0.688160131993544
Ni 6.135704940239409 3.4994766647412385 13.316136380518753 0.3730737535708027 0.31651771155262903 4.293772618364747
Ni 7.989461350649202 8.117457773406274 8.201684157425282 0.4823631214269499 0.42309096602919394 0.5265431583782739
Ni 4.708084099065507 7.644960340462614 4.369533374343726 -1.202542743749884 -0.23336746398569483 -0.4556151639091444
Ni 7.533210621905688 5.34590247268185 12.174227169551173 -2.3255746364576333 0.6886028759579172 0.7503926555712044
Ni 3.394115575562672 2.1908801857959714 5.020825693745346 -1.630135197193857 0.44286300644979865 -3.418068765587843
Ni 6.267609152353462 8.426639455920098 12.08143256099217 1.0887904550263765 -0.9719420438760487 -1.169409451531025
Ni 0.26582853681694374 7.296392990992865 5.872996106381678 -0.7431187476176105 -0.36562115394749933 -0.305552470790377
Ni 2.9643426844909246 1.5321145689916096 9.864308631827202 0.09665445270095613 -2.507852480856365 -0.8091354208280517
Ni 4.915057037991839 1.7757032143988685 11.97565737671229 -0.1838593299532382 -0.9273215769531965 -0.15909420719341633
Ni 0.3088310073829821 0.516544467729227 5.021153985357197 1.6811440841415564 0.039527625780977085 -0.7421165316053412
Ni 0.4375082621759965 0.04830829721326207 12.854240341756668 -0.051927027886594444 1.441797262643975 3.884609832380871
Ni 4.995497809361684 4.164183240544162 4.428065343855612 -0.8706174393929328 -2.202676676679116 -0.3390616582914161
Ni 7.223068313368549 3.3497495756315008 3.397104707994444 2.5894137866696245 0.7308741259223026 2.892698544471747
Ni 4.453807323340587 8.619053781036767 9.43558217026823 -1.971247824477031 -0.6451661449305212 -0.5363046086404119
Ni 7.703670445479792 8.934726684057653 1.2791658820600869 1.4375415726914145 0.3383751737473527 0.2350188835461888
P 6.909307335928049 5.580593669290636 6.972330931583901 -0.7312299665998245 -0.48435881170074 0.010794005291710443
P 0.1324264942238176 2.5966374262848375 9.367577308990507 1.1200123891551355 -0.35848814244714394 -1.3391958483309647
P 2.1372343519502497 6.299953337293824 1.7619709254985831 1.2609042144079123 -0.37602743688248785 -0.8638032446845768
P 0.2926467905066816 6.255167646381593 9.64067675889266 -0.4332254833600345 0.09828376077426298 0.016551476600777947
P 4.042873894085313 1.1490299679462326 0.9597773148868827 -1.2682809664879577 0.7219290009138728 -1.0885706257060865
P 1.2005493674879164 3.4515386282379343 12.694273725355691 1.8889707235436695 2.671193122030961 -1.589062081302631
P 3.3347526179082876 3.468316941014091 2.9765818061452607 0.5335103337247263 -0.24832537084710782 0.7061797084994161
P 6.326170033910709 7.867722986743047 10.028848014628483 1.5954091065665814 -0.3029284029039686 -1.846708986660981
