# total energy = -340898.450169144 ev
CRYSTAL
PRIMVEC
9.01326237279391 0.00000000000000 0.00000000000000
0.00000000000000 9.01326237279391 0.00000000000000
0.00000000000000 0.00000000000000 13.19182055711058
PRIMCOORD
 96 1
Ni 6.294339503415653 2.0792694411090227 11.299809561817362 0.5659154895283093 -0.8189590917866928 1.3780447028773621
Ni 4.589877554781717 0.2138901183370834 5.981711802406945 -0.15763690592159949 0.3280406245905641 -0.24530869550797105
Ni 2.789956146913372 1.6015034553061445 4.892885401117505 0.04034806479974341 -0.7863539041571618 -0.9787238426845724
Ni 3.33163517449051 4.1427206071773135 4.7449786708662804 -0.2955035711948072 1.1830069877098013 -0.02593446047757469
Ni 5.083092271877936 4.538628146302173 2.4616994493686937 -0.2538627557255692 -0.19367400205081484 0.4804988145247015
Ni 7.329116075681301 6.089296803186822 2.444035258243437 0.22869062733531584 -1.0344465901681732 1.0237430877077403
Ni 4.982179789053987 4.541927000242292 11.491961494545762 0.9584357818594976 0.29766895427724216 -0.546474350084562
Ni 5.6557048150902824 7.800554751467887 12.307427372628462 -0.8751739484153638 0.18723467418337433 0.8425875298389102
Ni 1.8691883273486989 6.536129273354492 0.3253985921227888 -0.6176142034541815 -0.24497059544226196 -0.030590214082031185
Ni 2.724619009722339 1.5223489872675668 0.30155580980640884 0.3158890768296947 -0.015262068365393072 0.27330518072089705
Ni 0.6460246619469638 0.0959642019137707 4.797350230481193 -0.15135750067079093 -0.08096121033541541 -0.17637124910630916
Ni 8.665178961215629 2.2155409512747313 1.3582030626340715 -0.3577276101320355 0.6716798749503334 0.4890045380028676
Ni 6.886150294968032 0.7091328194128836 4.816452036916418 -0.4899563603931755 -0.48307505989231 -0.28879247772321875
Ni 0.8351391253370599 7.392226937125861 2.5109578282433955 0.04450785260438787 -0.21241451588311164 0.25745407262125336
Ni 7.475221054832446 3.6749503290782366 3.8672347567599714 0.9510932254514975 0.28655484664195163 -0.5319812986747097
Ni 7.666734848601938 3.7402333866964805 12.494275901918707 -0.16772128674079503 0.06698752176414269 0.6617410185700668
Ni 7.833876781567935 8.965212431048032 7.107159087736552 -0.2078819181200807 -0.8597912953117064 -1.1806855386654762
Ni 6.854612890770016 0.6766562333007676 0.2780068598355148 -0.6432252191540664 -0.17276630536387022 0.5616513149353166
Ni 1.9478110129215194 6.3428669067314924 9.173261955523921 -0.5446540090463717 0.018745656038619326 -0.3250344907743886
Ni 0.20377543557314676 4.754198336700563 1.374033956241787 -0.47704248054498494 0.02924655556994318 0.49265833270537085
Ni 6.32000026070395 2.0365285520815877 6.915323520508965 0.21612616040674393 -0.238876309619066 1.1259912324463899
Ni 3.3287779703948335 4.1697243405232 0.44388242947203954 0.12554002538705475 0.318709062776993 -0.011090710596522835
Ni 6.029556901779433 5.529789543113633 4.626120783138575 -0.3173209241802148 0.5816203018580758 0.43055076474134873
Ni 5.383360086525758 2.873644285804079 9.352420369563594 -0.6283547298001372 0.1736592494917848 -1.1853333218501327
P 0.06816820282652758 5.468697652386524 12.405666521904216 1.3891747513522528 0.5401514931903277 0.8627166964886175
P 3.9577234019288734 6.084222336606803 12.556976659936284 0.19033053949987866 0.6974230453527085 1.0900976038735744
P 2.3709295904212895 8.471042308165876 1.329326373417265 0.8916454637078257 -0.030892575813798406 -0.074656094052994
P 6.24940839169027 7.6681949970672365 5.648895295549956 0.357706527086113 0.3277020103042227 0.9279126735699762
P 4.77624477587414 0.9434902533981111 12.589033228033072 -0.1579292403510377 0.38872045896912405 -0.5990066156553232
P 4.059320892674814 6.095705232562297 8.286903165472353 -0.6233225666928685 0.6112152419063732 -1.0365469243406278
P 4.815713850747851 0.8482543230645633 3.7478360733043763 -0.5930532262853657 0.8238277327329039 0.9083499209467002
P 0.2155819076391605 5.661491329378687 3.6621551021564005 0.03517860478366199 -1.351077430259899 -0.9420452563166163
Ni 1.576329414172946 1.133859362876908 2.504598971809642 -0.48870011938857116 0.03750031093830316 0.8969861591944488
Ni 1.8052752855744385 6.438037941577694 4.956681270484056 0.7842862229948557 0.06064255338272136 -0.7610599054770635
Ni 6.003706865986374 5.8017016350958475 9.193141606481094 -0.1599041046892214 -0.08084113981778335 0.7885966774447515
Ni 8.567538292545404 2.472445961808046 10.165458074828075 0.06732485049890341 -0.008994490189126444 0.7168297320140945
Ni 2.3895149369363824 5.152160899591397 6.959371332545463 -0.20935310334896848 -0.1111513607655505 0.3349743755959199
Ni 0.36149760828554295 9.222550078163657 9.044786917101936 0.8546791708961216 -0.9143357062164899 0.9859345015003987
Ni 1.3776590902710646 1.1030159798630146 11.2468449295542 0.4768365351817658 0.2674533499258103 0.2502359576062594
Ni 4.00684568054539 6.730419151860479 1.5216892164795432 0.7961564920698805 0.9048822741130739 0.0717314642070313
Ni 5.510411029530971 7.882566423602141 7.856111597920061 0.07499702233218052 0.5572303030494855 1.0041656797964449
Ni 5.158163732170957 2.865162806138365 4.9890803425418415 0.8720644562521046 -0.8352388027833229 -1.038081101596967
Ni 0.8626106469875702 7.636152850189858 7.020198233365908 -0.6498152136667583 -0.6565772149809402 -0.08524749641559513
Ni 5.1323497494264245 4.378047868167887 7.257374114419646 -0.10752250576371161 0.44336180046308804 -0.44596272842104484
Ni 8.08839327763641 7.132005046128164 9.101617337493284 0.42442459723895287 0.5033057851168881 -0.013440955996254271
Ni 4.575402255798575 0.3152000860210295 10.338060241993317 -0.4377858490372073 -0.19239513533839123 -0.034517059940263134
Ni 8.122048798435323 7.233728722543945 4.6594698530250165 -0.009543677824377112 0.3526396540861669 0.21215432024318948
Ni 7.208004872420727 6.222260446150281 6.980702118705802 0.1071016161762091 -0.5064718415496955 -0.5010560698507629
Ni 2.425703184394238 5.197479581588434 2.5748717713438682 -1.200961772416009 -0.4164798884705795 0.1872644989800452
Ni 2.3129112220810115 5.109122572913624 11.536879987704163 -0.6671027971026124 0.016156040934572173 -1.021797276835279
Ni 1.0956611579637345 3.293680327654886 3.8558104470083316 -0.46644722152764184 0.5471508073262964 -0.5166253850439296
Ni 3.796863712668512 2.4949971436609863 2.6789947781390464 -0.6489924606551468 0.4237692230431412 -0.20292405989417311
Ni 1.0356598719545327 3.4256164587353575 8.363310391213258 -0.19287464607797106 0.5709193705008039 -1.0979803490557607
Ni 3.6292530900716793 2.5331412690013715 6.924676582622792 0.23783115618400333 0.6204935818845055 0.38798538057531246
Ni 4.242199981322358 6.694375116596726 6.06238049848361 -0.4992979495090755 -0.12228912254992487 -0.5310605866326531
Ni 0.6561375420584742 7.195954140950951 11.12872522799506 0.18693694043729742 0.456610180832562 0.5244914180555676
P 0.26030301035687964 5.651531674723412 7.857733985103725 -0.08401362400849402 -0.15435309296400515 0.6342533546727592
P 8.442398161112061 1.8243924145552883 8.024913773770674 -0.2934009230295076 0.7137107267691386 -0.3837214630926359
P 1.831810329289489 3.2753293259552114 10.429321323726887 -0.21578703189977033 -0.6708668921307349 0.25576845738871434
P 4.019094703782058 6.045185898315403 3.7392085787921325 0.04823903751204595 0.4087663218764057 0.5853615140680629
P 6.898525503874542 4.095031437239701 10.457353470281975 -0.2427902999614915 0.3295956277825097 -0.6454152848268497
P 6.272139838785841 7.858555093283902 10.212104410337076 -0.0024443477754345 -0.4570626949889483 -0.8900333820256995
P 2.5098870527021764 8.35617729556241 5.742306941628095 -0.20692443930281784 0.9528644584193073 0.9166684681147246
P 6.951532498469723 3.8234077696456943 1.5965533717435407 0.5508115440073352 0.9646293122647194 -0.4214585726320935
Ni 5.303268239225508 2.8754108851818474 0.4774460149972109 0.14740751488410742 -0.32440585605145417 -0.5007817331434538
Ni 1.4836189998886364 1.1907330469264896 7.056001614530749 -0.29147979474739477 0.12964247759120254 -0.646973373342589
Ni 6.860741909019417 0.8210991669148677 9.188960354178304 -1.0566436950905027 -0.4607946512275548 -0.0020262864014094135
Ni 2.728945375545445 1.7386672784228685 9.065458833800463 -0.09924098248120973 -0.5345148637298408 1.1902852665387695
Ni 6.338639686791833 1.9282071677855703 2.593868122612157 0.6566512627519853 -0.17289228941877322 -0.13240692771021714
Ni 3.9214720616360976 6.773655770305144 10.489976972566831 0.7823584098445235 0.6907759723498362 -0.44658236428291476
Ni 8.276094461524291 7.1827046456176875 0.5132737319698077 -0.42507431500780984 -0.7819748012528597 -1.0066221117567373
Ni 7.479060704500451 4.051857911629956 8.247512505979184 0.7654670334058236 -0.6480385813823096 -0.3479275933224782
Ni 3.099327356313979 8.348732341041815 12.301636351708993 0.022147225521000565 -0.022663503035786774 -0.0506576742558676
Ni -0.006228164132846394 4.9209617126570375 10.189256692160011 0.32428578553382215 -0.11011572041218455 -0.09909905758670674
Ni 8.604429574449513 2.212764866538238 5.810983492438837 0.13523282719478644 1.0414289350232775 -0.04130348673447725
Ni 3.8091037226430497 2.599361705881288 11.482621952325134 -1.3016723974642097 -0.5237244579825562 -0.41470377040676326
Ni 1.1003931205827566 3.2997552663314975 12.631457751559694 -0.2591934239098633 -0.16821622409934253 -0.19183951994523735
Ni 2.92824662779653 8.379251246618976 8.051640799969125 1.2755679870676742 0.06839057275925642 0.03507884598100411
Ni 5.688197625074235 7.7865841951641075 3.452207384675623 -0.8857578945787972 0.07964789084063056 0.5623457698991798
Ni 2.931022712533023 8.34434288238379 3.56912651971885 1.2437400439237998 -0.3586336668860727 -0.21429244963211483
Ni 3.42348932887233 4.269735497134001 9.207125682678072 0.008222130799476163 -0.4951445894623344 0.43233896699002317
Ni 7.282697775704227 6.237132328667207 11.43929970789022 -0.3246979333705763 -0.7116648999837034 -0.20488966826097618
Ni 0.5551367292656375 9.050396771452561 0.28942486030366216 0.36003568943992187 -0.06206463054122859 -0.1175148410897331
Ni 4.638450024408213 0.3498146179107304 1.56490600574752 -0.35647959665754736 -1.0065830309886858 -0.1831787589464458
Ni 6.027808328925927 5.561335960573782 0.3831447599466966 -0.1831515052529362 0.3195780956455077 -0.19966364397534644
Ni 7.925451524823679 8.881650477827165 11.256408902001903 0.3491354975876503 -0.26748934537006835 0.13893624418830267
Ni 5.137559414938414e-05 4.8882075180712725 5.769680218721371 -0.22002909500557588 -0.6788668796170759 0.009926000864460324
Ni 7.958079533739604 8.832573265521305 2.4493648001417756 0.00022599996787703015 0.37194452506236586 0.3880409164035963
P 8.538254203880255 1.6498145403308286 3.6075140031367847 -0.0959959931813508 -0.5510740536401025 -0.10939529730639225
P 1.795387737016215 3.1535060749862507 1.6524734526596123 0.549601582859634 0.06599276195104119 -0.171176335168931
P 4.615844762982484 1.0615910271067743 8.22024558537906 1.1108888295873127 -0.29296152149924387 -0.5738972221822052
P 8.49962336238477 1.5834498912568082 12.433567976158397 0.1689361329845026 1.1493558753142594 -1.2237869978406408
P 6.310419163058198 7.734803004218807 1.388281219693003 -0.028402976622725274 -0.3796758322683526 -1.0428972920386879
P 1.726733719360801 3.2746623445574823 5.999640082112654 -0.16248600648378467 -0.6434455626949886 0.33995177420585326
P 6.871224332878317 3.9784358783069935 5.9514497748005315 -0.028839035718879365 0.10664678802697762 0.5903509968628543
P 2.2152615401486555 8.403587054373949 10.127861955825285 0.3699691465035499 0.15824291493671458 0.443609654807836
