# total energy = -340875.89505034406 ev
CRYSTAL
PRIMVEC
9.20036490818508 0.00000000000000 0.00000000000000
0.00000000000000 9.20036490818508 0.00000000000000
0.00000000000000 0.00000000000000 13.46566403026343
PRIMCOORD
 96 1
Ni 5.653624233852176 5.211463896903921 7.043955777134582 0.40628700709797777 -0.033844459353270746 -0.5728384419003877
Ni 4.813262903469656 4.786719850720001 1.5116420346949935 1.0500516436952818 -0.4667261862206414 1.3105465600253883
Ni 0.9162606606991774 0.5285140419059638 12.45874221821034 1.930972779007068 0.15053449054886334 -0.15227641294063454
Ni 3.8738412441597396 0.3278504031915465 2.1236291473070503 1.4318455507479018 0.22254389100762964 -0.3239790529266808
Ni 2.2042142234696014 4.2238139247643005 1.4703829982804941 -0.05841854914820906 -0.44939309425883245 0.6354990541544023
Ni 4.160110598165127 3.171632593184095 5.981717526677202 0.5576339662458074 2.1027137284302175 1.8428924411283683
Ni 6.216465757253544 0.9535350190735122 10.316826425618984 -0.3235411940583138 0.4841420677042437 0.9779108598649741
Ni 1.5939816204448445 8.534102079266562 5.730407719236162 -0.6759157674085521 -0.8719045336354726 -0.4367219265490672
Ni 2.1212085313006606 4.08893657526345 6.429558168917531 -1.3218036209964463 -0.8704240924352042 1.6414912456366246
Ni 3.6959521887300704 7.119775984313062 1.365539319974089 0.31166269745317293 0.2755842065630609 -0.22556108056739865
Ni 6.601666635077664 0.675497231548235 8.037560225440433 0.1678776098130012 0.8523528367557901 0.2259871123612237
Ni 5.451133402667712 7.827320846933351 10.364494436226002 0.16968560955601744 -0.8407481626373262 -0.24211050028564754
Ni 2.986180837802878 5.663174212623109 3.278108416224569 0.01604265528515947 0.38382096478497774 0.3913967202497065
Ni 1.9670104155002333 3.382596960445658 4.291992308853053 0.4180328347799962 0.7023330810598162 -1.5047160136553828
Ni 6.39209152291669 8.923498323487163 1.213050631972929 -1.2180716926234185 -1.364663910695082 0.6101490054253879
Ni 9.463127326234325 5.408664518268263 7.070874204772344 -0.6147631071586317 0.5892315385464304 -0.3909184950617074
Ni 7.83141500931588 2.6182950467291377 4.298616571584335 -0.15886306501921674 0.2930221995338502 -1.4348974502003482
Ni 8.848432546230857 4.051463489007176 11.229030645431743 0.25671565179333206 1.3848712388808924 -0.6104454536198842
Ni 3.2666171604587735 8.280337614468985 4.0117979557941466 0.1628269347629712 -1.1553303477301393 -0.09283970694055624
Ni 0.42904889692276477 3.052377463291187 0.12618300466604163 -1.8956849023390512 -0.2536511539353954 1.0510024376443254
Ni 0.6054530134568381 6.295082875363009 1.4149452795115767 -0.4296539639586923 -1.4992989564048695 -0.5578100868123554
Ni 7.383292835909471 5.557388416950476 2.652089827096568 -0.3425043654243779 -0.5292857541204175 -0.0045277126670244605
Ni 1.1247722106771847 6.07526775706326 4.885033110017149 1.0641569727484124 -0.44779001143777075 -0.27135679874527463
Ni 3.0817082266069247 9.387040308473614 7.340995078297247 0.1357881854776242 -1.1545055378359987 1.0927340130551566
P 5.931797266741548 2.1950138585650416 12.252313630846725 -0.17357157487398495 0.03664901868160139 -0.7782929815258984
P 2.0033150554136276 2.579819120698267 8.347135943822053 1.0955807384753324 0.6213723849450331 -0.7828080957874325
P 0.031431206623448636 4.08328755121205 5.0224635607790145 0.14985854752776126 1.4461935919394577 0.4129736750895339
P 4.038564577410983 0.13255333732595903 9.680749077540828 -0.4385744063767737 -1.3760019614157206 0.8897983831967577
P 7.338146645322795 6.869415654530173 6.523817747437729 -0.17568784988603936 -1.416949864582992 0.6283202770177759
P 8.197837942369794 4.802139662300044 0.74327815987311 0.21805885865308253 0.32203324205421957 -0.6406577155372063
P 4.485812716151458 5.0581674168641415 4.831372901747793 0.5671542470314168 -0.7277188681227725 -0.40726479763021467
P 8.373896125183457 0.8529685904112372 9.444722916279243 -0.027822164418590794 0.2863098205106811 -0.3505516612088866
Ni 7.212046443940895 5.537819240798478 10.425440413463278 -1.0731581478057584 0.8759072270369624 -0.22825482534947789
Ni -0.04069137389988837 8.692725570586083 7.59779934365929 -0.492786630753119 -0.2395669079281874 -0.27010312884383164
Ni 2.0355715347690153 1.631574311444877 5.918630624526633 -1.3831786816698177 0.975377551920159 0.7597026201182207
Ni 1.8113678424097903 0.8255266620104059 9.981005746310617 -0.8364587912333529 0.004707689888314473 -0.6027378005629813
Ni 7.365646536022526 3.1013878071377787 1.8384803977470385 -1.9403930438797032 -0.2497219940843183 -0.3147904444488772
Ni 6.505771231677435 4.3897701069127555 12.55720268334596 1.6129892815421898 0.043843993768143845 0.25629759041930705
Ni 3.867272183617884 4.345479550262203 8.430407526536737 -0.03568202678264177 -0.5722406604153888 -1.0325802263833959
Ni 3.033314307208939 8.064110638482013 11.2274150613545 0.16425749656191066 0.48796864053918537 0.4620537204456365
Ni 6.087633047494988 1.740479030820155 5.572697824151665 -0.4374109821962918 1.0034252020859944 0.19297697598379024
Ni 2.9138015670987034 3.0358444075576925 10.246117941181478 -0.6366658207689939 0.6839319528448092 0.8621405122701734
Ni 1.7730391222173931 7.192330061950423 13.099115216662435 0.9428682664385439 0.4051570072585926 -0.2374290356495782
Ni 1.7135495627445074 8.86938177711854 1.5113595834924236 -1.9702890601081873 0.05512830843271151 0.006483293731498512
Ni 0.2844798830314502 6.842320579886243 9.00851613546073 0.4068328522991187 -0.6531293656416557 0.24452090949935312
Ni 6.802446198389879 8.855047608597236 6.053583417019701 1.160332686040737 -0.7535895652419473 -0.4330979566432348
Ni 5.506584001947496 9.168191228488842 12.452480449856294 -0.37584026057234626 -0.4116624124772781 0.7862718859663169
Ni 3.5830913124458315 1.2921084475613236 11.673289585614725 0.29745555271485546 -0.18202150541355103 0.309023460058113
Ni 7.368553851332367 1.4378606283793645 0.1243346513567155 0.6658640395995049 0.7969008264350727 -0.27266060515836266
Ni 6.362401945369675 6.377692951841055 0.6025052165414171 1.3337726204328642 0.7462791476234631 -1.1838611081799806
Ni 5.319963800223399 3.4874627196278336 10.410142966736466 0.7590804131531895 0.40298056843256397 -0.6718212856242043
Ni 1.8985597006103065 1.004486639914966 3.565411891245229 -1.1833697703658588 -0.07891744043250924 -0.34226756682322346
Ni 8.163097364490175 7.863791093415027 2.33315549753403 1.1463898507073997 -0.43287375644757065 -1.396161724193047
Ni 7.419257062321398 2.875132433404837 9.252850226231132 -0.2936672893170168 -0.11864946891480856 -0.39270078377311074
Ni 5.286419269781373 7.588681782038871 7.725668775212338 -1.7583558547368685 0.8573248360490848 -1.3577101050850682
Ni 8.966859643282355 6.141179171239528 12.497751765405674 -1.5715765229233578 0.21810822383377923 -0.47885742226653666
P 3.1800233259770536 2.5339369009192265 2.515911545998212 0.27586239992511197 0.5362519010256056 -0.2780547795907405
P 1.216812661182404 7.405456514964557 3.0434153878376553 0.3287818736319628 0.23070508666218334 2.164128384092273
P 8.658417409856977 4.569480834593528 8.974797718122009 -0.9469642908847884 0.35884655422782713 -0.11708418131021771
P 1.783205525436932 7.080748036387917 7.377002546424224 -2.2040015661381265 1.2259575231293984 -0.4598238026738532
P 8.741938322460575 1.3881878582596445 5.713952866604356 0.12122057207609448 -1.9100085180505753 0.7903380856158906
P 3.426096285714418 5.230287843498651 0.11449946127374078 -0.8859427568960936 1.9147262352412182 -1.3320684932575642
P 3.2280768318735715 9.038107269103268 13.39534672578648 0.48079809093267517 -0.5654220948316585 -0.4132981483084882
P 1.3703023488851795 2.5965545844596623 11.766135988085585 0.849675289923627 -1.3018829708131192 -1.0316209477939202
Ni 5.544572308638425 3.5537973505897122 3.5324745848869035 -0.3933854685449612 -0.8494035243194792 -0.026296471802683748
Ni 5.220139841008922 7.124118556548014 5.195107488176595 0.3510967350790792 -0.8572926972595687 -0.0487260044507935
Ni 4.271011796724694 1.7830031174090317 8.603064334445182 0.2171486881339873 2.140019406859211 -0.7398981837977838
Ni 7.892514632647064 3.5238685635551783 6.853605747478177 -1.084296680921081 0.31837121982160005 -0.49690450957623455
Ni 8.442457244452239 8.524966116916334 13.217384067437575 -0.87185953933015 -1.4184012523175378 0.6793798146977525
Ni 8.986870436949772 -0.06907081948449442 4.0775373231467 -0.16202089392190808 1.020342032445991 0.4911645217686638
Ni 3.1890212828537137 7.434253657115829 8.908573491538984 -0.002612755032498726 -0.8981668097661112 0.41376377509099704
Ni 1.7370288939809448 4.638823984879197 12.331047593590478 0.5630674785565528 1.0553357749123566 -0.31077206731810353
Ni 8.478725082906015 1.9251395548195804 11.407612488338724 -1.0790817123790448 -2.223679761293345 -0.16988846959544288
Ni 0.19424454412050582 3.5709008289472894 2.526603290053801 0.9677462606271463 0.5286203526222768 1.333274340640207
Ni 8.276887477629776 6.971880118472258 4.5639983371469 -0.8549123699528501 -0.25121966167576737 0.5572053633488211
Ni 7.220161165786718 7.415300905412437 8.6991152240123 1.4533649128769162 -0.016046769050217524 0.07296405106255176
Ni 3.8501871059901154 1.7469652880778697 4.445230826593934 1.548260731015553 -1.5761212048712467 -1.6810697792601952
Ni 2.500355569017582 1.8629174869700407 0.539346551544593 -0.06841988333529507 -0.05754077452894606 -0.47353009651635225
Ni 4.932665239201038 2.215705479235397 1.0819997142358848 0.4781282574099959 0.5985055076491886 -0.7522657042242012
Ni 6.477066093175208 8.544986110948656 3.7620908519194813 -0.9878358322881698 1.56252701112658 -0.769494666507978
Ni 4.610128046741874 6.522138680842647 12.312369932797731 0.9491415010417654 0.18757020314592213 0.7156724784811997
Ni 4.3207673701285545 3.6350825745215007 12.4731095080453 -2.026799079379774 0.02836852384036405 0.432900495920448
Ni 3.2288496625255543 6.069305920605104 6.3310296210816155 1.5232847777965055 0.4565757280502008 -0.11098655305291208
Ni 3.4281571674530396 5.48453992763617 10.573010586386461 -0.04003027644900847 0.22288019130112582 0.14528018412845947
Ni 0.10640866037667063 1.829630566745342 7.689567463363335 0.6344808973025331 0.13296254310337102 0.9062017642554457
Ni 6.937617959567677 4.915892973980024 4.864524576608394 0.3206826415635961 0.41125694950874325 1.097409307043639
Ni 1.4947832860438777 4.775605809915292 9.289086783444233 1.0275542339237143 -0.17989211777537406 0.15128422423069432
Ni -0.6672408240828828 8.350002777526313 10.65556822078455 0.13602524118909476 -0.5430085030231487 1.2004064141331714
P 5.1307858970558335 5.963087707781958 9.209961805192036 0.44680785003015955 -0.682661827883134 0.04853291460338093
P 5.730217271682637 2.9514126588285445 7.562195771551624 1.2074586929942623 0.4271111429321805 -0.17452853947061556
P 5.614035063667853 7.008120355831321 2.5231154317184825 -0.30146647364646145 0.05156167412737571 0.05280480250585744
P 1.286597428983492 6.799051263740098 10.888753309363606 0.489185543665422 -0.6044655818873655 0.7756434597181932
P 4.487312375630902 9.21352142637361 5.671562185306596 0.47243172124585087 -0.3128333207225064 0.21590427420392494
P 0.07126142636827017 1.3321852370855873 2.3726765850180587 -0.14180559531629772 0.479252086601794 -0.9186824132209599
P 6.86172414946996 7.420480710853703 12.06912608526852 0.3008041574721142 -0.5774193764028507 0.16329179021453166
P 6.183832062937068 1.3320472316120189 2.573329183294591 0.15206018316477038 0.3775788405300078 1.3028790161778014
