# total energy = -381170.6451160127 ev
CRYSTAL
PRIMVEC
9.25815613847659 0.00000000000000 0.00000000000000
0.00000000000000 9.25815613847659 0.00000000000000
0.00000000000000 0.00000000000000 13.55024733742088
PRIMCOORD
 96 1
Ni 7.756807423394576 3.3628864208784885 3.0051058946455895 0.8509266458322249 0.9019324474561307 1.213524182462052
Ni 3.276220819309688 8.428977348690983 1.956710418225189 -0.21932178452590614 0.19135152456522528 0.4190926435030782
Ni 2.4650859672375387 3.3507860105323273 6.296013853184927 -0.6906667004654815 0.5756589420683182 -0.5885031450208381
Ni 7.7159511794331275 1.574488359234931 10.520520778514031 0.19512796088852202 0.562168106670735 0.810133780185579
Ni 4.571168405788676 0.40081336275164126 8.090446381135775 -1.2545404769734136 0.08082468475755113 -1.0786752209692454
Ni 7.639349193814041 8.40356370951714 4.1102510920291655 -0.33128715655231983 -0.9730656159575307 -0.5397442304495801
Ni 3.554483966489678 3.381930448485264 9.915163264314879 -2.206013197251517 0.8982233740356595 0.9180599491456124
Ni 3.9151632214749745 2.684485756360224 0.20573197290689366 1.2464741550255114 1.032084774804216 -1.0246172627825774
Ni 5.18578963122912 6.018199726587789 4.827045330920449 -0.06424595446326355 1.4355919051642116 -2.3956942760928546
Ni 4.313152846540634 7.509503551040574 8.663459600319356 -2.9560279006580124 -0.9810779447390459 0.9735780368175749
Ni 6.090348539003735 7.706146791861141 12.758615268423949 -0.7845297064642295 0.010297525271266136 0.19823333928672313
Ni 2.77528975381635 0.1853927292271052 4.477435127664204 -0.13493355078681277 -0.06479694187072711 -0.3335672108357481
Ni 7.088433342200636 8.589597103163491 10.98072799168169 1.1658435885566372 -0.3081832235450047 -0.685321119882852
Ni 5.0955133486848005 6.403829712929555 10.795902787438685 0.17036258101838403 0.1483217991682607 -0.0636062639967356
Ni 8.529520926624665 6.957569302228944 2.375507749681819 -0.39035979434476 -0.43685922345787986 -0.7648227149536054
Ni 6.4511666663342435 8.191811157537476 8.607442199523266 -0.6170501034205954 -0.858499058862844 0.6669634433112707
Ni 7.454121259769922 3.049368214327278 12.56219052009318 0.3198537179043975 0.012812835493952127 0.03305615912402049
Ni 5.235820708130927 3.6626099744719482 5.815074850508347 0.056458082987728565 -0.6838419642341643 -1.8728139112781488
Ni 1.811913778766168 5.146238787312668 10.517024898677223 0.21273256134416269 -1.1298347745621964 -0.4717416371573617
Ni 3.0810681416610644 5.275927041428229 4.2973528769180165 -1.6376944975983538 -0.3661613427216855 0.6365154112340585
Ni 2.784547910163835 5.086782907249122 12.714102052705243 1.667693615063605 1.3502114827151779 0.46138137696896026
Ni 5.61631241769984 5.688526037210218 8.347996255119538 2.054079512362282 -0.12052688844317953 -0.845598291640776
Ni 5.10195702550265 2.337397474893034 11.704609349256973 0.4749938255460722 0.3298547949811674 1.684306541029938
Ni 1.813691344784885 3.0840307516922594 12.597041923847652 -0.7599301627479944 -1.3897933587728581 0.25391006402373695
P 3.622679546145248 7.458991050008699 4.0383800243036445 -0.7374610351112009 -0.3186954359302382 -0.469488836567443
Ni 0.456956674474056 9.040228605220946 4.6790499984433715 0.06961647474655751 0.9368873662647607 1.402187618672153
P 1.4927666131556865 7.163998414308804 12.978847365802272 -1.568741367467408 -0.06872301639801068 -1.1600380376184538
Ni 0.4792614247464154 3.42588817482312 8.631710604756929 1.136217023939456 0.7737477853573771 -0.4699657762038616
P 3.1915086887302055 5.395949780317016 8.801238557266984 2.0034028119430207 -0.8474613129914437 0.6248811694292399
P 8.519336954642432 2.115803502715995 1.1905961288395872 -1.294170946880842 0.5957767958641158 0.9835292344930159
P 2.495721206591364 -0.22036448901409272 7.185994867974792 -0.13179629070941173 0.6606686114414945 0.07270694074642316
Ni 4.906841380479416 4.154958729031168 2.8328421569348525 0.9563264488259787 -1.868559763987485 1.105972623232618
Ni 0.35492993989350874 5.255299869086034 12.804333896099097 -0.25465028462387107 0.11078343590317048 -1.526141016298378
Ni 3.936169978227417 5.539747464706144 6.726694954129187 -0.6755403863470043 -0.8731582035369158 0.7043768509627224
Ni 0.4828174825994842 0.9645239864372702 2.7582204909584935 -0.2700236817561479 0.41427413906851235 -0.4232213209594711
Ni 1.684391933235918 8.554055040945498 9.282231257250379 1.5907422972185314 1.9902300220064888 -0.3371644412687032
Ni 7.716664057471884 0.7436540020866048 7.984334022159083 -0.4374302654700015 1.173766957168772 -1.100598760515214
Ni 0.7833150180635933 3.4370535113781866 2.3512115699791156 1.1737438172403205 -0.6541932881297959 -1.465713150029624
Ni 2.9261143788732182 1.4899058428443137 10.900266280681338 -0.7789892362619746 -1.4640105655162206 0.3958131041498474
Ni 2.7707069664243456 7.462536923889785 11.055714429018138 -0.6451576602900889 -0.14819195845861574 -0.150099974114606
Ni 8.58657894419421 8.330285402026801 9.273287878218708 0.9638965478637529 -0.18059480026935348 -0.08967956404501976
Ni 5.2736032441850105 8.644368356115208 3.4536737536531903 0.37077595867556146 1.0517408584722467 1.3990683563168809
Ni 4.2492993422120335 1.4416152993358353 5.841078234241526 -0.05799097469248723 0.5405667263508755 0.03904605815886824
Ni 6.301369696631947 3.0315740378274127 1.2196834044521137 -0.1656554053507018 -1.3725173453012298 -0.5767089805993875
Ni 7.801209541237111 8.967329882140854 1.6542140468056583 -0.2795426769901766 1.1358755814396375 -0.6242149966001508
Ni 4.833896366617587 8.884802676459378 10.746931769438667 -1.3124610034392816 -0.031071781704140034 0.6093123684567056
Ni 5.5807610973255 7.656143489428378 1.4513261795287118 0.14704190401457257 -0.3699287801839177 0.00013524002628363804
Ni 5.449434149536434 5.1961865408073455 0.697613190570565 0.4581703262308303 -0.11337510788974667 -0.9063305765238262
Ni 0.3931726063180624 2.6682376919703885 4.624672217136423 1.5580594622735295 -0.8662519633353856 -0.6812387222833622
Ni 0.17052875921121904 1.0932586504490405 13.182087043020422 -1.2495453377516674 1.5466854161086332 0.6411464822481668
Ni 2.235659594790528 0.31753994966855825 13.123157026237415 2.4122573226578585 -0.33575650517758304 -0.14191949518634267
Ni 0.8120773323883229 1.4764815161404616 6.793769371051077 0.06450615010318568 0.7836272492546181 -0.8066239672601077
Ni 2.557112041331533 1.816172530686011 8.43344348331301 -0.24084551753029487 -0.5591948829750241 -0.47518434429032347
Ni 0.7346698871670061 9.261767028459898 11.31955151697748 -0.3423634689711394 -0.6875536087577966 -1.2006833219436417
Ni 2.4932585370029337 7.138418128320704 6.005822497366837 -3.757921552321986 -0.0981804024271793 -0.5950643431781235
Ni 3.891351243349245 5.955049842141598 2.120939002041945 -2.116035128129472 1.8327360694206567 -0.14274944728680578
P 0.8475138516239541 2.6555725340870295 10.782311813920579 -0.4155848874601359 -0.23390456743608748 -0.8008793514668465
Ni 1.5625083049212865 6.6002229835287425 8.457780398903642 -0.27387493718143796 -1.0160256644588244 -1.1730035966401864
P 6.549164251272366 5.267363246806806 6.0693593727483535 2.760055075270692 0.33352658740579977 2.0874426612037595
Ni 5.54517274432577 4.119481473907608 10.00131596402203 2.6929523680849234 -0.3696927529137117 1.1304240714067626
P 4.970083846489082 4.615913075416068 12.147797293611049 -0.36199795537261525 -1.0038982850676712 -0.26315215144729515
P 7.288779845560199 6.444343405106148 0.6558811250186445 0.3402595352542591 1.2062929548209353 0.8231762151918339
P 4.551559630644704 0.20988425602874042 13.11415994989893 0.1604790033560849 0.03948443124786749 -1.0107232784093045
Ni 1.3775673737239384 7.356808778401513 3.28949886714325 1.9782635936732316 1.2573501785080667 1.3954490143967389
Ni 7.399646267821323 5.532470553817022 3.6999897807249167 -1.0728511580883007 0.12983171078387318 1.0332510271981752
Ni 6.333152947372859 0.2530976265962585 5.569598538217337 -0.31707949759337006 0.8156647373061371 0.6656840623782149
Ni 1.2472403068204008 5.857348518206596 1.3682768138292378 0.8829733898551245 -0.5081703122980409 -0.4420914183910967
Ni 2.9687296725406886 2.89386822031493 3.8391778290686314 -0.06452466204594694 -0.8759745899397882 0.019976700232243016
Ni 6.940663908738438 0.6523732095785827 12.924321453993763 -0.7950835707206759 1.0618640629491776 0.3880352599766414
Ni 5.499122674653382 1.5665633774014844 9.690784438708517 0.9516537259406579 1.2551038056760513 -0.7610102831860507
Ni 2.4093055752439456 1.7599662635004332 1.5626962454951403 -0.48605136891181455 -0.6581335037244666 0.7584378944731841
Ni 4.450043946294537 8.019100250875155 6.296149948083235 1.6053546478150673 1.048169853291537 -0.5424261481571174
Ni 6.932701894279601 7.460537162118729 6.4651751827036215 0.27865693195111363 -0.9275570900027703 -0.4863370184730334
Ni 0.3432563305549656 1.2096151594242242 9.183530978245482 0.8494572603755499 -0.04156882458072196 0.335778359554454
Ni 4.868197835885017 0.9749671867972326 1.575365106641038 0.6981344695974364 -0.06442670301550193 0.5521037804561976
Ni 1.0368024130420808 8.30408481956342 1.2630995286436415 -0.5981630367081053 0.9000380586468951 -0.8321977019641539
Ni 7.0627697328054095 1.3082515571503228 3.2889563391812873 -0.2551351946800896 -1.098334904181702 0.4209086136658945
Ni 7.443261442374323 3.412658269402565 7.943155594356742 -0.30973231319967953 0.8690899470048129 0.1067149222607517
Ni 8.577941084322008 4.356906893438844 5.66198475459325 -1.3424408376308234 0.7122742514329282 0.536698758755037
Ni 8.222696367112684 4.478734972815391 0.9307298641376828 -0.16890605107751558 0.4775854975326485 0.5701508677658955
Ni 4.297821339629199 3.3713113431546997 7.831840151512763 0.942039085669029 -0.3928627632722718 0.4161034789677672
Ni 9.048903497718538 6.836602231392713 5.255923868823854 0.26179795141224593 -0.30007679238778645 0.397314114175406
Ni 3.5009533064885234 7.381453990598517 13.303117995135452 2.2563592538042365 0.375947732684488 0.9823084747120373
Ni 8.634601001168614 4.353305470619673 10.57461340860548 -0.6948501424192097 0.006587166299214462 0.09059719076328268
Ni 8.612520298279861 8.138798954291781 13.023522599257058 -0.08125045944106007 -1.6358024227819636 -0.34860302212294797
Ni 0.567964746527298 5.333466483127845 3.5119529220449697 -0.5631492396370816 -1.8424530395981045 2.116003503560588
Ni 8.659273987834657 6.188364640254552 7.967111999721492 -1.5526722298196873 -0.8606333315970274 -0.43109969526628333
Ni 7.713692189284341 2.160085264526013 5.723583897851237 -0.42319175327311637 -0.5058761169472256 0.4087640078835605
P 6.019088509597148 1.896968461130507 7.488165352290891 -0.8831011736822405 0.44311883121434653 -1.708940023307902
Ni 7.001054862593079 5.550301762942277 12.315400475416464 0.8689765613554001 -0.8732721034069606 -1.6363644659330208
P 1.1791650831973481 5.232080412966543 5.960333471969108 1.7117962618097746 0.175949073967226 -0.04933638434128278
Ni 0.14168312147936196 6.719495811753383 10.610833167868106 -0.06571225459614488 0.1211344401201914 1.321205582401131
P 5.0626561518075786 1.909772491359078 3.6537295509034413 -1.1026348171086366 0.48246210889865937 0.7039230512547554
P 7.339699705471362 6.225388007488141 9.867100471452549 -0.49042455827884573 0.13847318850895504 -0.04813876448875581
P 2.758717653954353 4.150283360075688 1.24523776760244 -0.41774692810846126 -0.04104586219771641 1.1024923779935014
Ni 0.10902960404178455 8.601234605692278 7.054177237899308 0.540569811674669 -1.5068808825171855 -0.06803781740552799
