# total energy = -340893.31829983764 ev
CRYSTAL
PRIMVEC
9.09208333056660 0.00000000000000 0.00000000000000

0.00000000000000 9.09208333056660 0.00000000000000

0.00000000000000 0.00000000000000 13.30718299615473

PRIMCOORD
 96 1
Ni 6.420956357896948 2.0063045121101113 11.299301712968276 0.5061003171428897 -0.14570827280481358 0.527233242466763
Ni 4.306519701756177 0.36643095057197167 6.132654586410982 0.44820164505389265 -0.2281632940769361 0.7282770546190876
Ni 2.6973028259359033 1.605043609688089 4.824425665593531 -0.09235839642876352 1.2766169971574788 0.16313238181853193
Ni 3.142769436276623 4.2731881251971595 4.661200044159879 0.010082838157298765 -0.06180546334257097 0.18033511885006362
Ni 4.850544492647839 4.54139548387541 2.8169309998086858 0.3639064852492378 -0.1798797764801999 -1.4103079337864421
Ni 7.097461891298551 6.085385755703759 2.783556690459208 0.5795644477703116 0.2656461215137425 -0.7537366323427728
Ni 5.380276528942998 4.480551263926433 11.409432296859183 -0.15824162938513392 0.1394743760799598 -0.02793580717831963
Ni 5.663613113860803 7.893237370499718 12.377129974956823 0.05070909631909331 0.3856672739650971 0.44724159513346845
Ni 1.7480529844007977 6.351156436117466 0.39922245739623613 0.05283951239853481 0.8378399878515957 0.30044060348510837
Ni 2.9303056389413453 1.5595286418063532 0.3180547041460125 0.3464651498443388 -0.24260698030609187 0.24002687828374147
Ni 0.79938049014106 9.26665107172694 4.8082444853420085 0.14322484426132753 -0.6417416926300045 0.40568305496539164
Ni 8.493960391457401 2.1906737727385246 1.545935068398446 0.4903019166580524 0.9322143862691235 -0.02038447719362296
Ni 6.630137913241553 0.7345439365131244 4.954384264258009 -0.07758149522990511 -0.39265218992336254 -0.8194213761350921
Ni 0.7532945394421104 7.453007800011152 2.7083578897488083 -0.26886719955420146 -0.27464883923298505 0.08351071623014651
Ni 7.403519591824917 3.845541997686684 3.732891088366926 0.621660091388781 -0.4853096056497835 0.3825796361787088
Ni 7.484693709533295 3.8312128747578753 12.771820938147654 1.3318993146695512 -0.6838777025681061 -0.3748110479768835
Ni 8.028072962526515 8.936135667724372 6.802431978335861 -1.5824823712025844 0.6963377827083298 -0.01526001148286404
Ni 7.066412427591775 0.786537013586977 0.2911421382391132 -1.869123349800439 -0.6760702907085453 -0.530362532124364
Ni 1.9227119003033435 6.597970123316347 9.168475667873526 1.4711165804333826 0.5794680314017633 0.1570586648206263
Ni -0.1206937660093666 4.774852901034684 1.5443521367348003 -0.4222000787838084 -0.22005840558161455 -0.0017619769964292236
Ni 6.292330658611507 2.064593856714547 7.034549222449637 0.22939459538087587 -0.7008809219943221 -0.2574602432688404
Ni 3.3207196862529176 4.4649856176992 0.28029164629543296 0.5144036948022624 -0.41973336241087067 0.15645394135709184
Ni 5.788556519500198 5.599332086508851 4.815417229681182 0.6039639596605986 -0.21579808764336383 0.8857200993623262
Ni 5.611560938246952 3.017789662304921 9.130856264935556 -0.6378711539310047 0.29864160260315664 0.6105621817034065
P 0.12637086268243009 5.314804438708005 12.691499657831868 -0.20215298605610346 1.4982967403926002 -0.4884944311356684
P 4.213789546457371 6.040379944474315 12.402241399206236 0.31734560677056317 1.022113265413801 0.9441797861611159
P 2.428795428516123 8.309636591244372 1.623622372246926 0.22824299827493594 0.2171646289735873 -1.3728754999715969
P 6.538180585004263 7.674590956672314 5.622537810145398 -1.2267131703485001 -0.15752609137534807 0.6673388243728183
P 4.8889676357297835 1.0464260254583957 12.514606817117386 -0.5186573278722939 -1.0237122344698046 0.7913572709090242
P 4.100920427143774 6.326571443478191 8.286063547451528 -0.20817579521141566 -0.26274540292717974 -0.4632060888825248
P 4.666602559924028 0.9979288543275171 4.045716026327247 0.7254827797034021 -0.170486508190758 -0.8254022763088753
P -0.04028065565450536 5.57443796304497 3.8598811219068767 -0.04248079487203006 -0.482881198713949 -2.3560581497584714
Ni 1.4668439469229304 1.1581950027197176 2.558053027575391 0.05827611003307383 -0.1994438146550565 -0.3276822128098808
Ni 1.679235007593595 6.387888451747153 4.906091664996356 2.019105310279942 0.5563964942942805 -0.10373655635871813
Ni 6.312778753450905 5.719538516865309 9.27756793587708 -0.513644962259367 0.2488046244763715 0.08591521190658105
Ni 8.711088427411003 2.3485577953646413 10.087469784554445 0.2342804627182675 0.06413745390985727 0.2637527611457715
Ni 2.48164770744072 5.033413559568603 6.984460936780343 -0.038698445011462385 0.6180016687005873 0.5403013885046308
Ni 0.6874524014258967 0.09799901744172765 9.242184276167663 -0.22409992264083986 -0.06469306930301116 0.4152349603198849
Ni 1.524387740715081 1.3546567338400823 11.459786071354316 -0.15292124561348502 -1.0243678657759325 0.08145074837732423
Ni 4.292026921331988 6.750517093176468 1.3905077266196413 -1.0507409564528227 0.006889785141297813 0.14166726996622053
Ni 5.788529243250968 7.873607563137219 7.909097600218636 -0.6093118542360731 0.25135335904015416 -0.14074835769637695
Ni 5.18849722060711 3.093835845158065 4.781935633751399 0.5144641157265527 -0.870359557745856 0.46189148383615936
Ni 0.6718112909091268 7.672617974644681 7.219918612216482 1.9912198967235835 -0.6756319176195461 0.3230092328142437
Ni 5.100995013077382 4.656255769382794 7.375425964326361 0.42188537575686696 -0.345857598167327 -1.3125005984279654
Ni 8.42728814625629 7.219432185771881 9.298394261372467 0.27627917574755645 0.11689211990406966 0.6626853847612071
Ni 4.4501927985334815 0.4305328638873135 10.384286291841699 0.44468514726020186 -0.24829708871233366 0.823681951183659
Ni 8.60502927832182 7.335128942922318 5.03839238426138 -1.1771474436052307 -0.28038008528980746 -0.6920656376955372
Ni 7.656570448014384 6.560892608529748 7.226199423205835 -0.4734768746809136 -2.1146256493764546 -1.0863373655001936
Ni 2.0949614141905757 5.100494948508166 2.5174396016802802 1.1408324112242805 1.064356233243412 0.2036074591144429
Ni 2.434396151691343 5.484662734746076 11.295283012248394 0.3327729970692269 -0.7237732532114632 1.1337001710548733
Ni 0.8823166535496931 3.4145681677701525 3.6271656187266568 -0.5147934740415134 -0.9188603335597209 0.6520597867265608
Ni 3.795253686189704 2.33355585828816 2.595845180091816 -0.3225086390287414 0.670101217609304 -0.2691171107814785
Ni 1.147848212178484 3.3048085408687715 8.368381449210949 -0.34062566034442626 0.7802963851091722 -0.5789844068971255
Ni 3.535674714351199 2.6713631129182063 7.174115425301217 0.6233233380238169 0.9461459087485511 -0.4618120367484756
Ni 4.10870325025739 6.88283417819103 5.95065290421573 -0.09202492434874474 0.24889204198385523 0.40649398090246125
Ni 0.7915049277800614 7.26746566066585 11.566097071144721 -0.3690304367393644 0.49920976067064343 -0.06680368788811075
P 0.5108223219123322 5.603414431810268 7.928805599495593 -1.1726582974856254 -0.9756192356173199 0.06705334200507161
P 8.462483599846022 1.5423355127083984 7.973118593994595 0.4624594405244874 1.0356352111596356 0.8933349355951066
P 1.8900258616427683 3.4166957152100896 10.575910125556975 -0.20674729029500524 -0.2621285952787873 -0.785718327455692
P 3.745638188840397 6.195354500515903 3.728991493935349 -0.03580801083754478 0.47248442886065717 0.2896789940932301
P 7.170380397573326 3.8688722828613806 10.33767118190769 0.5236632657273176 1.7661897489589906 0.14116333374660853
P 6.5550463991114585 7.808635537471442 10.234700613439646 -0.9185016646687213 0.04361028049078296 0.04366555920875061
P 2.3740429042285056 8.315782839404191 6.133919295166945 0.4985232761265801 0.4042517218355038 -0.5808947365459608
P 6.7093117726730656 4.012736313383296 1.5507393250961505 0.2751080382575907 -0.8264428017582477 1.2983027096610287
Ni 5.240331186227122 2.8855271297888185 0.2916803895572512 0.1100460435165137 0.05803288367401619 0.5803283225195296
Ni 1.5882414401624303 1.1060973666904836 7.2149152388993985 -0.6251192535819751 -0.04123843782449672 -1.458668584478017
Ni 6.809897487750102 0.6882743257360263 9.252031911347988 0.03698120521003954 -0.09505188410052663 -0.5221095480869524
Ni 2.630794238230171 1.6469126522560857 9.304954199312274 0.44200040133918717 0.6893466961024772 0.5151485433880869
Ni 6.194581673454388 1.8528210576930952 2.5605942647953164 0.6719228441990751 0.5287278247344185 0.15130633571788138
Ni 4.245366350982595 7.04329126032784 10.402371354289475 0.258225146459323 -0.11402251166575848 -0.2502105036849626
Ni 8.176082982931383 7.352403900767963 0.2394836498224816 -0.08069741515106746 -0.20069825588744789 0.3772607950689567
Ni 7.697157506868574 3.9323622989856637 8.114081340806749 1.08357882891845 0.16995608960858472 -0.4620539775559526
Ni 3.088826107382828 8.378936448454636 12.652934678253926 0.40949882916705604 -0.34877888557917996 -0.3689448190040936
Ni 0.37795152903840135 5.096067104049834 10.208339027767192 -1.522895769888203 -1.459814525157002 -0.1798653783024967
Ni 8.529092200465596 2.012996285254529 5.777366892857758 0.5236630086170013 1.7190424018492265 -0.06614754236135059
Ni 3.723408045717975 2.7427177809037957 11.570169415154753 -0.007950365195328244 0.17300721773008268 -0.4470253653576043
Ni 1.1199446092162293 3.2969802573397713 12.80922758634163 -0.5250102666735152 0.5651716693837493 0.05982160014332278
Ni 3.334003219627911 8.551058673178796 8.331028444307124 -0.3864280633905216 -0.6512498892307558 -0.42629533189910457
Ni 5.472561172171048 7.733298537098277 3.6284557853152344 -0.4608159913837935 0.5332948752798106 0.5342127591083896
Ni 2.978502771330694 8.610375423170895 3.732331925257712 0.4172669031482491 -1.2599580484445592 0.377961163570091
Ni 3.65068047318781 4.337378231718344 9.420274544223336 -0.45522898421431923 0.35365755382771996 -0.1637705296231631
Ni 7.5117426566863434 6.189244620688392 11.414182910266735 -0.044161010787930395 -0.832390020480618 0.6107593853158771
Ni 0.8171464204728442 0.12968583617217855 0.2826137643132107 -0.6162990841871837 -0.38613572896108334 -0.017337462837183043
Ni 4.640053677340195 0.07291941548308206 1.7893637730678882 -0.8712347612619576 0.7708473238811305 -0.7130535528011138
Ni 6.1492121789018785 5.652384391261133 0.27956700727422357 -0.1640672349279755 0.8755218186730858 -0.014738077541123006
Ni 8.139741926873993 9.062652003736028 11.326767986734543 0.11555308937767196 -1.0302104405996388 -0.2558011103988627
Ni 0.09059988023394568 4.689469148861815 5.798937859957123 -0.7742311527516988 -0.8265284194935185 1.4656442444649016
Ni 7.884245300336906 8.889893333196504 2.3322702377411213 0.8736300009670117 -0.27441306907309515 0.4728189293819405
P 8.51559954917984 1.3502016131325214 3.631117947240079 -0.4802931262717987 1.5704143842944567 0.00258832955246651
P 2.033307998847777 3.1401054559351627 1.5271726457614605 -1.2050269436243184 -0.07792165217814323 1.0722968282467276
P 4.650564125376808 1.2979857800232908 8.324134826918407 0.35752809252671974 -1.9048362298210164 0.03377375401633538
P 8.542530299252894 1.733942071465829 12.380151274163195 0.7837563186333146 0.7221568006539627 0.713271582349191
P 6.301004505866636 7.816100137677376 1.4752077541451456 0.027101741312798487 -1.2823994081672108 -1.2065145839134384
P 1.7798843672521676 3.1604989982761005 6.002377764838821 -1.0719034494630506 -0.21656864726080122 -0.0893697461140848
P 6.917202252220786 3.89336635466989 6.024947042660002 -0.4794806576728323 0.6935015988111153 -0.7769511227860232
P 2.335810694891171 8.414350112038209 10.48825517103156 0.32795217864181586 0.8331747211654424 -0.024238046611758258
