# total energy = -381167.5315335514 ev
CRYSTAL
PRIMVEC
9.28922492095644 0.00000000000000 0.00000000000000
0.00000000000000 9.28922492095644 0.00000000000000
0.00000000000000 0.00000000000000 13.59571964106128
PRIMCOORD
 96 1
Ni 4.871093026851233 6.089430603974929 9.113768133363836 0.9886747832496973 -0.5032124540721332 0.13091517365603905
Ni 4.698852219301235 0.6296329509517 0.2259381008367805 -0.1614287688638639 -0.027831934610603678 -1.4089298224919928
Ni 7.583983282624845 4.645141921099634 12.933485324147432 1.2485971149057853 1.0165853936170361 -0.5812024975943668
Ni 7.0956394419544235 8.361064099947008 3.3343366128468834 0.41941583117045184 0.04310403027832576 -0.10910450553885082
Ni 7.095165691486025 4.037933158985475 1.3490026009205098 -0.008282808834082509 -0.05525763492172419 1.7970954373989114
Ni 2.8584802771699613 6.49379056259058 3.2179166153890786 -1.7559297617938792 0.006281719243653698 -0.08398611320466827
Ni 5.117146015222733 8.493324083654098 7.628449873157747 0.06449432302864376 0.045719099303669644 1.1489164737839954
Ni 8.762014913035163 5.526503576818749 7.283145232734219 0.23157283397911735 0.5221982511460168 -0.2916206912006333
Ni 2.8024012266263663 0.5485166526144739 12.081428386127484 -0.5931640408316171 -0.5929187575900305 0.7371550738350079
Ni 9.656520821946124 3.207578637030628 5.548372270009031 0.23857060545318912 0.3201743344686099 0.6433285775011501
Ni 0.47168826047749995 8.552877304299283 12.88936800846966 -0.5061211430784961 -0.3772556528626342 1.655500415431523
Ni 7.361236959453589 6.826419126755736 9.44665958259283 -1.7314911691355406 -1.078168456536156 -1.6478300433704587
Ni 2.6581024074870245 3.2981392902937565 8.797463524063721 2.0495937086767864 -1.9133710067649046 0.00759735273128369
Ni 7.197263562038393 3.631984742916957 6.428178909484812 -0.10645704061367472 -0.112529986280632 0.9081881985578552
Ni 4.996599744077424 7.146340031297961 3.898477741693646 0.591980047825845 -0.8013709463912844 -0.2138319650559285
Ni 0.3582640380404521 0.9323502110336405 11.367408400761633 0.8766777866543998 0.44677314013748215 -0.32048955171618354
Ni 3.5416470310507218 0.8224623965048163 8.31729048558945 -0.133070529436145 0.3157805762762884 0.08459469332294463
Ni 8.350307177546894 6.120122202947272 3.484038974093432 1.3029510070663173 0.8672397811699516 -1.5145648814250046
Ni 6.29566997455119 7.809757893103903 5.787616256550407 1.808155294757499 1.4226600275938919 -0.11938557574988472
Ni 3.7703291689142673 0.6840613062357959 5.826813069814238 1.034746123686463 -0.5839134687676266 1.5098703041628125
Ni 7.826450630196307 8.502808382246943 7.621691962064412 -1.07560532379467 0.5232858277832406 0.35223907621363854
Ni 0.5683222089610034 2.595242222787918 12.958529074398472 0.7277240103290951 0.2453614031227774 0.31476216231410303
Ni 6.688687789599884 9.094086123708085 10.011969295928308 -0.8054206909806257 -0.40467543963648367 -1.2144572357992827
Ni 9.04855034339258 2.650225144796787 1.3685452722032023 -1.0123782975142241 0.9363996279950647 0.28814893060194896
P 1.4734382705191245 5.2527965660075795 5.340602964096585 0.8824275446539834 0.06123879220582357 2.314705040732981
Ni 7.192117331460102 4.2675535085609475 9.038760429301492 1.1117362651892724 1.6333017678472967 -0.010062783552640734
P 5.4879440043810375 0.7346847950129085 3.4688798880271587 -0.5283257041999934 -0.33468641204185584 -0.42520235594524186
Ni 3.887261931584927 4.233982249878729 10.530211435767129 0.07509472425230938 0.7510701412542032 2.44509159557906
P 2.6575078970953085 8.419093887713421 0.694356554159842 0.8970270397347131 2.536065195845155 -0.3577054986448484
P 8.591232513789842 1.7695044455937408 6.908882362699195 0.065846466181164 0.10996299688440417 1.228026489843285
P 1.8638179457045772 1.4938374083348829 9.63419881458216 -0.915687592258694 -0.7694193331853524 0.5399270358843475
Ni 6.517022913991861 1.9364782626421293 1.1385357041056536 0.4257898530175957 -2.3128055097174234 -1.3566484965897732
Ni 6.071530267649352 5.053226858888382 11.328198582582981 0.052593457825999744 -0.5123894925857111 -1.5467540645630393
Ni 0.8860174152242413 8.690283518584668 7.400041767427884 0.4509031031454556 -0.8047658310054463 -0.6751925160892823
Ni 7.033949699589008 8.609262899263607 0.3528837189954214 -0.47034372836857063 0.14504004309319538 0.8837897151088328
Ni 4.9353744629555365 3.13383148078322 4.831157720210191 -0.30345316505918707 2.0739713661902024 0.7726468389837144
Ni 0.5753829487851191 5.175714578031639 12.353913863868174 0.21485423567285578 0.6373636181669667 -0.14297133348962474
Ni 2.1989267329101745 7.399424962896479 11.859926819088887 -0.8270243852933306 0.011703147369541134 0.1925396313360555
Ni 0.8656349980132497 4.686785516194372 3.5381096942200108 -0.10248571467075253 -0.753160962344961 -2.5989680060169627
Ni 6.648196058389096 7.3730621427138185 11.829730335802143 -0.9275835723653315 0.24670043364917515 -0.16293029311005489
Ni 8.80085316221899 7.763962014492022 10.788421232726735 1.6431370087701638 1.0450043110793614 0.7153945422294647
Ni 2.41460395595493 3.94248637344043 1.2457965258410824 -0.31068285003840684 0.32115495321432436 -0.1525764606795566
Ni 3.788396711287514 5.449133622871821 5.325837741164825 -1.6762777571881904 -1.7264533496013168 -1.5916961764913684
Ni 6.6381636955288865 1.8369999535032588 5.02285666709656 -0.9798895808578996 -0.7447308292997367 1.2943838342225966
Ni 8.067310941865161 3.593313699780799 3.8097656441797594 -0.4052210277273086 -0.25118212356961256 0.019196627533108874
Ni 1.7731086648435197 7.4654620625013175 5.180322962489925 1.2893894663317989 -0.03854957813842393 0.30890184687858413
Ni 5.125376268458052 3.2666859748820265 8.986036646781145 -1.386558396775328 -0.9661838012360328 -1.3366026336824917
Ni 4.001983858736392 1.8743147698083147 10.585083816000036 0.4735771477042037 -0.5808692826246641 0.03443529885973424
Ni 8.376781468428002 3.2932345795620988 11.216659143872173 0.2600809687211391 -0.3093661881095124 -0.3536842933005973
Ni 6.944104316640912 1.9092422553216353 8.552659007514826 1.4228852562308203 -1.64943184063994 -1.427833087154399
Ni 1.5938452032913752 0.7411705318175364 4.952009606853743 -0.5000438265361646 0.6619886158044986 2.39164144617972
Ni 9.001221742677057 7.278516411981218 1.5186015529173196 1.1832430149800073 0.5722871973826079 0.6323275984049561
Ni 8.99566678620446 0.5545202786483193 9.262532282898459 0.0022276037789380992 0.4512088073113326 -1.212468487504028
Ni 2.9991655878346535 6.974164248322057 7.690038362972074 0.226449653819939 0.33035256055319234 -0.46710542393693105
Ni 9.454573073260063 3.2992447080533536 8.801814596993093 -0.7870702134978961 -1.4483103811721445 -0.10270425843946183
Ni 1.862034414529429 8.43354792161202 9.637923793755256 -2.1218404219573395 1.4993866310226693 0.6237501411485903
P 4.3175109599148405 7.270453364793568 5.9439669160368185 -1.1709747391356156 2.414906844465564 0.9014909890433377
Ni 4.653372174334954 8.472070337150248 2.0274755094741743 -0.18110182181275908 0.5640118447476932 1.5237100382593822
P 0.822672332986891 6.84755211333627 8.721980211688006 -1.1645721780433815 -0.3910817601124491 -0.4502289598965666
Ni 3.5271929971521243 1.6344019590762575 3.8277523702966323 -0.18184229952320943 -1.430580310882233 -1.8121289346932663
P 6.490790142957389 2.7118777302627195 10.477772832450306 -0.4275927105542894 -0.4146176384508602 2.075604016697619
P 7.98165499933369 6.721330125795046 13.404835456839642 0.299250182721433 -0.27019877388143143 -1.038514846700276
P 5.239828808088272 1.9731799901057276 7.0997118381376785 -0.6772519697214723 0.38906447257210414 -0.8456808240522531
Ni 3.781234718912309 2.8448251166102323 13.112392079464547 -1.4816581033946545 -0.2612420789087759 -1.2411995368901334
Ni -0.1107712198140148 5.377810954315629 10.108730506792538 0.37336994465498274 -0.013121624983622564 -0.56814823551357
Ni 8.830736598627595 7.655556760252541 5.678116731621172 -0.7798634113368118 -0.4499577085130509 -0.8611691494958394
Ni 7.451667563568531 1.4356961498700227 2.934051837181948 1.8292519675267982 -0.399021583784816 0.6323476530096143
Ni 2.4827032634810347 5.855769441580761 9.800379331826601 -0.17462752694232506 0.8620610651824895 0.9868819530153325
Ni 4.694411969813105 7.150817437685573 13.794625266245815 -0.09544243467072595 0.17648309209382507 -0.610115323973975
Ni 9.498232430151713 4.960576130029376 1.0426913397361481 -0.7190354814161617 -0.16009076677873074 0.9836361923845253
Ni 0.6110479987531626 2.092555818917346 3.3101632629662148 1.359041422301982 -0.38820649544718305 0.2876470512648659
Ni 8.522966000216067 0.7954651222634961 5.0004380517939415 1.418647564000389 -1.7748551379434723 -0.17704744923772736
Ni 1.5265169014295272 1.7195284157901063 7.21335900197162 -1.3674062493269095 -1.0883312560017708 1.3718989949909404
Ni 4.5876601976005835 4.606182911992488 7.236811508002333 0.7277731183994757 -0.19217093514272712 0.017362916758479778
Ni 6.622511351621986 6.347606030802514 1.6567471895023993 -0.36009893857768954 1.1554766435000163 -0.22311184769595768
Ni 7.075974152903439 5.823052791586634 5.130752871813135 -1.4666518597938096 -1.7072891179680403 1.8714093176211384
Ni 9.201163018791076 0.37866503370118476 1.4392019033361736 -0.15944927653998991 -0.382805893256902 0.6847580482905304
Ni 5.153792007337108 4.753184895569165 13.59559712093657 -0.6940939809794756 1.1615117939505029 -0.36296289038904583
Ni 4.374184520850152 5.396612345453652 2.0156874831134286 0.6778129844312649 -0.6272203590853778 1.022387087900478
Ni 2.996731810918565 3.726335399927276 3.6445642112366747 -0.5696435891121737 1.6925137594310786 -0.4832537515620193
Ni 7.3701917722288135 0.6343528061084337 12.000520166427359 -0.14477959034295712 0.9557183829283348 0.9420144030786809
Ni 2.1694148654963925 8.98085047253591 3.163166852924461 0.945511617598662 -1.1302286675665052 -2.8067416806939534
Ni 1.5584811242091379 3.315686636074252 10.948592550402408 0.3419731755112562 0.2248126324371483 0.07029781708429828
Ni 2.0727697699430445 6.481918933205999 0.8042304348513604 -0.03399229778504469 -1.276931185963788 -0.38280692169816655
Ni 6.0681768574710775 2.8793160085546363 12.84769654570031 0.49159723843070813 -1.1119319261398461 -2.8784883144096356
Ni 2.7907804063132904 3.124588702037009 6.188867111601882 1.4324582446312364 1.4953178602699344 -1.176622424339696
Ni 1.611151029225236 4.846550894743203 7.947432565988045 -0.5966422291882046 2.3756908363877347 -3.308795081460979
Ni 2.116419837609825 1.4644370116195478 1.1713080894490033 0.4644121933754841 -0.5556693863202687 -0.18231306851204085
P 0.18083241163278277 8.40884787268119 3.596340129243629 -0.999209364232434 -0.17725982235884954 0.29100156955939566
Ni 3.9266946911604714 8.085322748889185 9.828726330441615 2.904544388066739 0.6535373997133519 1.4401790103142618
P 2.643639084363557 4.717021943148058 12.588005117373848 0.7859625822560141 0.07267145952279742 -0.09208585949366722
Ni 4.097560693429625 6.338902027098796 11.657609359252977 0.8726686654950067 -0.9585746214302073 -0.0066589000774143385
P 6.647508655748673 5.8202753133503355 7.418858021325699 -1.1500025077593226 0.15770298327284454 0.18276995354380138
P 5.006808602210174 9.392149482129872 11.603403016443286 0.22720787214220226 -0.5754655951105896 -0.06000646246061924
P 6.451375961831586 4.799175847903326 3.2383241135072205 -1.7055052865947404 0.749549847954935 0.4430812931081918
Ni 4.522022534665179 2.662161798755461 1.6979151762837652 -0.9786240838819146 0.489267304745951 1.2910408858922926
