# total energy = -340868.7298277936 ev
CRYSTAL
PRIMVEC
9.20344955143962 0.00000000000000 0.00000000000000

0.00000000000000 9.20344955143962 0.00000000000000

0.00000000000000 0.00000000000000 13.47017871746581

PRIMCOORD
 96 1
Ni 1.229709698621312 2.5023442856103832 4.392557942955749 -0.4328896972871706 0.6581964957519181 -1.575235202721868
Ni 5.539160492786137 1.7957862656958776 6.269694418937103 -0.26054248173858996 -1.0186993546362455 0.5188653301180419
Ni 7.321298042905388 4.853485099738365 5.943810396697575 -0.29601213540010957 -1.079121821588361 0.07685438725589344
Ni -0.007206300941671436 8.081355714638459 5.97345838884764 1.1503169536759479 0.7566689754982194 1.2600130700522107
Ni 3.6582515228635426 2.128168843612179 3.912965270285771 -0.6156498806389591 0.2570149282013058 -0.002135044065131807
Ni 0.35701376975563115 9.125855195954284 1.1940141198189202 1.1543224752909151 -0.5472783340430961 0.4419312386641486
Ni 0.857130134762681 5.011011341012502 12.40945637882653 1.2981900953425642 -0.2678217890088226 0.5914650558626394
Ni 1.720741338648127 7.267641932445689 13.067150524424797 0.3633585831655678 0.39463553890197844 0.6275826275208031
Ni 4.680644318531993 7.2403813150903495 11.264921844093964 0.8062920378419857 0.5655118263319874 0.39641165696579467
Ni 7.6985106232315 0.6745916788408051 9.9443455684264 -1.0495507927994634 0.4360269573645717 1.7451972058677236
Ni 7.1043083145506145 3.343373905855363 1.8251287033232555 -0.7772719964605517 0.9347183836378998 0.8466465303996323
Ni 3.801549231243906 8.08252455272223 8.91208575457204 1.215903481327506 1.1991190627803157 -1.4000656872331434
Ni 5.906635823563988 1.1904017658986061 3.377175414755078 0.560422327624222 -0.7004677457163033 -0.28688420495691236
Ni 8.46183551952944 1.8049897151743852 0.6977245491050339 -0.5147628779138941 0.5121719772582662 0.04570778644975999
Ni 1.3485078244898878 2.6433227247221627 0.07659110656014008 -0.871405739622183 0.5072933090097264 -0.9994998988896592
Ni 5.74344946086057 3.2712832860902132 4.397326250130564 0.9257773723945282 0.7279122150805013 -0.1793683840614201
Ni 7.106765635561376 7.367020779914614 10.09684212456053 0.14343001829359814 1.3850900397599177 2.1689579442704323
Ni 0.5810689862750547 1.5153663635352301 8.436251770669084 -0.19272732186682937 1.30534367566821 -0.24026136289205072
Ni 0.6851728847062453 5.050383697881557 4.6297004646336095 0.052542035762774025 0.26312309798157263 0.955163281755813
Ni 2.5816780201151186 5.4278263644446305 10.533639677500394 -0.8699996033032759 -0.055039091153014884 0.4249138781705456
Ni 1.1968349770840827 3.5949501973503675 6.921638249301196 1.6325934289263626 -1.1768008588990895 -5.091620896314754
Ni 0.6330629537589353 3.3647627224434142 10.659424141868106 1.0560394858476008 -1.9692518770929246 0.5789072738022869
Ni 8.846917049159677 8.333005633729291 3.4040890620650774 0.5261400094025842 -1.0918557242152616 0.21546435845302894
Ni 4.350341720197834 0.8878319218780344 9.965265009091047 0.6734325959753822 0.7148479256973753 0.17509958148273716
P 1.8935453060565854 6.5257058527358 6.286047107970514 -0.5739075065948503 -0.6430915217896795 0.843644510348515
P 4.309285132074212 2.775116121254391 8.297401169076736 -0.4265629837381944 -0.9945469257597582 0.6249297632789882
P 4.806446269453714 2.91122593559204 2.2946178291557278 0.7695633149623843 1.4585803956395849 1.1484207650944995
P 4.086313161558409 6.742189391369256 3.4267323088170496 0.02536933200272405 1.8973422354368161 -1.2225523541025913
P 4.188591095613064 8.852577170588958 13.241401274091277 -1.3109988170714584 -0.5718503669555055 0.5264385144796095
P 2.4882446010093093 3.385277211331008 12.00415210965717 1.73890417377016 0.9216309543263225 -1.6404828589767684
P 0.7408887271592345 6.960624061292155 11.069725884104296 0.09688225244104605 -0.7153865718096647 -0.5012792416051626
P 0.19552912486078924 1.0987262056431921 11.400230037982034 0.02483222855233143 1.2406146109209408 -0.15624902443513736
Ni 4.20878346376891 1.6096833137909758 12.298529042951975 0.03797133703745074 0.4744443808005055 0.1375535049081631
Ni 2.8228452102499313 4.518488742170168 8.24353337927903 1.22376514346377 0.2625083472157092 0.8910654228346396
Ni 1.8812402941038207 6.930004184877159 8.654845660267963 -1.6015283320904417 -1.0345931430483666 -0.9474648846702908
Ni 3.004778999541069 4.842891929388603 3.5981410332845667 -0.525064002729586 1.11187921852504 -1.7794928938257997
Ni 4.6871327504143405 4.118405589889965 6.69555459251671 0.39918124929113186 -0.3997283800438535 -1.3462252443739202
Ni 7.613940125973494 4.922501767377694 3.5630915366355658 -0.6001780102556051 3.15852927119247 -1.6917596548738738
Ni 4.055546029951758 8.971531755098669 3.962522164347743 -0.651616271431239 -0.7844862548208037 0.7779353410761635
Ni 2.1826256541765083 1.4597039010892163 10.538016838072375 -0.2749234330506104 0.467423212287666 0.08750569632215252
Ni 4.919887987725797 3.719574106738839 0.1943676495366016 0.3515536201108397 0.19412574487625278 -0.5730721551777486
Ni 5.732267269744184 5.9935992176864055 13.15655283265902 1.8571816040575306 -0.48584490932796326 -0.37794445139954264
Ni 8.884393495436159 1.4089836910131612 5.894482668527619 0.3914005769044485 0.1313998266019414 1.066635516195892
Ni 8.328707622822828 3.0646014211513686 7.489985307362111 -2.403771396674034 0.8837148960068393 0.347289445517847
Ni 2.4360334321177364 8.664431052899827 6.253031573656265 1.614901410963238 -1.5788512022079002 1.7703551931905899
Ni 4.083027530094582 6.317974794556405 7.054480839073975 -1.1669712744031773 1.1604630409710144 0.17138922251068547
Ni 7.928578453295232 7.379031281484067 0.9662075772920571 2.2163703721161245 4.355005497033299 0.9125081660894478
Ni 2.073104605382268 0.6413497396693837 12.935695814833377 -0.15000407196669005 -2.3016993725019326 -0.7733551779046488
Ni 0.2273132376348152 8.587168094527756 9.452657722451766 0.7031193244065376 -1.8677925468041576 1.8430708756877612
Ni 3.4841590725280933 5.435216734375872 12.733588984630298 -1.2092854617903561 -1.4858736841378992 -1.331506964327139
Ni 6.406631623382869 8.472953286499477 13.322841678181643 -0.8797044892958656 0.9254737251111803 -2.149086916378118
Ni 8.492473802843392 1.393245792404913 3.5157701604519236 -0.33976485500602777 1.080374205938223 -1.8915014603853233
Ni 2.6287076469502924 8.230516020336632 10.847871212355184 -1.7767412992225915 0.16937373474255346 0.8525089027176801
Ni 8.877058346201787 8.438569199247773 12.324054810080614 -0.07181528217008923 1.9899726545800438 -0.11967071109047134
Ni 5.43449886531655 5.2950942160655945 2.4962801327489945 0.7265032505481166 -1.4652938031040184 -2.1395152135292825
Ni 7.488570737177263 3.067721390524582 10.432949338480782 1.127267270945336 0.5012869549146464 1.2447736273946368
P 7.382850713017647 0.17558985156560258 1.7672472892079736 -0.7151130064333039 0.21412789902979254 0.9098319048088653
P 1.1142156111155204 2.1750512152556967 2.1332583511737937 -0.03940035617449343 -0.9008546410109195 0.4597615819773501
P 1.9496035168301749 5.582389094986688 1.0406874125418275 1.1943018438973303 -0.4111687606703112 -1.5702318359700054
P 6.188141732763099 3.984136465448018 11.81336000024297 -1.6482661024666128 -0.552284786118752 1.5486985898839198
P 2.0320664241576027 0.08269115287449491 8.707756291319903 2.0480330490578855 -0.397511832008509 -0.881238923662521
P 1.4345876874623693 0.1906853494002507 4.593021037081966 -0.6221732835797735 0.7979583211653096 -0.9427412539423763
P 7.016001216804335 5.62054659652458 8.342593787396 -0.20559569318906531 0.5182526362347074 -1.060825080161702
P 8.19413478454809 6.760946021406454 4.855043243735076 -1.7384496027312448 -1.6823339906845993 -1.1550313284324818
Ni 8.610774942440129 5.135064636533304 10.099509284219401 -0.8308918386685368 2.9228041056078755 0.36491075814403606
Ni 2.408377066434821 8.313577151880162 2.1235063761063673 0.18781162973276685 -0.23971011837427106 -0.3650629674511842
Ni 5.2130454639647 5.524388956373133 4.728463601332423 -0.3820749286281484 -0.06683042736098814 1.6303416567777083
Ni 7.713935604557479 7.8079856547783475 8.077285028934115 0.6746366435858123 0.11739759878557847 -2.220023138377364
Ni 6.205738728166006 6.8696571666465855 6.353411756428451 0.954911570756323 1.255345232262896 0.39615094710524035
Ni 0.12954683451452487 4.186851643661626 1.3942710566768188 0.6452702746085532 -0.3324420960923694 0.26231757136114175
Ni 5.751143544624602 9.116651746475776 8.371621467051213 0.791128956948302 0.06233125393905394 -1.1606471319573624
Ni 4.256365297572794 3.3902838878473163 10.576420992056288 0.2323845312471353 0.4275780552662701 -0.18351737323278716
Ni 6.810294917510212 1.8088367570564015 12.448775355688612 -0.21043502355923757 -0.8331089009245136 -1.4533024350700972
Ni 0.6321720598494158 6.20849055956008 2.4130616222193813 -1.4539943189307991 1.769908078350842 1.2992635309124012
Ni 5.061381820008373 8.633940024777532 1.7797336091154647 -0.649088877023695 -0.47528281754140084 0.5158206297544471
Ni 8.947363496768109 5.7625926357758654 7.412302671693819 1.252795726368165 1.0763244613488818 -0.5707823307023074
Ni 5.737375184204755 1.6309616889852856 1.0024774513419077 1.0597539585847102 -2.1191775304131957 -1.2093086017188075
Ni 6.344287456615459 7.4376204408642455 3.51136538953151 0.5305648779431572 -0.1608744390222907 0.5904900935438798
Ni 7.980053346228525 3.8329882146624876 12.886502457025806 0.4404811364811833 0.5305664206050541 0.3181146237261038
Ni 3.981725161684649 6.51627231702033 1.0728387429500459 -0.8708390684854357 1.6558955939874127 1.7538032023691796
Ni 2.520401453487215 1.7125410651627766 6.094285875326227 0.8214399492270176 0.578237758539088 1.4197207424599099
Ni 6.116907033799451 5.399010364127423 10.322009117776958 -1.1122862241554714 -0.9404573430042061 -0.597590709144403
Ni 3.4199558089660247 1.3733479346323796 1.3847344423271892 -0.8934254384263839 -1.5614903423319495 0.08872825587534397
Ni 2.0659351182385106 7.1831542662329895 4.183096636274395 -0.101668875196412 0.09796314421005063 0.6054996795788347
Ni 2.862788180986654 3.5697971699256064 1.6026951346019451 -0.5864922852383964 1.887410321035085 0.10636885177524263
Ni 6.387405617422266 2.4580020660229334 8.740596960094061 -2.114417647130707 -0.3909673460217718 -1.555994866435017
Ni 7.175727082503833 0.13929972992689935 5.008845769350208 -1.15515962648023 -1.468628523904206 1.1164670950060385
Ni 8.184075414268081 6.340099887102738 12.41586750173326 -1.3003927594208378 -1.363915976785464 -0.8364971006704561
P 0.6567250223681783 4.291338405591122 8.648272556650412 0.5753753493896284 -0.10440864272507827 2.9351189184194872
P 5.1407247579625865 8.77246114287855 5.888677132596576 -0.009408437798093474 0.17617455971447077 0.7116317327529228
P 7.634270545871518 0.8603200503519317 7.850271823752299 1.084230860680152 0.5097050037750125 -2.6202752521351713
P 2.9047190968107346 3.746595434407737 5.241475839748757 0.3068755604771747 -0.9392286128034277 3.1141224629423205
P 4.221585461993513 6.103700083797793 9.295958871285748 0.2323508497957224 -1.6641359796193338 -0.007264394871897167
P 6.064336930378215 0.010830619346307722 11.263628759442232 -0.610145148770646 -0.1832173254938651 -0.8444011860088813
P 8.192993556812755 3.299657520832452 4.51686065195742 0.8192529688780279 -2.0592672272108086 2.1484487685734868
P 7.625426030922672 5.594749327636324 1.2950818002671514 -1.6217590573150198 -6.5171261066669235 1.0401492969799053
