# total energy = -381171.31823122606 ev
CRYSTAL
PRIMVEC
9.23274894218894 0.00000000000000 0.00000000000000
0.00000000000000 9.23274894218894 0.00000000000000
0.00000000000000 0.00000000000000 13.51306133745819
PRIMCOORD
 96 1
Ni 2.3672399029070266 1.7797785519414564 4.661601101881088 -0.6775574167770332 -0.6054919662693508 -1.031329127585114
Ni 7.9488613569969155 2.496609181365088 9.475453003973206 -0.9112197862953276 0.6352038915114867 0.38756346254654545
Ni 5.99020752666219 8.660207733537014 7.1678003395931915 0.5833827930751372 1.4014653957941479 1.5290767018879345
Ni 0.7821273999088555 5.979913011569359 0.8911246177818679 -0.9253616250133484 0.4401579488138097 -0.5320334920688837
Ni 2.5752814352718216 5.313050019529044 2.625736561800341 -2.4777255795639976 -0.497061346869073 -0.6114289005790761
Ni 5.420556148444664 6.956876343002404 8.849352598600914 -0.8203701132016066 -0.8037535876908479 0.13018369480665323
Ni 7.351936438345112 8.787665832959904 3.3729004646643186 0.7374936881213493 -0.25782662546932367 1.036231449982738
Ni 3.9737566878242188 6.213806241028258 4.292680765400103 -0.14987654524989028 -1.0644295096835088 0.5907765144360471
Ni 5.459259832094121 0.5881667329862804 12.352032275777216 1.4371098844706347 -1.7425780230773216 -1.1228796834006016
Ni 1.8942000098297496 6.188028405925852 6.526443739835794 0.7904172755932581 0.621226346285472 0.635376412533609
Ni 6.584288758633643 4.3493818466015375 0.9864629068402317 -0.38825714617946033 1.172201155343549 0.10608217377275923
Ni 1.6494952313361388 0.2830908555787691 0.7295191963223554 0.2758503157402539 0.38377031405270035 0.053370959421972605
Ni 1.2023347335998515 5.101509275307582 4.6779384511696644 -0.7307021191208125 0.8508865366229088 -0.3871096628385785
Ni 7.533581541427035 6.3699689569745646 13.46798171698733 3.0640494575453294 -0.8361633714801212 -0.5245325557061483
Ni 4.096210637309608 0.5157653621746597 5.806251466515033 0.35689817225220466 -0.047748471028872606 -0.21006684158654143
Ni 7.118532544581209 6.476570276491892 4.318558314191301 -0.12699398422476194 -0.1961594874768299 0.6330601056956066
Ni 8.730939823336271 6.1381438632831955 6.482823617363977 -0.4461912994920832 -0.23934964971105877 0.21261583326064026
Ni 3.8594921866682825 3.705979269674121 3.808899492180226 -0.5538986675730913 0.9965068776996064 -0.8033594375762229
Ni 2.8424864229862643 7.173356607918632 13.245975651817238 -0.9245057047709561 -0.11473856389617658 -0.009754765393918684
Ni 3.025331783433271 0.08832139984710723 12.134080310676415 -0.5671943562407329 0.4822155401054921 -0.12563104243896428
Ni 3.9041325279004213 -0.25345280813527604 8.310600461335117 -0.17733618412273977 -0.5777909008096566 -1.3386875412359782
Ni 0.7830118972594322 7.678886544593819 5.038264021641755 -0.7401061860435318 0.26355067243729446 -1.045990586252031
Ni 1.540068690636385 4.931201987951216 12.267860073313713 0.009754765393918684 -1.223221612255474 0.8469823164724961
Ni 4.092203624260022 2.8499372513987433 7.653392154884552 -0.26678512021419215 0.1324290391974042 1.0620347841990871
P 5.3772176248161925 4.98950679764738 12.402111629422976 0.4137264940951584 -0.6346238506383006 -0.10973365448241748
Ni 7.380124020926646 5.247045097198422 9.263338906041195 0.47364528193797784 -0.031357945485991155 -1.4399283277560364
P 5.575020038581931 4.76013761517995 5.060560187110523 -0.06239321752524093 1.7278761980907724 -0.23730202315341067
Ni 4.107225306821489 7.302938239602823 11.2605690080897 1.3582590356100028 0.16998000086798468 -1.3934731216172904
P 9.014699129939903 6.762342322369278 2.9695355116301303 -0.3672712879564127 1.1589540605256556 0.39126585109879713
P 6.165703618935301 0.5679340869105599 5.1957313250164185 1.2337819042698235 -0.005710420121215972 -0.7327014089390285
P 9.190056730978581 2.8981229682323595 11.637205152878376 -0.8616275771894966 0.9083720324338872 -1.1110590366165898
Ni 7.89135979646046 8.473318429044571 6.058419075994773 0.39339601006792246 -0.6284434328592016 -1.2244446860292977
Ni 6.686772272113838 6.531745184289878 11.117641437780676 -0.29677832414217276 0.7962246263036545 -0.3976375589530958
Ni 7.637496130996367 4.08008102487268 5.367955331057335 0.4753095570142782 -0.06572279611910617 -0.16132206808267058
Ni 6.366100435159412 5.652473569625656 7.009414377696792 0.3203144595909 -0.4064631276645258 -0.4563576985021237
Ni 2.0492086321557847 8.670677670860124 9.654946876546942 -0.5318056923287938 -0.2421146140507056 0.33252282873163375
Ni 8.822334805312888 2.2234767688169264 1.5465426942086653 -0.7827358477886003 -0.21749578706076092 0.3544350554236928
Ni 1.6857707020085428 7.518255178149817 2.154305936867172 0.2414445845668745 1.678844232363786 0.8908635912364785
Ni 2.6971906525684424 3.6544051339713852 5.931004370492005 -0.8863109388687896 0.3891274645995556 0.34761083341300775
Ni 4.590707438974991 7.319917264944272 6.296072804105968 -1.7537996028247536 -0.8516992623321913 -0.45909412359668034
Ni 5.024000347770084 8.235861358486272 3.9192742361983965 1.1486747900868348 0.46335829818967295 -0.672754596071751
Ni 1.3878114275010796 3.7721226832391763 0.9146829000337656 2.6684813795267526 -2.2135298173435363 2.054773453105513
Ni 2.6840062870504497 1.814641412022647 10.099296925499143 0.0901423626140512 0.15671079456290432 -1.217347412862884
Ni 0.6939010973760587 3.3266425458140056 3.2988085775177227 1.1559767230648865 -0.8380454189941824 -0.9755863254968553
Ni 5.034618009076591 4.535578694921815 9.587882034635461 -0.4021650145098042 0.4986598017044444 0.2574802978734985
Ni 8.024809949959806 1.9817818664849862 3.951637791135525 0.08173691215917536 -0.641352941832018 0.8650607712407618
Ni 7.309382698378426 1.6321653615341274 6.931646009913456 -0.6077735632146759 2.2378424259469716 -1.8466436806406843
Ni 1.9068119449120868 6.699781215401549 11.019022753016051 -0.7602124698751036 0.4962344800924035 -1.4706992903903058
Ni 0.41816781944525055 0.9908401531232011 10.575213743153036 -0.6426330940960223 0.004279601211960372 -0.41365064655190054
Ni 0.5471271638493918 8.238197243973703 7.658284588559612 1.159736447217635 4.67069891291242 -2.752496031976511
Ni 0.5966599387565895 1.780831085323145 8.210523002234465 -1.5199839955580468 0.05090398593871878 1.7300570077921753
Ni 0.6686818435858648 0.4145993619713681 3.3416180646306612 -0.3180390332931619 0.03876092281828163 -0.42926341338849294
Ni 9.022556199306718 1.2727713754323204 12.956323081551046 -0.06597116468448638 -0.7519075495538341 0.5838939283836008
Ni 4.996856065821276 2.77609372519923 5.495288788369235 1.4558354859045959 -1.3923081547749119 0.49229220761520376
Ni 7.05754100493705 2.593746933196181 13.261488516623492 -0.5384337391682728 -1.4995308699100176 -0.9435308397232074
Ni 8.837328789627469 7.68109317159578 10.101027142654655 -1.1933505357276546 1.133637179027422 1.9791387971893333
P 3.2474163269695415 6.205358275727863 9.358470381522805 0.5006441791243248 -0.7020304622177329 -0.4653735288474888
Ni 6.245382242478912 3.2382666727480216 3.178285195840325 0.27309280759977483 2.1301779952887574 1.4069958386940737
P 7.878517042654069 7.329279272391922 8.245035017855093 -2.2211875909991097 -0.9933819589173797 -1.3081947719637599
Ni 5.574272185915994 7.091286702393816 13.09869668692234 -3.231357568008106 1.4891199589893385 0.8043822224137824
P 4.211121430892897 0.37000795430872885 10.313574256512993 0.8673482817233578 -0.3257127477883358 1.0362427628366475
P 0.5849851276939133 3.0554674760458256 5.41980552595404 -0.9884732087618524 -0.21741968240718684 1.1341004918170856
P 6.697703846885058 8.874389043961656 0.6680060063618332 -1.3417342984821021 0.08897790999230483 -0.27741071824883834
Ni 7.827552268382836 0.285767429502905 8.515607189116043 1.5751413574564808 -1.3903551448135991 1.6288882121606334
Ni 8.61457025541696 8.410692692834106 1.3005601032586889 1.506186427553322 -0.23024691607884218 0.19125305131414805
Ni 0.37283779186563687 4.254247601295238 9.791334890766054 -0.30906305504679676 -0.34799161379119425 1.407530113930989
Ni 6.263192215226957 8.758527277235263 10.121148072467932 -0.250469156662988 0.411704064348491 0.6465722812494283
Ni 4.232495244740343 2.2880783133052978 12.702629298667858 -0.7933568178375563 2.091406530947514 0.21031238193844426
Ni 0.6995035294463093 6.51214405824317 8.660669370985122 2.1895373110836807 -5.650975444796094 1.3801152122531457
Ni 3.9360132100668284 5.181677234546188 7.066993493324529 2.120310101355742 0.7225370668115169 0.3640805489332568
Ni 4.798010351422812 2.84297575868126 1.4685185792790771 -1.682337333118709 0.23894161563936267 -1.1206024573306508
Ni 5.918293644995772 2.5846157444725857 10.839394082307466 -0.4703514416780544 0.10830257846284574 0.5035384699529845
Ni 6.340073315835028 1.259033044976597 2.1288207799068677 1.3782617039841745 -1.0569270306588765 -1.5607130978462926
Ni 1.904300637194374 2.3200605557102882 12.266927565668531 0.22888063185893484 0.6322982878289175 0.8486877291993772
Ni 0.3156501447938958 0.8935740660815341 5.977867957674236 -0.16594696844919163 0.48240323063626595 -0.9829679626729072
Ni 5.562149586528652 1.3434757669846926 8.73646470031524 0.5279729488462649 0.15887952007944894 0.31700313582947987
Ni 6.462721153048622 6.811377452107414 1.8553024384520862 0.5339304519812804 1.2723191411130732 1.4250267280538553
Ni 2.304374115223545 1.3451284290489225 7.120194439394401 2.1580076159065156 -0.902511459888052 -0.44443395048134426
Ni 8.181785147814786 4.852437406554861 2.781920513069262 -0.07933884424064401 -0.7368205733137246 -0.5054727108612198
Ni 7.562286157950452 4.441709336223335 11.516127806263247 -0.5919471377053805 -0.9516994915769287 -0.3352371423390033
Ni 4.4435743515136945 1.4212062804972836 3.39798122722008 -0.3166637502121901 -1.1750291117106473 0.7265716418922067
Ni 2.759705595791361 8.5751833483443 3.9375033757493236 0.22008694482670482 0.42903561364840304 0.543664905660225
Ni 4.398924777532594 0.17213075527639723 0.8714514762932554 -0.39235188507412433 -0.2194536821180801 0.9658428729568462
Ni 8.86855394661756 4.299211088741053 -0.10385365342618215 -2.8363574466778574 -1.0648290591147724 0.009565789311564172
Ni 8.95560030383299 3.800060981598732 7.562084884023076 -0.24309189036231035 0.5590606713900049 -1.3264868854047283
Ni 3.4863875683576384 4.620076813423684 0.19911069429367875 0.8186122499702353 0.29330733487443683 -0.580787007323503
Ni 4.702663752890381 5.420399191712308 2.126658470099925 1.0593022157592726 -0.23178315021771054 -0.3063189166427563
Ni 7.607101921412872 8.755822081789345 12.148674516960934 -1.0456311460300831 -0.19066401157989746 0.2829959256460997
P -0.1091024712111813 6.377096639173367 12.054961191719915 -0.3373734719557157 -0.6512532316648655 -0.4559494073201116
Ni 0.5717065881365065 8.376531521674043 12.122108205097158 2.3760147953860566 0.5543236709256517 1.429994356471776
P 3.758642869754394 7.3519826020899215 1.5745825528068051 1.235194211236318 -0.16081298965673593 1.5202056246505495
Ni 2.1113819636671027 4.521600312993075 8.264493959567783 -0.344018230965743 -0.5168734964989937 -0.22337384310809272
P 2.540317014952047 8.321421243118792 6.283060167718672 -0.488097709917882 0.15126391251572013 0.058425234016428414
P 6.214951101899568 3.383470115676222 8.165158813483691 0.9257835430421152 0.37466552353795474 0.056550899811851
P 2.7131263772771645 2.3850498756550715 2.448242502651814 -0.8709987339917514 0.00216178353800918 -0.7105405565712731
Ni 2.679629964042377 4.146806101622353 10.448285603520572 1.0557890603996913 0.19242521724537828 0.3903970753405986
