# total energy = -340858.08863014315 ev
CRYSTAL
PRIMVEC
9.40190000911261 0.00000000000000 0.00000000000000
0.00000000000000 9.40190000911261 0.00000000000000
0.00000000000000 0.00000000000000 13.76063102195586
PRIMCOORD
 96 1
Ni 7.125389692470371 3.6934329656791602 0.6130358417427102 0.773861428117106 0.1586010696070817 -0.4742579758213122
Ni 0.6762025064066449 1.4448087656822461 1.4036397262790405 1.1441511911848683 0.6519250609209094 -0.8267857869199633
Ni -0.48206643556051537 7.894371087553086 4.846438724066821 2.2276729416131373 2.8111603785869392 0.2914047185350852
Ni 2.0409174267952106 2.8339864894925713 5.903228259164862 -0.013339911642015735 -1.4107496493095508 -0.10833137481825213
Ni 9.101565636363766 9.072400942788187 2.72082052101338 -0.010367202166936984 -0.21819769822379198 -0.21583639708046698
Ni 5.747983147369467 9.027948759930245 12.653037434655312 1.213967697757374 0.03489064122959797 -1.1608407360254072
Ni 2.5314239479207794 -0.07598333464531086 2.982947371376323 -1.5719328778215123 1.0159765563884438 -0.7465020622675466
Ni 3.8922079339495936 7.968072581085956 4.260882755432654 -0.45443502755811416 -1.3483859994706648 0.6183132864037351
Ni 7.632725614466438 9.047091028182946 0.7075700651352727 -0.04393218260657595 0.09250983440496327 -0.4654043820854243
Ni -0.27970840322765345 3.8754443463785893 4.305440239569785 2.3751717306594706 -1.3022802062515377 1.0468714461950872
Ni 6.217749077254634 5.783738572794331 8.994320044269017 -0.09870542169271387 -0.31367869944193716 1.4452296853642919
Ni 7.153858645451304 3.4592316384813317 11.830743506222836 -0.37738060847627264 0.7106138330113697 0.0517935876325237
Ni 0.8444024961123519 6.820721125314786 2.8586476730028045 1.1267257966195692 0.2248578838527869 -0.0674498061125419
Ni 3.3107098253242015 -0.12157502777448434 11.521707756550857 2.8613580824872527 1.248212734983173 -1.2003063982201974
Ni 3.2913043038735266 8.67368517065629 8.99068715013697 0.5270316679789182 -3.84078023679043 -0.46707739891247296
Ni 7.894399293252868 1.2214102215012903 11.797759760896644 0.30980507541914387 -1.8895232536130298 0.1580670514804826
Ni 6.136620082778919 1.6920411261798016 10.362759997408919 2.4875088842030064 -2.5437864757488127 -1.6282600916583312
Ni 0.8876888433792648 6.256287465058083 11.946305078803594 -0.5022074098463867 -0.8927104146372303 -1.4822633410788215
Ni 9.693264806410662 6.45284358494559 9.549161886219528 1.8576811694017685 1.0435364682845834 0.8651908690607228
Ni 3.8129875251591923 -0.1728031599102856 0.1051705927807159 -0.14685369926316644 1.2144508080413792 1.7858121511756084
Ni 8.672068043868736 7.001829923621159 7.548366127175582 0.009542906493428725 1.9285842241702333 -0.043196847102448185
Ni 5.38945109552836 6.046418254873019 3.6021612015614934 -0.7241496627142755 0.2473794619940707 0.4280969038842175
Ni 4.028394454401643 4.889392244076295 8.211408794253492 -0.5163091393550914 0.2371169037257981 0.7545473011695263
Ni 5.641901510485762 8.903965905584288 5.443347486863629 2.404177888083834 -0.4955433675626498 0.3477838686557623
P 8.583079061053501 3.7196736683772387 6.405683654908485 -0.18396423096221867 -0.8715306952358216 0.524170030160407
P 1.9919241262722123 6.106374170711661 4.706906067430519 0.24720257009657426 0.031999949945364245 -0.033295014607703954
P 2.0353515020380404 0.5565623896372716 5.07822282279325 -0.3065976242254397 -0.29010065501168103 0.8153970854670474
P 5.006859581772388 1.6880641225104047 12.178874236173982 -1.0334055504981687 0.03488601324390766 0.046664493936074476
P 8.18434448512175 6.95937094354788 1.6968643008426876 -1.2417968041545002 -0.055763113803233 0.751055485966184
P 5.927192761890455 1.1066130233846507 7.239523116452118 -3.2310220390455577 0.5795780746170663 1.7477053170015575
P 5.595014235546558 5.36413177902319 11.301303717496857 0.02826130883853843 -0.41039074485370614 -0.47630354549643134
P 4.478604432437293 8.772630765494908 2.2808379297190307 1.4749652647555112 -1.178187454833971 -0.8190408528672217
Ni 1.8517229945510552 0.8797132116706371 8.97231677786833 -2.4613630790455736 1.8534766444021176 -1.5351617317397497
Ni 6.872196527418684 8.14429239142995 3.233803224105995 -0.5877277003073942 -0.7021243074831197 -0.45292141912706513
Ni 6.766105488635051 5.169606469520056 2.0726403773411035 -1.7227306493340913 2.742795516859296 -0.3990511514711709
Ni -0.19986558866204115 2.587083195492484 13.10023034300418 0.1837194619412642 0.7347963437948442 0.471606140020762
Ni 4.111563661161659 3.319472396056774 13.46660734014492 3.195253623196697 1.6928585443650073 -0.7494513747038577
Ni 8.625801294324756 4.901586508282461 13.169515764141028 0.8460978569850138 0.7187765713278201 -0.4342942909441811
Ni 4.344758985067229 7.0185276978926705 11.787672462464265 2.4577452797873285 2.869752734308851 -0.5307800792777568
Ni -0.06118662453917102 1.5010791367492475 5.840053132790992 -0.14961634960996814 0.14535294634792384 -0.27758221082969614
Ni 6.493168333735293 3.5755801500860334 7.920412469972699 0.7562275170854267 -0.4968057792148411 0.02004920534139128
Ni 8.963903017623075 4.837352727976737 2.2552027093762925 2.0050125796323015 -1.0113683681924712 -2.169087784980077
Ni 2.405128226192621 7.784265437500345 12.682072382011889 -2.0323125529988353 -1.9939288110143145 2.2075525167141787
Ni 1.7027874977971087 4.608472876137959 7.181315954000021 -0.22528263009503136 9.770192012886399e-05 1.7631293648661117
Ni 7.7393901691456595 0.3360107407544089 7.089201779648835 3.6091025018023326 -0.15237822862582145 -0.42568520911893143
Ni 1.0053545611638313 8.431341798121114 6.702927541691203 0.1899029650441568 1.668119389747114 -0.6508930201119694
Ni 4.951162726600973 3.4010808874287997 10.682213052200739 -2.4640316270166727 2.654276034560648 0.28878656418594784
Ni 0.10140043090972718 7.365495412822766 0.07756755478312033 0.5132955493397482 1.6636251014211865 0.21117421571810727
Ni 4.18197448971985 5.516922054747474 5.649152255709967 -0.24349246823483875 0.876944152941909 -0.3521208054682194
Ni 0.7571904723834453 1.6138079168818036 3.6895828876587866 0.5082129926105183 1.1436104881900497 -0.02408635152524239
Ni 6.521261210719119 8.044726271196108 7.6768224055071155 -1.937044696232761 -1.2666475446495928 0.9854387928109029
Ni 7.275133752618096 6.876079512088804 13.233240901660665 -0.26957013915849704 -0.13475177379330985 -0.8122456843222592
Ni 5.482905980809226 0.7903584949482186 3.4810543884034066 0.37537052002477933 0.5559804898027844 0.5821849161122941
Ni 3.0645962909180366 7.236576561014791 1.3539892329510994 -0.9061976504903878 -0.6935980151796636 0.9037059944167855
Ni 3.942395275763404 0.9695709300391849 6.106417419451328 -0.34972428021158486 0.20763149267217146 0.9751749489910496
Ni 8.636669890641123 4.918538133852018 8.410305047032992 -1.0932253508692784 -2.2581726528638915 -0.735001774937431
P 7.569206378555217 0.381179348386838 4.5667133974192975 1.1546412920829148 0.18785251027303132 -0.41995987659937994
P 9.406882934614359 9.094598828517375 8.509835440047109 -0.06468124222846926 -0.6152048226817405 -0.0332181386231815
P 7.270178951356224 7.059623402476441 5.667412625749455 -1.695997604214621 -0.09979685498467974 0.9966436603877868
P 1.5779678743575916 8.863829194793139 1.0514925046788013 -0.6238954084772029 -0.5515857031691984 -0.964252902761907
P 1.6282210294708952 3.376814583715528 2.5747243980375845 -2.504787725888112 -1.4429434604332763 0.6013720305637064
P 7.964396438214243 2.768615079295602 9.569418279613656 -0.5419090993113829 0.07272648113044894 0.13525596712323804
P 2.9368056671013814 2.343658604465628 7.929660178741537 0.3672466053660643 1.997341179129973 -1.1582958581163665
P 4.213188797479657 5.257956123140208 0.6472164489296917 0.008211075055882634 0.9510076077162266 -0.45619597611327883
Ni 1.2956852309297466 5.515464760258688 0.5362147978138456 1.2991493739320399 -1.2089964697950273 0.04948705098653412
Ni 4.025996969920092 1.2830772831267645 9.664903035088903 -0.0023458745243572503 1.9241565274161831 -0.12308179365454931
Ni 5.253885100471535 7.182741282029053 0.5182477670521013 0.25453715608477456 0.015785802079347006 0.5975709116500612
Ni 6.773429568678692 2.128665358819993 5.620887323957466 0.5154308505151962 0.7024323256418419 -0.8856103132573393
Ni 6.717742115407205 4.6087925407355 5.299920563277293 -0.6922188754439498 0.39068143935023686 1.3805944658824094
Ni 0.21016725041277023 2.6151948762761656 8.024236710683775 0.23485021917880847 -0.044701199562116566 0.6988464080627965
Ni 3.058879935762024 2.3300916628700246 1.330698846450318 -1.3610157724195333 -1.0551856224877376 2.3026123712345052
Ni 6.32290932794543 1.7471080540560635 0.15044732226231303 -2.353921563031443 -2.2248879226688327 -1.5177777319353474
Ni 2.6196983863415113 1.8952161836163768 12.908393976880353 -1.489897203474995 -0.9494112097633843 -0.6462969161008547
Ni 4.182942885412398 7.971410255560272 6.912226056550659 0.9833364017559194 0.277239996998929 0.34298156217111253
Ni 3.4479399566682205 2.2910925819701213 4.063638416470442 -0.3678310171146246 0.17758275291590706 -1.0435364682845834
Ni -0.015240479782725032 5.656427445873986 5.821283179775426 1.672669985232274 0.3527712945680247 0.5477383043986502
Ni 7.25744877885418 3.3100422904293385 3.3504930246780713 -0.1568439777066589 -1.7027282380702353 -1.912825161563764
Ni 1.266088049957496 8.716473217227037 10.468468378865495 -2.046660337080075 -2.4273250156242585 0.6772108320708918
Ni 4.578875695165709 3.418465000395029 6.482220761459534 -0.4609607444917739 -1.815470083251357 -1.07907605595209
Ni 2.456293365598907 6.739140839642543 6.775486704382863 -1.0643932571289347 -0.6697119525906853 0.38474399081987937
Ni 9.206236988258322 4.214834129966996 10.613698586857955 -0.3238378993631262 0.2825637232046876 -0.07759409363539539
Ni 2.989437502896381 4.853909473749333 2.357663674597859 0.9667430161736124 1.3209268748184475 0.9847381671994525
Ni 2.1929367467254273 3.4140273036291777 10.053847412625991 0.32090349932515055 -0.4488169100403884 -0.21942771397615113
Ni 5.166249991245884 2.580351435144285 2.1010698423423397 0.509170214317465 1.4188668791000467 -0.37411762145428473
Ni 8.073900366671614 6.026805891623936 4.0094073174977485 -1.166702851233139 -0.40752267927729174 -2.3391207505731844
Ni 0.6289617200301613 9.709530093285501 12.920502683797174 -0.19050768850769126 -0.8634857134441581 -0.8278571656072711
Ni 3.275480906295287 5.220846824125764 12.032832644217766 -1.653734581780352 -2.487809960383193 0.4855464042509379
Ni 7.545344356538834 6.053366258919555 10.763386235606113 1.7073037732560599 0.7868534695013997 1.4256903297797834
P 1.7506525703287887 1.264602549768927 11.097880449902192 -0.8951416497865423 1.287202228872493 -0.2826629677867132
P 5.173141583892853 8.758951001100172 10.050324520723098 0.09602581797802172 -0.05899216226349195 0.36044166662908894
P 5.345873289363689 3.286697372908977 4.186258935516881 -1.1596593141227964 0.34942217559013367 0.6058778888538597
P 2.537779632271873 6.161826576484956 9.239383386453262 -0.5415306329260416 0.320602423144964 -0.36459605511709464
P 1.249926183981861 3.925011162797174 12.103768098791921 1.2877699284505046 1.0417667779786703 1.1284998578008565
P 5.890685184471381 5.969567124864387 7.047300332241266 -2.004146117866948 -0.7862245776681491 -1.533706744460778
P 7.99713385376233 1.8166633097208384 1.3040012114157555 0.9394576980950983 0.07980189991999159 1.2232663494504803
P 8.223484594520569 8.356624899396058 11.781123098974664 0.23486487446682777 -0.09977294372527978 1.0067005304031567
