# total energy = -381162.3903348221 ev
CRYSTAL
PRIMVEC
9.34374351387293 0.00000000000000 0.00000000000000

0.00000000000000 9.34374351387293 0.00000000000000

0.00000000000000 0.00000000000000 13.67551311263129

PRIMCOORD
 96 1
Ni 8.359174427919795 0.6553664212438279 4.3086887814864285 -1.7864179030804075 0.33642422066856903 -0.6468157647188022
Ni 2.2979441776425813 5.821609952003515 1.9195907811946407 -0.17897294839521433 1.0814008474305248 -0.4237293709441412
Ni 9.161465607134962 1.1406655009809583 11.27135760606604 1.3993812595716093 2.0100833092869896 0.9471666367035817
Ni 0.8383000973468555 3.0646543821715997 5.817317436307397 0.3551603636254915 -0.1677634528326401 -2.1595664757532034
Ni 2.7753440567495464 0.1314384377389795 4.295629031402703 -0.7221987096354917 0.27808434727709525 -0.7248248344044291
Ni 8.640066040581287 2.4186933729863527 7.205819189091869 -0.5591000092683726 -0.4086891887815671 0.6754380564411852
Ni 3.772760628394023 4.270100055815126 0.06644429335364024 -1.450528986090018 -1.6209756421817763 -2.932216400060711
Ni 2.328899999369263 3.974772359674092 3.14103294345757 -0.5932488872359396 -2.375832761282237 -0.3181246510284328
Ni 6.61061432817149 4.458460578057259 0.6752293508624759 1.3481232327275814 -2.090196569799813 -0.9907854018347968
Ni 5.185955091736026 4.715862019930681 5.722901712853849 -0.8943127261273436 -1.1180683780548872 -0.7228216879314713
Ni 3.6758286348556584 7.521190149098253 7.700749799476709 -1.1766033981763027 0.6795500217270296 0.5605148873380282
Ni 4.050120306068286 6.239153811194656 12.215009344086157 -1.770961459316021 -1.1465916823055609 -1.6026195082720915
Ni 6.063491436168508 6.407481347689126 13.504240364371144 -0.13861537051377418 1.8753382203618996 -0.5958547002899028
Ni 3.5609286228505233 0.32085947485161637 13.405818043768063 -0.7433789432575326 0.40740440853187254 0.19722083886180874
Ni 3.2080154364283113 3.910795748939835 11.304753079182047 1.2020398359715363 -0.06680548766032365 -0.06685665261323324
Ni 8.315539146463832 3.1115693175442742 1.3693835195110138 0.2225500616552167 -0.4027936492327385 0.2018305697196782
Ni 8.35534349314529 4.923610809629157 10.608833877414233 -1.221992110723747 1.926968028723049 -0.15401499289829604
Ni 3.234355448938881 2.3546139810752185 1.5279926285445962 -1.5904296510741192 0.3905354006906758 -0.24186958791943505
Ni 5.903068706550214 8.142250082249209 9.26108486126149 -0.14173617553094298 0.9098527307444717 -0.1197236758155938
Ni 6.591674560396065 8.411004172295861 2.6521879131181825 0.8142940822108556 0.1822603608972345 1.2129677957379499
Ni 4.74357556271406 5.047490158996 1.641225716735653 -0.1585290787185657 1.6472641435646598 4.2256352992668775
Ni 6.633291593287899 2.444883885603283 4.909864294409025 0.08470345098666704 -1.0876612265179397 -1.3916638363226936
Ni 5.132994754414313 0.510409455622517 7.538476074300294 -0.17334788889895306 -0.2053933473702721 0.342602581565139
Ni 4.77147598036449 3.161651781913431 3.5348053851857304 -0.7631352999488535 -0.5016132279058135 -0.14625540355753522
P 5.879401004638447 0.3195055664398456 10.941012362963013 2.348857518244974 2.192964334487359 -1.8561225666653969
Ni 5.729078861584156 4.775484446262693 11.925307515817638 0.8600252656993833 -2.3590784246420338 0.169628788176153
P 1.079473325765733 0.985512642613449 2.9078925311987978 -1.009466780294384 1.2058329844653815 0.7454728496720839
Ni 5.93133353019139 5.915393104032103 7.583550292232535 -0.8705367067536685 0.12883772230172005 0.06049574339221194
P 2.7707469350201386 3.3224576050091756 5.154149923738605 1.9182252495334127 0.7801248925283145 -0.01602748577650788
P 7.872729805247654 6.485613729602352 6.661766651154504 0.23940004333301998 -0.2597716650108365 0.6930192598580581
P 8.752415210651202 5.28551267715643 0.9989713705383246 1.0266921430337348 -1.1530623776315692 1.5012900186929692
Ni 2.331049060340328 8.985831263338872 1.8190623808399167 -0.16938684736867604 -0.8972944344634869 -0.36175498612387375
Ni 7.271338451853616 7.102655853111752 11.31745776701838 -0.01160544544941227 -0.1726017547615479 0.93820171420081
Ni 3.210725122000523 7.391134585375437 10.085554349698045 1.2008206188524546 0.1873909972555805 1.963398246525625
Ni 8.969974930869757 5.655412788993404 3.1740453230961267 0.5105274996763078 -0.19742678422502774 -0.7698831601956482
Ni 3.234626417496102 5.270964468756658 7.042669955163328 -0.9095542256674466 0.041333054420832044 -2.0396404541188162
Ni 6.677450124371598 2.0234063104607585 12.966710693668126 1.0669869859980399 -0.08491556699747312 -0.755154595736222
Ni 4.489098712509958 1.9082072986683452 11.637423980005503 0.7247608139357131 0.5218879189944495 2.2173013685708263
Ni 4.97893511401904 8.314090866244202 12.041986576557079 -0.658456177171208 -1.3495635647185338 0.8657940498623605
Ni 6.136475415494532 2.5548317136316165 7.15188336496416 -0.057572141987513745 1.1451999441643568 0.8844980540297671
Ni 2.441819137783678 1.0666443661428127 10.961662035771935 -0.49785324664274905 -1.362116975903512 -1.053130796841238
Ni 8.955697691027206 3.0246351293930367 9.638419789684015 0.34258406962237775 -2.087886433609398 -0.575052418832571
Ni 1.495335311153432 5.3712228349284965 4.944641707166862 -0.12018698860525752 0.15770118350063164 0.5813639628728955
Ni 5.508622580926342 9.090705438726822 4.463331471466893 -0.4284766558211395 1.6731196711751832 1.4090946302046314
Ni 4.3132214313867046 0.7697702804769474 2.63719961440651 1.2569619419307128 -0.703104412008202 0.521706656221579
Ni 7.336221405693061 1.1624924854522924 8.764977873588577 -1.0821675503932202 0.44873000675353686 1.0401097019912215
Ni 4.321714894094086 1.1885334981755835 9.536686980811158 0.22425033217577506 -0.5272738658967112 -0.7459916982900313
Ni 4.075254975686389 7.664354984744564 2.7615237259569305 0.199936695131075 0.3990241548879773 0.4735506653416426
Ni 8.305335778722952 8.654268530477019 7.853861049921707 0.973950075445013 -1.2143286806412183 -1.5234202749331054
Ni 5.278233901084868 1.804678622323148 0.8229539332647839 0.13788414877470448 0.5742841732079788 0.9667301606578061
Ni 5.808640836230309 5.967755441779258 10.002283843315302 -0.7915393050128433 -0.5885165147572768 -0.06631286429462128
Ni 3.649871715822539 3.099375732469321 8.14132037978564 1.6426765241939774 0.428843552242255 -0.31887824136500564
Ni 3.8990132885723896 7.221115831334172 0.5300481354007063 -0.7501005782520823 0.7762139875096825 0.046147187980023756
Ni 6.042795044642822 8.81026232574625 0.5263844536322088 -1.6189565548692182 0.7942813865343546 -0.7921412002629002
Ni 1.0509842522840986 4.329068420112467 11.600404068843078 -1.0507365855774484 -1.0335227928023234 0.07260229684775883
Ni 9.293352544554859 3.0167770412336217 3.561130447706936 0.16546951459214082 -0.4738918507311452 -0.05136601317680185
P 2.724037562001218 0.1905320081972437 6.426752818353564 0.6813099418409299 -1.157429139240697 0.9763543140111315
Ni 8.2172055914226 7.319673636215864 4.729607600776476 -0.7125473025886567 0.07586374120784999 0.6396570421868338
P 6.519690361608755 1.6421722379372565 2.742022399206023 0.023681659887655988 -0.1919415927407404 0.2886731785365351
Ni 4.276650019905197 1.7584831551886122 5.893120423002856 -1.371687907421399 1.0557070422088464 -1.3625370941600663
P 1.931753531916531 7.106991350027291 3.6253509301426923 -0.6219241436834451 0.5352982788630847 0.0909823420168433
P 7.471070309755686 0.6748247667753147 6.445734632974077 -0.8501434878092973 0.5782421294144622 -0.9153384364493914
P 2.3846354284666553 8.043346558863476 12.389549535535675 0.08078328999665442 -0.9327298924529613 -0.12344431920029064
Ni 7.4975785096466 4.3449714712983445 5.808906198541517 1.7303300589479038 1.3393817390895255 0.49204023950539777
Ni 6.640663806792984 2.6962399255276654 10.724665460631607 -0.3222075628485548 0.21093947399948187 -1.1292580761231197
Ni 7.446365452331796 4.303074126105939 8.273028851707505 -0.1472005410796239 -1.0920184750453708 0.5745178864853396
Ni 0.6325377874851108 0.7762062508981181 5.809507935613416 0.6942780719658236 -1.0802991297259135 0.9353935553280536
Ni 3.5024648206942146 7.404804481900078 5.244435712630369 -0.9541641510673373 0.5808913941118512 1.2295555248933019
Ni 0.18825774106525622 8.300860125657126 13.632312251380235 3.4811099011097273 0.7835902253690956 -2.2615120016497694
Ni 5.591959427886884 7.95653383937582 6.586086067496963 1.797474418004885 -0.750003904773218 -1.2003022844551392
Ni 7.9449943163355385 7.518181463738762 0.9777265012778485 -1.0316289182137202 -1.7976325408493041 0.8627730036478496
Ni 8.254057315204681 8.80071302004004 10.138929549224606 -0.19345365850989263 -0.38652396553843754 -0.28682301270167376
Ni 3.7571285457653656 5.579139812007318 3.8664774398448074 0.24596946902042155 -1.4589444638472229 0.15557256719340307
Ni 5.566880820728896 6.77395230571575 4.425601435809682 2.4522210075349897 -0.22582101909700464 0.06096471260883048
Ni 7.92208345763532 6.467225242684721 8.914861795079638 0.9375023741409403 1.5083880631903313 -0.17739994748113963
Ni 0.7243793096450579 7.08623889604149 6.641800005984644 -0.16082867338601978 0.14068330878639643 0.025189354781434036
Ni 3.6469190929231634 5.199279269756626 9.22515910244564 -0.9658266750069302 0.8842694829587285 1.2805060477992398
Ni 1.7239580235012921 5.5555748912724265 13.384908614893941 1.0813571386767828 2.1061530931290693 -0.543850796418786
Ni 8.221718619461836 3.53583132820583 12.370663961471694 0.4395228863329721 -0.03263166999209219 1.1200656109905742
Ni 0.7244269627361555 4.664275212881778 7.246681247520823 -0.5297290123054231 1.151739030834455 1.887418805675517
Ni 8.179419493305273 0.7414428537553106 1.240757548521123 -2.241364065946985 -0.8223112960883775 0.7906054803446642
Ni 7.615917019205438 9.299743665007938 12.484799655270598 -0.6099908825809688 -0.8883220557615475 -0.0888616961294147
Ni 9.234776617478321 8.356277867480534 2.9664918176337167 1.5802866491028462 -0.5627062385623922 -1.3619555106249834
Ni 1.7810669828714951 8.805674547760193 9.113183682109822 1.1688111558253935 -1.2249519646830194 -1.2943516954330807
Ni 0.45515616368211176 7.26895579729874 11.004275111705141 0.9484277628041924 0.16175581318597948 0.4474262003404487
Ni 6.594543089605269 4.7374367233314985 3.594116664864107 0.2696346738478453 0.12083799192569512 -0.5499239991960593
Ni 1.4016082215849592 3.558331062198541 0.7416624317240933 -0.6502936959650736 -0.21202345109228 -0.17522685108922081
Ni 1.3944976328937413 6.405472442868349 8.997680998658454 -0.1901806441855757 -0.14570390192943938 -1.0208824783304935
P 5.347237445742746 3.934725075665471 9.22548706783731 1.5024146192157157 -0.7602947451762649 0.2176685651931993
Ni 8.88389102336359 5.953767857980634 12.79013263179344 -1.1357393129720892 0.5326847524996374 -1.2797002640684927
P 0.6431448049388173 1.0309232353063786 9.210704331479391 -3.115354792687525 1.952050939833606 0.9856658212200443
Ni 0.870877992919524 1.1035521523850085 0.5819778578306434 1.6791715337962176 1.295416132141853 -0.4035598379748017
P 6.477297798018668 6.337309835112192 2.045843441373008 -0.7691156859020044 -0.3329144077430976 1.1623011226210176
P 1.223114692323018 4.348652906179212 9.4386337380705 1.2637355132091204 0.6338874866929084 -0.2594441064680887
P 1.6576641644156265 2.166365583753315 12.463890226396474 -0.6905561430295463 1.7473026822465003 1.2993411782278719
Ni 1.961018136096419 1.817694456813117 7.716941572332178 -0.9702404878039097 -0.8640755245093571 -0.4394629796293141
