# total energy = -340856.177002671 ev
CRYSTAL
PRIMVEC
9.36426101637351 0.00000000000000 0.00000000000000

0.00000000000000 9.36426101637351 0.00000000000000

0.00000000000000 0.00000000000000 13.70554255147470

PRIMCOORD
 96 1
Ni 7.286050665475346 4.236138904845424 7.272311421530218 1.2581071112787494 0.6826679985307211 0.9434151400809494
Ni 5.270880396593416 0.2543792174516062 1.8169438433584575 -0.6667947789438903 1.1316875115002187 1.449555052212523
Ni 0.5828962267775101 4.781953593933245 3.897143287303463 -1.4085171604346065 0.6081515153793848 0.8176365163205274
Ni 8.30815040468386 6.762654017557531 11.631003221197798 1.089203374194079 1.4571320932288325 -0.8195507026241047
Ni 5.6489249830906525 7.186087177802065 11.807229251598121 -0.7794792885245156 0.2340619189495582 1.6611036205509133
Ni 6.801393965895177 2.47606047368788 2.797808058635422 -2.1342315965328407 0.4115683101015751 0.1668352845914159
Ni 4.598517082454848 4.248780657384901 13.388766807001444 -0.16029208415625942 -0.8147052016063452 1.8945258490339436
Ni 4.964350672425063 1.4508705283030492 6.032521640018006 -0.710584265325015 0.33532353140522253 -0.5428321253462844
Ni 5.205883060018217 8.3388370884408 6.745224318296991 0.9411757092274694 -0.9765630875878276 0.8511701293015986
Ni 7.7086035851726855 3.7111877895783105 0.24815572949772682 -0.325311141474543 -0.22822474344249083 1.722698253434259
Ni 6.619071801492482 6.329847231911503 9.929104008079161 -2.425656883893216 -0.4573347177034124 0.32561941674358114
Ni 9.058686570822104 8.412908394061002 6.8839923677097845 -0.6941497739180754 0.1730164737014633 1.5608182559655892
Ni 1.3273559238617785 2.219723189231826 11.039499365580076 0.5146209530193911 0.5633724113914813 0.8477474767732949
Ni 2.440073618125499 3.304282550246502 0.9299263803778942 -0.3149467675210834 -0.6078609807221597 -1.0220258479063171
Ni -0.002088230234298973 0.09970690691803474 0.9224199886477863 0.8131316864716382 2.348865488664774 1.9976116591825406
Ni 6.549869911665264 1.9293561797917247 8.136911779766889 -0.14312894211341157 0.4498785185356833 -2.0748031180628788
Ni 1.0904494812719587 8.113832621760372 13.378830389505417 1.7232047607570322 -1.0104021476244598 -0.6056264349646859
Ni 1.715813568747089 0.20179327259183347 9.620564713470088 -1.6040055899863408 2.606474341696337 0.7917809887100041
Ni 1.5681953561305464 8.029151608268148 11.140536934006153 0.586017659594823 -2.540374621853786 0.2437619198461415
Ni 0.2756669923019732 2.510268119633594 13.730897579173195 2.240257720256684 -0.42050315069735966 -1.4737439907539005
Ni 2.9387767094161994 2.937971382958129 7.257523380337371 2.429347702481242 1.3551212613119694 -0.947185148646343
Ni 6.13327266205319 8.075560886479742 0.4173314076854787 -1.52348172429866 -2.247196613468362 -1.1494337797400462
Ni 1.7313395137177963 1.9806161452740234 5.485260172583999 -1.0275138676040823 0.07252979173861057 -0.5999052162101925
Ni 2.028008670905356 5.142412098008897 7.216694265339312 -0.7022613472816164 1.6482756155483098 0.7692354993093203
P 0.514223417704723 4.436318715242773 1.523289041831978 0.5816280151675596 -0.30355883739911593 -0.3962684465197111
P 5.269251015154994 2.2808437216949176 0.757704508041185 0.3102385634121367 0.45816004181818515 -0.5122725073918726
P 7.499443448341736 3.8964316034567963 10.25328068236651 0.3609209202583526 1.4670292977378865 0.10523962326680586
P 2.504836848172188 7.369018019178883 6.6171315265842 -0.3879074761495255 -0.255973631420985 -0.7560650233656334
P 5.312654365540535 3.460871725035504 7.101458604172228 -0.46874347376098624 -1.6501802887701902 -0.2714254471996809
P 3.693133494099708 2.9332986166490924 10.62442661768165 0.5435186098903478 -0.1337906954316212 1.0190796207937998
P 4.959743455944008 7.055343363760441 8.395440301329785 0.8169626301819543 1.0442363225650855 2.445764453276369
P 1.2858816112711497 1.9511561797264692 7.70481761439364 -0.9373542785988502 -1.3408531814287294 1.244919666054198
Ni 1.150905151194085 6.666277041901007 1.9653889202336936 0.3111980991119286 1.5547504525049547 1.1114323607956083
Ni 2.5714729304469484 4.831471806843437 12.052557910657578 -1.6409901376304898 -0.5068595639064175 -0.5683755210330276
Ni 4.827969573176945 6.133094741091522 1.1340860017598953 -0.17740637523904285 0.16043040950633658 -0.3013541164383133
Ni 4.3786629594016135 3.9436743009098825 2.3219247353176513 -1.4111939359358212 -1.0942584201194832 0.37223788793306856
Ni 5.867795858724149 9.014056502227175 8.750673547689118 -0.2999101849029351 1.3974197649698643 2.2248658111816457
Ni 8.424079957601444 5.8812897590274 2.6384405075660773 -1.0643305222117991 0.1417516021499107 -0.5863863557881513
Ni 9.18312823711627 1.525082297840356 9.40714196496805 -1.3484163384879682 0.08272061622868335 -0.4255219440681897
Ni 8.533997654866921 5.599912440282039 9.202531922625198 2.034152177310735 -1.2952598090696466 -0.8588407584729789
Ni 3.27301528229886 2.079390371782479 12.595051096318914 0.8948063779343106 0.47064583299002166 -0.07762520398364696
Ni 2.4882340131703407 4.648971721479076 5.096022484745697 1.7672855531263303 -0.8833420860484529 -0.7530627462041999
Ni 5.848327559813353 2.686213222199708 12.07008780751232 -0.9549334251331941 0.16474189239749693 1.693162705868987
Ni 1.2734646009990402 8.9544248872854 5.544865567594581 1.9542883138045568 0.32674941658296625 -0.7676128761042328
Ni 5.604220000406602 4.149678681736534 9.290069035765228 -0.9026526134516069 -0.7823990332744719 -0.11556157401810421
Ni 3.010535042534733 6.456086836344618 9.397342265684669 1.9710984433833598 -0.22337230044619596 0.9758488351296225
Ni 6.7048016122324245 8.978256931887602 5.092759976164397 0.7681425233554577 -0.5327891392879857 -0.7379235765699161
Ni 3.8959446618774978 8.839993616150274 5.224799803947847 -2.504639630346022 1.2828102704523843 -2.132760411303953
Ni 7.511926008441828 1.2303515427088498 0.08219199288111637 -1.5403535603533343 0.21805551621897287 -0.317281329191531
Ni 9.21646500677593 0.6990439669796646 4.0187663109943825 0.6750295081488568 0.26023600624176474 1.5090305818703365
Ni 3.4945924294019193 8.117156934465196 3.0191389256704904 0.40682436765868646 1.4559498999952731 -1.7295499862487695
Ni 2.5372184631955332 5.5627082307714115 0.5311830310560184 0.334430844387624 0.5154575899880736 -0.04634413448217825
Ni 2.9824235305913898 8.760210111234455 8.241553652305889 2.70182267399136 -1.7631309075280088 -2.6829366357201345
Ni 8.61992411509081 2.276863910710267 7.178319523186142 0.7546398608833326 -0.5795248527816277 -1.4950941742949024
Ni 4.593628938139583 5.055455569059569 11.33054996608342 1.7147478882389307 0.668501734332668 -1.8491713321585443
Ni 2.719877740999281 4.098596637215902 9.26361780732207 -0.5484520426362232 0.47432353895192503 0.4438240848114873
P 5.334763386092912 0.7923232450509603 3.8619336654157315 0.053418781940772514 0.14779960811620352 0.42595028985486
P 6.9721606320506755 7.0050666456978785 3.973401147899937 -1.0408998019926847 -0.7100471618746222 -0.3874588186478811
P 1.97127061265595 0.9598367668862993 0.11923326424790119 -0.32908629224625907 -0.748196419250834 -0.028416089248847833
P 8.412046882036089 2.376284271237407 11.915256304539362 -0.03945897732657075 -0.5427413654046911 -0.2547179046370129
P 9.302859680056837 5.183811496510403 6.774033467695291 -1.3281393334064868 0.40660710944155776 0.2005761284872868
P 6.926125924284694 5.859171374213884 0.6964678587399532 0.33860760147313296 -0.3879714966182415 0.30672180850812986
P 7.342339239190014 0.31217543720987195 7.020417478985261 -0.3526676791106249 -0.29055394049901573 0.4166783776346307
P 8.817575574980266 2.771811933283685 4.254803750150377 0.07141110475313507 1.2236391594088667 0.7184346146073692
Ni 4.524286584395261 6.591784344529489 5.065527768342133 -0.36381881063143795 -0.019826547807623916 -0.5131924481029807
Ni 6.785905477969031 6.098016218859756 5.982360102367471 0.11379574036693305 1.2599032839472237 -0.33462290579377213
Ni 1.041193467673696 7.188559342743118 8.774164733185811 -1.4696993883708818 -0.3031477180036263 -1.4435792942450623
Ni 4.495931601662268 5.366985808676869 7.431254771569905 -1.1199298567436584 -0.8974978087235446 -1.2691240312145433
Ni 7.490987520531996 0.16318255105792528 2.8101979125502243 -1.6351007687292483 0.9865464240527849 0.38317150412643686
Ni 4.792965965034301 0.20655499938170355 13.363739882677734 0.18354951202230324 4.85066173602473 -3.5300153685611786
Ni 3.752390538595869 7.907472399010387 0.24495408861383972 -3.007846427991201 -1.843598466056457 -0.14187064422627826
Ni 1.7525963865064 3.054846726250889 3.1608407980985573 -0.03852360999649495 -0.4539426613027279 0.6349454956437774
Ni 0.24539233603520832 4.35662885293836 12.065523666632512 -1.258807994000516 -0.4154753584654651 -0.010005705062460186
Ni 7.8860469695212565 7.903483223764596 1.5131194542335535 2.8503005391215104 -3.0530446217943936 1.154022170441677
Ni 4.253041396203763 1.3315885698972183 8.298884468285479 -0.5936504935497324 0.44868346978631757 1.4351008244604058
Ni 5.290779451516667 4.412505399162853 5.122912897036338 -0.9338287819440949 -0.9616964548886405 -0.8792766577298275
Ni 9.193869044644256 6.127167163789678 -0.02067628859790194 -0.473585632344636 -0.9677981969110042 1.2111176299030884
Ni 6.825403931459045 2.6283139955688983 5.371462861928073 1.8142806909289464 -0.4253152273740223 -0.5682629067145633
Ni 8.837409080075535 7.265954961068145 4.859546798168333 1.2041242293043908 -0.42744178679872186 -0.1673381923697634
Ni 9.153022137550032 0.14615832430476144 11.612020927440186 -0.11983886123721943 0.9583982437533429 0.12037365069476688
Ni 2.0223432929154415 7.0029409584190185 4.388089961091608 -0.44661321752085015 -0.9888994976659936 0.3107185883723487
Ni 7.303973861297983 7.399011747611437 8.03545001031115 0.7358463823259134 -0.1103949422155002 -0.4706705155803701
Ni 8.905037774031173 2.3443334122265185 2.084503258365112 0.7055893832135848 0.0005497018558829242 0.926520935428772
Ni 2.620138995593369 1.1931379689370825 2.167339512412685 0.5317786957456003 -1.7913472220612243 0.09916873448237759
Ni 6.932877556566889 8.747821193745766 10.863822080882574 1.4126790051217801 0.8144344644434618 -0.32617966012242533
Ni 6.727837694637695 1.9142048052666316 10.222580888643973 1.0230401481034446 -1.8823339349534418 0.9517046337832512
Ni 7.010291903414197 4.984193541781473 12.31652706794302 -1.228278200842775 0.520900872490832 -1.6098515072441566
Ni 6.165607455770832 5.187360551482597 2.7929021222239907 1.2417363832302097 0.5738697113783794 0.963696773148121
P 3.3852553163271444 6.031801528336312 2.744000077696833 -0.38358776572824904 -0.8838509073640712 0.7051193855557017
P 9.007876089874541 8.58555727670571 9.509412806586313 -0.7552718380403767 0.7079609687695548 0.33821833645451427
P 7.936557794112327 8.475929871535586 13.132102709831592 0.8951408784555939 -0.3549217652521242 -1.6246358646421826
P 0.9610260280511242 5.76890926108201 10.67091642853905 0.6053677819866606 0.6793175940012495 -0.6365187536681682
P 3.5509278244222897 2.5994346142120457 4.338311421721714 0.1285628713737786 0.8986041544138459 0.15760039625670924
P 4.953993799603831 0.3685979198588477 11.000507518617754 0.24006313083831557 0.30370950404436725 -0.23077630621975093
P 1.0630309246530019 8.763834080295773 2.9196370960714293 1.5872101156955567 -0.9294939020141669 -0.34602317721091375
P 3.5560500752660635 7.141953415047576 11.571397826187216 -0.5070320849285397 -0.9656870641052724 0.7403162451718088
