# total energy = -340858.6802709357 ev
CRYSTAL
PRIMVEC
9.30276978632192 0.00000000000000 0.00000000000000
0.00000000000000 9.30276978632192 0.00000000000000
0.00000000000000 0.00000000000000 13.61554392065961
PRIMCOORD
 96 1
Ni 7.343597090823419 6.582379355367955 8.96368466545133 -0.8274447606602008 0.23634068768140584 -0.9120073151936293
Ni 6.404017352094126 0.34561184815248847 5.082477983478056 0.09737770402022583 0.1991946747587279 -0.4012679566168315
Ni 2.8936079066561304 6.742861435296856 6.777232378471937 0.9035617555294374 0.8726601808545745 -2.8016192718657233
Ni 7.359597854690889 2.6113618742497273 3.7432670735581235 -0.5956613533321742 -0.8766240505983289 -0.05669565291983139
Ni 1.5731634740326197 1.8375947024819284 0.6318524898639452 2.8747676710249395 -3.20402519874174 0.8773868969062826
Ni 3.0235955075399366 2.9313306377506585 7.959497191222285 -0.07342993495537677 0.33321316993043903 1.318168081126388
Ni 4.9263654144727305 8.311494460490257 10.099261667956522 -0.050484124792480795 -0.24100955391198495 0.9990286156801956
Ni 2.318603712093184 7.8002142383064745 8.74813670089411 -0.8384976760402527 0.7212628280847837 0.5413624827792933
Ni 5.463330583771676 7.1829196527310195 0.9920352661824899 -1.4440050689285713 -1.3670892323071229 0.5900221527685259
Ni 8.608252813613667 7.193096882772306 13.203904765593066 -4.429513238433888 0.02374156659131395 1.2961602093967288
Ni 9.267530798801848 5.738143703195458 1.2300754672971337 0.06862042938187536 -0.0428075820838295 1.1719044500387366
Ni 1.6863223645465117 4.088799848168243 1.8543964348197397 0.5957325728897417 2.215826583797513 -1.6554443653826072
Ni 5.397653029757529 6.278941613606846 3.6528190346893776 1.628907238324027 0.0464624052275974 -2.0463757159601212
Ni 6.676979220349521 1.5885316495611423 0.4135909073880374 -0.9838750478682088 -0.007865004570373552 0.35346060732556545
Ni 8.53875182125677 2.3108172938623284 9.616495365150753 0.3116295302223923 -0.7387095628063213 0.9289010056251744
Ni 5.171791084444575 1.471000457292767 9.32983330797232 0.7391996150688624 -0.5746004188968169 -3.0079497863382842
Ni 8.692647540244876 0.8445938088055759 1.9542253866442738 0.9490373713637333 0.7705742727254019 -2.365769206398648
Ni 5.633078222312205 3.356076496274441 7.574749521259299 -0.7715258380053939 -0.49180935444151425 0.22943650436240487
Ni 4.26565480275223 8.44433801166901 7.850436170757009 2.122544904223532 -2.766390787680732 0.8473402140325471
Ni 3.8265826789052473 7.976864531957272 12.93134942837314 1.0306354439521992 -1.9370943185237735 -0.5593671468868302
Ni 8.905773993851689 7.591181003363433 3.1277902491801703 1.2837443522308796 -0.5050608201347817 -0.18100617677515923
Ni 3.4619327125813784 3.5835106096650726 3.6672513515870477 -0.7030820434106989 0.7876546252464564 -0.4764457275012504
Ni 8.133318512610236 3.5750078781680568 5.627317947319916 1.5099741767305284 0.4671707299572277 1.311960152543463
Ni 8.02055033842334 7.576343085707262 10.985606307132564 -0.5846477758304899 1.2128577525226467 0.15585975941651867
P 6.384788527144092 8.064171025501574 13.002952846680067 1.1258431369042998 1.307089454714723 -0.9012649890754608
P 2.884798183759332 0.492729569144177 12.7918441638191 -1.3971935078916708 1.99823463747852 0.6806090591191634
P 2.8296978788831577 6.00047250569474 3.213227816293672 1.4988114752454897 -0.8894741670881198 -0.7735477535314291
P 5.194564264646647 3.328577509069651 12.85826128802363 0.48712171915785785 -1.1539342387135612 0.722701360303523
P 2.963918239976091 1.6559395187377013 2.4843734863141025 0.5376693501984224 0.446376933140328 -0.5840355961677877
P 0.5026249252638437 4.3399188131906055 4.191409397853234 1.5261464156150166 0.6071683255305091 1.6239190410808164
P 2.9807841614247663 1.1860752272155317 9.436551891029557 -0.6842775091096861 -0.07996207964693972 -0.9206858168042337
P 4.392525975789755 2.9236000361379446 6.039092954064389 -2.069214054010875 0.7614699964312885 -2.218184028286096
Ni 3.10879957513421 3.8772176543300354 13.418213601227528 -0.27652677298198824 -0.8740994844042624 0.49208214848692666
Ni 4.3947028238973065 4.26158949239753 9.833145707916286 1.7962834830205774 0.18276352578589813 -1.4846562667910301
Ni 6.0151429734964825 5.717221774161774 7.360249978846184 -1.7784210009178598 -1.0593857766120143 -0.5939122318515514
Ni 4.62650923904242 1.7243427842711319 3.999239293527961 1.3935505118224452 -0.6800143629579578 0.626648802852624
Ni 2.010337832862762 1.949832618796472 5.558300698986921 0.4848429504260102 1.1247612166940306 -0.06975274321410568
Ni 8.672023299841284 3.0887893175301833 11.928455039131062 -2.0253255801580408 1.155891619550248 0.3110700581744965
Ni 2.5340837664316656 8.945543334278103 10.945141119533309 -0.6888047075560783 -0.5608028508920923 -1.9137147632575686
Ni 3.9765805373930805 5.172935325116492 1.632612823739051 0.44713180902848154 0.8865071140399958 -0.20607468970801282
Ni 1.5311149550320613 9.153227667616038 3.0011516453849043 0.6135965976543561 0.4338204366315561 -0.24069562221599192
Ni 8.596484809955324 5.209346365684675 10.429274631892167 1.9858966847384572 -0.8786678205012352 -0.6164451228467448
Ni 4.771558024054967 5.349874004627692 12.137930155634397 -1.198430007133091 0.6656899759154857 1.9655008946909245
Ni 4.171352626400756 1.4819591199880455 11.272703733932506 -2.2112068256373143 1.5431277806643617 2.226864072558597
Ni 8.061789516460834 3.4069998575596303 1.4955448848438897 0.3928028565686138 -0.31450350933607774 -0.12860220925214624
Ni 1.2041970225724095 2.003137489122401 11.447064615962498 0.9788027755516239 -2.5149081021515656 -0.2765326865192593
Ni 4.7140203935199105 2.904064219788128 1.515641658206037 0.6008601239242942 0.21445108669716617 0.23567348641105218
Ni 2.1549214793907887 4.34410505955128 6.377452362966251 -0.23518831924451752 -0.6669557300017868 -3.909015257808429
Ni 7.643174183163018 2.184048451291397 7.484273574081483 -0.2647914868229311 -1.4776893485548936 -0.5938605526780094
Ni 8.785814778694123 0.9959452202833604 13.246426795570866 0.5307212010153634 -0.6639894482846114 -1.4193577026935362
Ni 8.985554546716466 7.99690269787037 8.548274136311854 2.8835377039080856 -2.7496009698169033 2.8287680643663733
Ni 7.150592528056918 5.205262449790594 0.10999873965006714 -0.2801584561973046 0.3393493647351639 0.7061028325148936
Ni 3.7970370823685724 5.345641244418564 5.110322103438359 -0.269699979868142 0.22124445546991572 0.1468092191784762
Ni 2.7052361231954425 3.703786118992112 11.19056120784334 -0.7199317679781859 0.9559284420566119 -0.9544703694538464
Ni 8.757190156356796 0.7702116531921323 4.05545779132092 0.006371450743982575 -1.769733500446191 1.2983826709693445
Ni 0.4783633019113091 3.3154792093455834 7.706846990308885 0.13237504603101716 -1.8757120587615503 -1.1665789240607651
P 3.4520903822489464 -0.023663455261442604 4.5761431136616855 -2.3629186243237306 1.6653927348445705 1.029766925304317
P 2.820106723332367 5.927427158085805 13.066033997673626 -0.6588966071427362 1.203154923412586 -0.24166981320380315
P 7.3040696224089565 7.743541765352624 4.466497879259853 -1.2048256262467896 -1.2522743066470563 0.8479199977954172
P 0.5958870519639319 8.185860555821552 1.0415604211832141 -0.6017602671410603 0.45150834082962243 1.967694559908134
P 6.432372194110432 2.822404507445893 10.320405248482514 0.6635153368616701 -0.35922836304727807 0.8542166294374064
P -0.03715061075856863 0.14084021200461394 10.29456308455958 -0.32800360070504153 -0.11327869152119846 0.5559576069846489
P 6.65375950720231 0.8174148368781352 2.799288055042245 -0.8663308962024371 -0.3194289716621531 -0.8023968165526375
P 0.454400297465836 3.3186700593493867 0.11778887898879893 -1.8229946737631764 3.305423079664952 -0.9988527522239636
Ni 1.5158584127398231 8.970251490575775 5.6001138579143115 0.3240183908050484 -0.09044035347044424 -0.7678026235175357
Ni 1.1701860965843474 2.6536057514137834 3.2860982718324276 -1.2806572286651234 -3.8022854231493417 1.0691387422337202
Ni 3.000980474422601 7.535671376620882 1.6561134805309117 -0.5012010800690594 -0.2415453718107969 -0.45614841070479506
Ni 4.42611827714175 7.637983237675781 5.194465655287929 0.6055991812711764 -0.5080916365413056 1.405005290626606
Ni 7.1348150306620175 4.269106130307364 8.905000933690419 0.8005623344470599 -0.30548690765976416 -0.07069042453702663
Ni 1.4574835329326319 6.546256700660174 4.6021350521766315 -1.729217028389383 -0.22461311483183255 1.4189015889927241
Ni 0.9430775801328795 6.747540728451122 10.280430316845942 0.1588532948272038 0.3437400376036919 0.8492891102288018
Ni 4.6329653612075505 8.667037015287235 3.03026187230007 1.9226334059034373 -0.13638570985230705 -1.6043627162154435
Ni 6.764099658500014 4.648184692421027 11.529996016921409 0.36751605697736706 -1.5940970726233772 -0.20444409608312533
Ni 8.348286914615745 9.098341326442743 6.944512922490574 -1.3798866411821076 0.7944996731927478 -3.45561329950052
Ni 8.070738780902987 5.317435246717305 3.9962986880288294 -0.5676980353500287 2.6971653777250064 -0.19396479381835627
Ni 6.159670803406367 0.6340339893563414 11.655028032391145 1.9074494990741473 -0.9990098466271183 0.3596279124785419
Ni 2.0337901152522333 5.348794883343607 8.249508245489256 -0.4368018878573832 -0.8439245034827788 4.4934938550509065
Ni 4.1432675647054715 0.6319157486978396 0.8723728093780466 0.017395312658311977 -0.41197840105580014 0.6326962945982845
Ni 6.273592521034871 7.799218841949603 6.6259907396764985 0.47121867477435614 0.309063569267429 -0.17198469000283928
Ni 3.5944506668209697 0.9256451200100594 7.059740748983609 -0.1312213920425482 1.5742694963744888 -1.601896771173454
Ni 5.9458559448424655 4.464054971939157 5.105026036653621 -0.056414374233986715 -1.234130545858494 0.6695797978881952
Ni 7.345206469979857 8.282934957540762 1.5917792464600573 -0.6294093963168966 0.4119853430343356 -0.7166417843730045
Ni 7.14155953868755 9.187926998561188 8.980745014786535 -1.0698900185774476 0.6186213045624571 1.4611116467018708
Ni 1.1815168700672412 7.879129633590045 12.639962494468962 3.2810919591187555 0.8539325225380843 -1.385342522090356
Ni 0.9152734620822447 0.5949660777645834 8.355722618429272 1.7494904339264388 1.649967915649068 -0.30723474358880637
Ni 8.105847433714517 6.3739508004547885 6.230418366901777 1.1662341391268367 0.06517592247670065 0.42734279932701236
Ni 0.43104755471205236 5.351948522268648 12.47627654065869 1.552028168477785 -1.016300515386766 0.24351200861886446
Ni 3.2668443294042295 6.297630877914837 10.709741974733769 -0.574544625958217 1.1593955189384484 -0.6826068062754824
P 0.9670601203947025 3.752244246309349 9.720953375173224 0.707811330565568 -0.14829094593032527 2.3038231037131545
P 9.221705355306991 5.293787606164336 7.997688781909209 -2.516945701406885 1.4153385542318142 -0.18066319161344369
P 6.636065639251189 4.33240217528077 2.886495008950859 -3.009526386796785 1.3089475909693844 -1.6158036110625333
P 5.872112889506751 6.36035015116744 10.479624942564428 -0.3927588907045559 0.20840925137846042 0.45675390549927786
P 9.267428468335254 1.3125463811563707 5.895911234928705 0.7274247339211214 3.0881111264802232 2.1669267727730164
P 0.9110453532579629 7.421684539604544 6.831231235416769 -1.2943272699530484 -0.5638305819748225 0.4871772549861416
P 5.942423222826712 0.5191438534030676 7.291655076257132 0.06691116000025252 1.124028195182748 -0.12015716380858661
P 4.089264986652763 6.069266487555166 8.39567150231071 0.7897156215405432 0.14817653183964802 0.8275537754342394
