# total energy = -381173.8253156153 ev
CRYSTAL
PRIMVEC
9.15601491061472 0.00000000000000 0.00000000000000

0.00000000000000 9.15601491061472 0.00000000000000

0.00000000000000 0.00000000000000 13.40075332585563

PRIMCOORD
 96 1
Ni 6.051915387402215 7.7635683167282465 8.587363378193741 0.17391044627064242 -1.5107704473795787 0.12017361886881886
Ni 1.0741836905823166 7.634935460702071 0.022068743176019076 -0.058225973521428755 -1.4346205423898775 0.6496961715903907
Ni 0.7361069893288094 0.8931610318017683 3.4371589094861155 0.6202626968206222 -0.5857181260765332 -0.8329631193752687
Ni 8.900864419339065 7.321634936287259 11.435050711250927 0.034740231694662754 0.7898225794320527 -1.702346172140468
Ni 6.428960088886871 3.208826205124184 12.81240654235339 0.12418453980042485 0.8762604966113231 0.5098381869187671
Ni 0.11338717529664465 8.715052249063941 7.134360550401958 1.645527363379211 -0.9323203157193686 0.3278429067574612
Ni 6.949012590091993 5.412010648644053 9.475123276692795 -1.2330640522671925 -0.08316824528906322 0.13212462058310792
Ni 4.880330008272211 4.704754262869837 2.908499754094602 0.3435253504897245 -1.0548632061513123 0.8389795007726777
Ni 0.6856152285029891 0.5717171475642162 0.828107544573782 1.279260605427913 1.9615488520217117 -0.37154317585888913
Ni 5.021085428280069 7.280149031905837 10.564443691425048 -0.766873169724731 -1.6149019251838703 1.2824708848350947
Ni 5.283048176074569 4.143792686234082 10.618890850770573 0.19177729924873424 -1.6017502182932608 -1.4202285353342636
Ni 3.864149673297114 8.214566152110221 0.9061232023673785 -2.1302648985756085 3.8868176386654674 -1.597979438396919
Ni 8.70086958168658 1.863596999776198 7.586327092180655 -0.35443531253400895 0.5992909796649614 -0.37174963544274037
Ni 4.930797963458792 -0.14385473111646835 6.921864089742986 0.4286725738820295 1.5466545628706976 -0.32000541299091345
Ni 1.3877222713895179 8.423607132673508 5.013074830676161 -0.022049523600871705 -0.8870948682226657 0.24388044770187672
Ni 0.15842744473674464 2.7703263303426606 12.145786382760067 0.07106837670173567 1.3991336623371775 -0.2823636913787395
Ni 4.263470959500375 4.870002023248542 12.4499034240377 0.18258277723365976 1.5326785603065798 1.7747900890334918
Ni 6.619808067462542 2.3593219688821288 8.823337692751377 -0.5076113544707774 0.6631484404405547 -1.0560595404522588
Ni 7.202643364152859 5.322400728939577 11.836323144270274 0.7448897234751042 -0.025044601673453643 -0.1201517644919479
Ni 1.7041816210110368 0.13210298574600804 11.990070034092035 0.6569001455379977 1.3483554033430456 0.15372625801328363
Ni 8.28746634427197 0.34809612856857897 5.231372542497366 -0.5924261342243281 0.7150286742496137 -0.07510012356894807
Ni 6.6121902629060765 3.2308647334504 4.446799102881065 -0.12928200892799024 0.6326003924503686 0.46517349702154076
Ni 3.7349491443352396 7.507236518215269 8.288848902550848 0.27560169006455765 -0.4232416326744453 0.6551628511319169
Ni 4.954750098939217 1.0948762846900224 0.8945646489153574 -0.2527602666900099 1.6087451615538555 -0.5106560548343722
P 0.8104172078147119 8.629489288030088 9.520391530908682 -0.5066996412897854 -0.19416045476893012 -0.42800691527357254
Ni 4.908356570468533 6.786447542135217 1.9697362735260906 2.539106810884956 -2.825236139953715 2.4597106310438157
P 8.725892970932756 2.47063164435442 4.469727595874214 1.4087025369725352 1.4337317120270212 0.736301467585461
Ni 7.751757057259689 0.03446324080593113 8.727562112484012 -0.2687489288087823 1.8382163758089374 1.6015602137696416
P 3.193737092252724 6.9486555055034085 12.56368888599084 -0.09224886743409275 0.02624453551882577 -0.7710805229378591
P 6.569981033332394 1.8021052024189628 6.655939534218219 -0.1772953035824753 0.09635543340329857 -0.22734285505816976
P 6.265351255209617 5.388516313918225 0.45481314687077073 1.5568952667620992 -2.6144339628630457 1.5304162466349642
Ni 1.222575227176824 1.694027600274114 5.823926949207739 0.3879573555508544 -2.0503814946854044 -0.033678880309683926
Ni 4.3607169957915 2.5939814796725664 5.298081437253968 0.29747277910603603 -0.39026697752063755 0.5259286647227265
Ni 5.18616838038712 2.0288172921096272 3.03827253399972 -1.046782743136023 0.4081297167336713 -1.1784669337476028
Ni 4.290700948383701 -0.07422964555309373 11.978652483272429 -0.7749094097656462 0.20031927528147436 -0.19381361295247268
Ni 0.34888903947553795 5.467560192206642 10.193819187722836 -0.06525614089533278 -1.5396704182433807 -1.0647596393294179
Ni 6.607474915133746 1.6227388667685403 10.969763083115017 0.13457436767518113 0.07235264273079799 0.9485738014637534
Ni 5.670338458447066 5.998828811899348 7.018027885050246 0.596424970971076 0.5606308440906022 -0.026155832459761406
Ni 5.358063407722549 6.997429597897988 13.12908014272806 0.012010908417947056 1.462658165253384 -2.445775251909646
Ni 6.91949359743569 3.609584985696874 1.8567684437206553 -1.2649467599084023 0.3353276451702806 0.5272113880898921
Ni 3.737824133074098 3.3486019315172086 1.1740520095957632 1.7028758193916933 -0.3637126240708768 -0.7019443302618298
Ni 8.621889795503806 4.582530617407995 3.595850963059016 -0.6175620100600074 -0.6865719615708175 0.32081608181766685
Ni 4.426823424755055 2.393959173974806 12.13662029605156 -0.44994999520356693 -1.3622596721289637 -0.1387099871101095
Ni 3.1637419868116425 6.528733185343361 3.6314568745484173 -0.2869055451131511 -0.27452799738440464 1.0724914607560367
Ni 0.290176092698696 2.825079300592254 1.9933487208466047 0.05660206476476059 0.04590113340748869 1.4972266472568732
Ni 2.4452877945800267 7.506723781370122 10.657994360025082 -0.19901906841281208 -0.41740291450548117 -1.381015098359596
Ni 1.9906092411311067 3.3139464143943473 8.911674926358078 -1.3363943743264275 0.2355719278361814 0.1491610072401044
Ni 2.5575954756973354 9.029121878746475 6.911827265999239 -0.6465923358540865 -0.639903353869685 0.8525520972507898
Ni 8.330600331369935 6.978723859065226 8.844323279342024 1.686030208589264 0.7126848566077855 -1.217189032908149
Ni 8.561460095897232 4.425413398430901 8.247667893471984 0.8926613065668497 -0.2196128334037637 1.4061828558744751
Ni 8.528123044947606 4.580122585438824 0.5241159407029103 -0.19883266343361883 0.5842837076228518 -0.4852635829031966
Ni 6.791208669983007 7.86941185119067 4.134816129037978 1.2615197365047242 1.5005078891113062 -1.1185550878833186
Ni 2.9306481546019207 1.395797876700578 2.219781552076966 -0.6261045003133797 -0.7445639647045693 0.25568849608039834
Ni 7.554930200829003 1.5461945806002129 3.0787155682621745 -0.8279376411362191 -1.6632733745087227 -1.753968010081818
Ni 8.587234278380945 0.4849986974257637 12.058802408183949 -0.8520743862834228 -0.35452555825497006 -0.017366516302905574
Ni 1.582104471790665 6.751544812604874 8.111529851874975 -1.752154868132479 0.5088976773823687 0.3229547254272244
P 6.651506191710718 8.672394374750755 10.627414185219628 0.4187316606192337 -0.005043990181810669 0.630395928599882
Ni 7.050781697838519 4.128959941785196 6.640797316459226 -0.37354040879457606 -0.669823281357569 -0.7828039820223744
P 2.5851184570636025 1.5969189042093677 13.438677974639706 0.9873195547733835 0.7429333710796817 -0.6085484937074873
Ni 3.3735612286577417 0.4487024223984332 4.761140666211825 0.6310618443186552 0.4127235067519408 -1.3511705041943376
P 2.684076668176914 6.915043774101025 5.981841657099337 0.17374512433737171 -0.15562064682251908 -0.11686820864466971
P 4.826996220361864 5.659726636955548 8.978625539913107 0.11991805121458703 0.4488601045734979 0.5187809979343517
P 8.828541056128106 8.485977907479565 2.052687023454224 -1.1823120185253058 -2.0783468695500784 1.4891731808247772
Ni 8.860788541281796 6.2096185913451905 6.244617459033997 -0.3132074162324735 -0.3573218900531846 0.9305776219966488
Ni 6.445074675448624 -0.0013752334668041591 13.017318160110227 0.97827904183767 0.6174121147457045 -2.13462343265462
Ni 8.026794594605429 1.9886406978863471 0.5087906026420793 -1.457631401462754 -1.1222693035101123 -0.2005920693268868
Ni 2.747198236220508 6.212282991736934 1.1557143425696954 -0.4391207657985469 -0.409112906582547 -0.9588026782806132
Ni 7.386743359605797 6.366213917462045 2.3952373536816363 -0.9607261205555712 -0.6621871049685499 -1.2201933669521114
Ni 6.477377096692865 5.708866969953804 4.546473314374563 0.8484236769047131 -1.1192084051966014 0.6176705106134137
Ni 8.962264656545383 7.1413163750672775 4.076361381886728 -0.39092260882676544 0.3327866239159817 0.4239623128905537
Ni 7.075612810767766 7.895772018640265 6.572560282783784 0.4511686981020166 0.08353899836492064 -1.0401606098338152
Ni 0.5967615956451044 3.7111526611113783 6.540465703082129 -1.038233053793799 1.2682393146167448 -0.3429440240649578
Ni 5.847058705735929 0.7470877982285313 4.796438019992629 0.5761255972920917 -0.26445210120564133 1.1088337468304967
Ni 0.21779138418662114 1.6516901864891445 10.02669810665633 -0.7507441253733522 0.10896746574035428 -0.3148904603618512
Ni 2.9901347846540283 5.08985625763537 9.998731058558105 -0.05494935965268602 1.0922712144861253 0.23652323600585717
Ni 1.64671847029424 4.103442127724056 0.7743360991420412 -0.5500294144256721 0.215326547323584 -1.4960673368414492
Ni 2.461374913096504 1.0193391601818045 9.892932388569632 0.19090518105642607 -0.49770566532129124 -0.04059026271753655
Ni 4.754407332713239 3.8165658628644827 7.661022778901927 2.78137363424281 -2.6897760272394704 0.7219737381088792
Ni 3.2899576548535556 5.272811751201819 7.412291388516739 -3.525085021139097 1.5632664603957658 -0.5894683371475847
Ni 4.88239011166789 7.476600491717754 5.035829359382565 -2.096888122887376 -0.5754941343556799 1.4515983078947967
Ni 4.701870118115887 0.32303062165297936 9.376600891897857 0.2486835255174749 1.1527700432021306 0.5313706616739042
Ni 0.5277426382808139 6.25022551827779 2.203178034309305 1.425651249011732 -0.5667379854296045 -1.7250574976950548
Ni 3.3084894293995717 1.9081684812435926 7.678015427310994 0.17643629801628968 -0.5876415683514912 -1.8037579370207515
Ni 7.764905094931665 7.194009241921193 -0.009898567915858698 0.3238664386082164 -0.2061492516996901 1.3493889868138826
Ni 1.3608218990495005 5.137852088747136 4.837859832268409 1.261821584015859 1.4424644639143287 -0.0757153885554438
Ni 1.4125991643942242 5.531789638076357 12.0809938419622 0.5472284546417672 0.6847619049452723 1.993014526730161
Ni 4.391023405745706 4.935650651457502 5.396698129004352 -0.3353387009138741 0.27843350308639786 -1.5295001625785982
Ni 2.532205845847482 3.5828585776436026 11.809267119673693 -1.5583325134292583 -1.824895233219999 -0.3714940677885086
P 7.893830943440782 3.5341943574301267 10.334741247205368 0.4645628600207354 0.11440354915426103 0.5242363646219681
Ni 2.1527622684087477 8.178555544753758 2.411907710359468 -1.4230168967126782 1.1722991143739938 0.5661083222654058
P 4.069033823008676 2.500553501674766 9.564988649218334 0.7786742761247171 0.5135084366815027 1.1487218412746862
Ni 6.446521325833145 8.646977276855626 1.789121057417132 1.2875290160842923 0.09975366045157014 0.8694342177181091
P 2.660719673677464 4.685618191327755 2.58408108055369 -0.32282179939378597 -1.2726536416343566 1.5850938406835025
P 4.674374604794896 8.603898225848212 3.100733037753679 -0.8400151411260437 1.2741245697529284 0.7983972084749411
P 2.587764545425163 3.495940526376147 6.040416348048291 1.3635837902570258 0.1583007647578435 0.6622755509172982
Ni 2.0678127603860514 2.9762084856992406 3.9448333938884916 0.30949525748820894 0.19939367814341144 -0.9706786037825927
