# total energy = -340897.5456432882 ev
CRYSTAL
PRIMVEC
9.02494156610751 0.00000000000000 0.00000000000000

0.00000000000000 9.02494156610751 0.00000000000000

0.00000000000000 0.00000000000000 13.20891423707774

PRIMCOORD
 96 1
Ni 6.344931043380913 1.9621486533781924 11.28238092925525 -0.17320827799729524 0.34422186233611685 0.36905357666781596
Ni 4.473997474770461 0.4744781822585961 6.172816382096104 0.09734787922355492 -0.6744273557884836 -0.5510707112059928
Ni 2.706715360454803 1.5651865970302121 4.7360826813761445 0.10227616976310773 -0.2956046155490457 0.03918206951610026
Ni 3.312325041691017 4.3085522453292615 4.72530419362131 0.7227185866947038 -0.44221483134283845 0.15880521519808782
Ni 5.297270697554943 4.531432203123275 2.7486822413965726 -0.3758063220106173 -0.14014671955663607 -0.14176394344508486
Ni 7.25117055430924 6.116455621793884 2.5021379842289075 0.4854319901602607 0.18457126841859825 -0.3930041739461425
Ni 5.010819051119002 4.4290352157111075 11.429884574792398 0.6551649080144458 0.3004999959681341 -0.2358174681880842
Ni 5.732128483688196 7.680550200890298 12.293641880613501 -0.13915453084669585 0.08466205622577032 1.1186054815052802
Ni 1.9418154599497053 6.5664572599346815 0.45190319333626267 0.2865018819168292 -0.3507174973627895 -0.6640465267747919
Ni 2.8134352948941546 1.4976529590251664 0.39131785787031687 -0.29769672219138404 0.5078373544386544 0.8200937196117682
Ni 0.4831538586202493 -0.06622592396696861 4.469262990406242 1.0179804741923502 0.7063581430588094 1.230603506541842
Ni 8.70058520047366 2.2726517691824952 1.448965204072658 -0.49661140381584795 0.8863603040494864 -0.5055097347467423
Ni 6.737281354570458 0.8380488571746817 4.792841441602996 0.27965657686022155 -0.7540343660888498 0.3169856523279831
Ni 0.8131598732256886 7.322927864983851 2.4668703174380324 -0.17369138828130087 0.7777985583879831 -0.16649487053286166
Ni 7.6375463541585 3.9883292674199957 3.7580551749717603 0.24153148785372597 -0.48078343564465587 1.2358292737171555
Ni 7.682373239093829 3.762073981466969 12.524468299487756 0.9138289417834004 -0.4115405421874332 -0.1050061670997611
Ni 8.03947212838738 8.932282526212472 7.0339979695841 -0.7253588525310282 0.29663022860008265 -0.3949322442067908
Ni 6.740900356152713 0.8460187831030869 0.3093208484544885 0.9622363865525105 -0.7202546985352434 0.15719853283260024
Ni 1.8287780663892086 6.480097593748623 9.2003521715942 0.18891103344453272 0.5299848370699711 -0.2533135680903186
Ni 0.3270945684447514 4.849516269872953 1.3513243608845529 -0.826657488872215 0.1818063040789514 -0.11024813222499079
Ni 6.293687424966822 2.0762239152228776 7.02103995843247 0.4347311213712835 -0.5363321194442375 1.3502608478958746
Ni 3.5048360709955246 4.114543075718881 0.3883721169315427 -0.8599316775443125 0.8432436753656704 0.5750357066620226
Ni 5.974980637246631 5.81675536108674 4.840829763581378 0.6329508338112518 -0.6249205073076076 -0.4459848399082319
Ni 4.903061248395462 2.8718266670567423 9.330948491534842 1.3692024219953838 -0.02025823602840382 0.16536101403873457
P 0.26241642196246345 5.451191076570853 12.31558241614124 -0.23531456040973667 -0.30883242709322944 0.6132235305856536
P 4.030295245867605 5.988806847780338 12.625925790479192 -0.13123064801392884 0.9037239921389146 0.5786357653084551
P 2.5443566610413626 8.491296804731709 1.4461512272812678 -0.34588099520609467 -0.27871478177224257 0.01920151262911532
P 6.4382669894250375 7.941542487068024 5.802821753747974 -0.7263155600173427 -0.42261094106898184 -0.06154835302644239
P 4.763643950533382 1.1752098454818984 12.59656224048411 -0.07890844157144473 -0.8234613505324206 -0.0010680362531981606
P 3.9022854741899935 6.131121151896544 8.215165179017239 -0.21275672971387874 0.8107099644040231 0.050236527558048964
P 4.768066171918184 1.0575787566461685 3.7486764556593397 -0.4503356606777599 -0.5788985320515384 0.32449173089704114
P 0.2875535918055015 5.601050231866028 3.561149901601416 -0.8571078349422723 -0.7800163919749082 -0.20339765709648197
Ni 1.3815651352033163 1.007986702545176 2.458852559319139 0.6947390707626422 0.6565661592373466 0.8627817453985981
Ni 1.8520443658382275 6.305771821771413 4.749991921372587 1.0403261888774018 1.5760535848581052 0.9939224048018818
Ni 5.783065254087831 5.583099623020372 9.207088388005662 0.5546522579096641 0.4224607886443627 0.3881131644024283
Ni 8.53232418925275 2.4059411316970643 10.315369266569824 0.8534668957555753 0.39558093353438323 -0.4976079634011623
Ni 2.451778810091776 5.135236896039162 6.937955443553645 -1.0602815489534063 -0.13314637697940296 0.11605908247981302
Ni 0.3486650813668227 0.18292563882940951 9.131058669976836 0.8638531240859059 -0.65460543596655 0.4424521441646251
Ni 1.4360757824772006 1.0111905568137571 11.483896142795711 0.10266697744362319 0.24513951691995847 -0.7226489097990328
Ni 4.378387243442724 6.75841776780149 1.5740536021538198 -0.08500452716685361 0.2454591050429063 -0.7410040152674529
Ni 5.632601427705348 7.784878525805216 7.863966796542837 -0.2707263642501273 0.47687998682519167 1.0381204394753347
Ni 5.162889317106576 2.749466508821755 5.119537107628956 -0.6596044318430382 0.7245978059952877 -1.1959218959992564
Ni 0.6899983001764759 7.343342282886753 6.808732719724774 0.5017752074049746 0.18007312343792858 -0.2685784646691891
Ni 4.916057164301818 4.439188275012949 7.267214192994469 1.2876197760258856 0.8719225313576016 -0.936246133136336
Ni 8.052838066899405 7.0320088724550995 8.990383295255487 0.17059860828859005 0.892593686553708 0.5215649884373921
Ni 4.580753508976218 0.21286588259283853 10.475950052487743 -0.38434804093304126 0.461536928710218 -0.2266100906572033
Ni 8.105399326787335 7.168646488303875 4.551950407854595 -0.3414496989076184 0.047175372134221974 0.45749284054783146
Ni 7.227561307079359 6.1421676804169465 6.894339705781256 -0.05412840641328742 0.30989017893378246 -0.2234296360466926
Ni 2.472752774373979 5.375002519569838 2.584060086629442 0.22212865784708197 -0.8721742423570916 -0.3704237175424653
Ni 2.2505045624920794 5.215640100768142 11.447756666646118 0.045826828526127523 0.09243424397202145 0.8519602293030618
Ni 1.1253741179576617 3.475532085615011 3.839963739959893 -0.6078015882391339 -0.2554370421912246 -0.7282978805546941
Ni 3.748076297042831 2.6609679314761077 2.6794807941835446 -0.5803946569810906 0.38222508105276753 -0.4947674086285737
Ni 1.0514417963570557 3.281965138143112 8.072826507558709 -0.2107535832409209 0.9588507579097292 0.742599898999663
Ni 3.6119892026317544 2.697455770371524 7.113647591689343 -1.6130913543376928 -1.1430816122697733 -0.25836141492687115
Ni 4.209936708448179 6.894793660343819 6.065467409227119 -0.8698229685160955 0.44248222607161214 -0.34659061967860955
Ni 0.7956857812966001 7.358422960303088 11.45334400799169 0.5488719037824612 0.036062035829879824 -0.47288860627761137
P 0.19098671666799122 5.5460251629208495 7.849529597462698 0.7697697745462355 -0.16158046395037978 0.6316133459467509
P 8.383890974730635 1.8408714881354014 8.099811985441763 -0.4520688413187827 -0.6532921164717652 -0.27123827088953933
P 1.7138905598003762 3.149271421774251 10.479542881739354 -0.7552486981119252 -0.25616646415808136 -0.3101534598974981
P 4.124921758560764 6.172491484198446 3.8433715579086707 -0.9954671235811823 0.1753662048805625 -0.6315272139908479
P 6.845688953089315 3.913620800841649 10.226420344638257 -0.05912303141440141 0.2079441388165838 0.4235139124992254
P 6.246676504163897 7.695964801145893 10.176279574087884 0.4635336474252727 -0.2821168654752561 -0.35687940319912725
P 2.3355465872043 8.50564646187831 5.768478240977106 -0.03198580887797717 -0.009675061195918822 0.31919088750941804
P 7.222814187796898 4.058570387905532 1.650705138658999 -1.3009684294186497 -0.7185492858083625 -1.3317077674840354
Ni 5.416517250937367 2.9463907345694627 0.598594594129262 0.6529663577012303 -0.4103408654523772 -0.20846504431706034
Ni 1.358235661163086 1.1680620917334024 6.963144958057973 0.37125109853976707 -0.8201505409916328 -0.38649696895524405
Ni 6.814200931841205 0.642344803531515 9.260664051329616 -0.6127908139236091 0.11388058677125548 -0.735943827135726
Ni 2.660995006300913 1.530801569527977 9.268998584898728 -0.21849363219765597 -0.47157605811377495 -0.0898626265901033
Ni 6.426110393087633 1.9877433877604334 2.6022877611822675 0.34438846982096816 0.531724188358581 0.16860883155207088
Ni 4.083758999915699 6.810473630959729 10.560989369717483 -0.2936009548554556 -0.023496797570359534 -0.5458935378804276
Ni 8.106274746122693 7.105968268880511 0.09868954140221518 0.6359094022189435 -0.29963636241625813 0.09583041413776398
Ni 7.505312909811323 4.036035108726246 8.022777791412674 0.5787416947587001 -0.7047398907290959 0.9406270358128509
Ni 3.268039653251787 8.374414786048916 12.596588412814754 0.4793937543859808 -0.4753733203726781 -0.9878890541236084
Ni 9.22565630285687 4.957851668858997 9.993586778751796 -0.5266688853228608 -1.3068662829603235 0.30506884628573916
Ni 8.504599568652521 2.450605567683563 5.9053487003192044 0.07442880853353634 0.33466327211340424 -0.5437140137306056
Ni 3.5805553310332545 2.6464016757310667 11.513602640571658 -0.40026471216329773 -0.45204415872843434 -0.2680778708836867
Ni 1.345925640818454 3.213366557029073 12.755055557409568 -1.4034122351078735 0.43134163607376036 -0.582060731829604
Ni 2.9741153551696904 8.283641923419657 8.02121918399807 0.49200835782619784 0.4604334112333941 -0.19517295519384453
Ni 5.5768994881400475 7.866238374343969 3.374111596884141 0.8028855832635979 0.6623760810509044 1.0813841352599762
Ni 3.070916878788843 8.31019330161167 3.6560426500718224 0.5152961247095448 -0.10565331376545675 -0.17426217318310633
Ni 3.1767704188344372 4.381699397010524 9.511831786079801 0.5725144829020655 0.2444900562614176 -1.5400242020383734
Ni 7.330951038067706 5.986875510277588 11.22475035966968 -0.15882218447895227 -0.5154210803231833 -0.07095499105232296
Ni 0.5777939087258103 8.95995299716309 0.3099950115921308 0.02742338631827535 0.12407449658512182 0.34840016208352254
Ni 4.667528322475953 0.3954034489333777 1.5828637501453375 -0.14027527471470036 -0.616271573383358 0.0281720915588418
Ni 6.148430989888482 5.336023796792371 0.2177700358591678 -0.7433928272146035 1.2614107217306856 0.7427071140014887
Ni 8.007171862395124 8.759093896877069 11.244286650754743 -0.6765426023592737 0.6050960163825129 0.4328120499716998
Ni 9.071149302636853 4.919026370088757 5.745692970915455 -0.09000095194018048 -0.5371836688112555 -0.04119087241601293
Ni 8.00432900579061 8.952390096100919 2.513326204332456 -0.3705640997750715 -0.17129383458340178 -0.34857782531196746
P 8.46461005241567 1.7759641081364317 3.7160377543570213 0.0359638196891187 -0.32155887352096235 -0.3061600224673888
P 1.784348278884352 3.253049225251469 1.7020344940183063 1.5256041699583018 -0.9432431332794594 -0.12051429003768922
P 4.639984200707758 1.043914995061291 8.28316450400893 0.31290299761817725 -0.703258421087563 -0.1977800537993884
P 8.535771716944573 1.6246609621849966 12.435598797042282 -0.3605403969904823 -0.4355528459416306 0.20736281239181706
P 6.521134003211264 7.800654123724876 1.283293448597257 -1.314710718705407 0.4494427165498453 0.46448778380842587
P 1.7142876572308483 3.1510132355033664 5.899788433798436 0.5984952232365436 0.1741567579534936 1.0077477407207482
P 6.745078904114271 4.064644173603433 5.958858481569467 0.15404841723939275 0.09252680368582775 -0.4394925473156689
P 2.371393655246 8.393394238237157 10.29571474874978 0.06379549718940626 0.45193565817502807 -0.33477408665965575
