# total energy = -340861.27015943 ev
CRYSTAL
PRIMVEC
9.41172703699094 0.00000000000000 0.00000000000000

0.00000000000000 9.41172703699094 0.00000000000000

0.00000000000000 0.00000000000000 13.77501387058784

PRIMCOORD
 96 1
Ni 1.7836633947252671 9.04120588978035 7.101350183801814 0.5513437623617214 -0.39549968667448665 0.13611960067511394
Ni 0.9025968304174671 8.741075335500245 5.0617668800244315 -1.1768522809623152 0.08533722791592399 -0.7556222794012599
Ni 8.3229499629753 6.281301726349317 2.633396438342255 -0.26449580995938315 -0.5649526113944077 -0.11270404996465107
Ni 3.7454719533444734 3.557623299172922 5.814557255787427 -0.8004188668906602 1.1451480078804988 0.692617139323633
Ni 9.174579469532093 4.215493587160161 3.8161474330163223 -1.4476681196024552 -0.585301607364405 0.4427208244449795
Ni 3.144947316435309 2.9811926827396915 13.179023554913192 0.00725282490767138 -0.7983105622984058 -0.6339610202433211
Ni 2.8755931086225104 6.543728903275284 6.226553711853806 0.35570260928220676 0.8391052277172646 0.0582722533783319
Ni 2.427905502380805 5.658254827331202 2.062188389081718 -1.5126715210570334 1.662150573758189 3.3446660843259752
Ni 1.271505460256941 4.3543447918794795 6.7815491206175285 -0.38956660901950324 -0.5980720196561957 -0.47728467846277806
Ni 4.322043745678931 1.00323360102021 1.738200048667064 0.02401127531293284 -0.3336970515453931 0.8898917142415126
Ni 0.4874747398979415 3.668916967972892 13.283824073429434 -3.4289355330990174 -0.92119412389922 0.7555631440285504
Ni 0.42530934355200656 6.7769609038276775 6.746492320825044 -0.4442578299147962 -0.2992476116182718 0.37814216923264554
Ni 4.264980446403309 5.246331782733462 0.9255153262225247 1.9289182104708846 -0.05834707248032532 -0.16898035595887673
Ni 1.567824265203939 3.205700012596307 10.082828041861983 1.634581663000985 0.13999810979391372 0.12402950227979931
Ni 6.021274539744195 3.901424265565658 7.544987924023678 -2.9366235279894717 -0.02410460635768752 -0.4155717748340133
Ni 6.249132444323246 1.7780445938564655 12.120138413629624 1.1982896249004849 0.6333676096336962 0.016003574517107926
Ni 4.066797716262002 7.830349596690175 1.5786166922663427 -0.9094138434348401 -1.2069969228664954 0.38655147634226333
Ni 6.911021539632056 3.079065229196426 9.932170767109454 -0.5042558077349831 0.12750923329828362 -0.6110542908484766
Ni 2.0725657589945166 1.9985142929380124 1.3477046823574328 -0.6147096282128769 0.13132500749994802 0.29277280252720544
Ni 4.451812634086033 3.2198552496259185 10.567115971082913 -0.42873890834359063 -0.8871565746985366 -0.07051198997763339
Ni 7.0805173266442045 8.738910638348111 11.663000492559839 0.3246169436209958 0.9155603226522103 -0.5969646455246299
Ni 6.890400446326285 5.114087610191528 4.44916417417903 0.23936044834433612 1.0480132731090144 -1.1472871657106887
Ni 2.5802531232573473 1.0240711640411941 9.66424620058974 0.03302633432734957 0.34630728411023587 1.4106959132534802
Ni 5.342321983840515 5.288270437124385 9.591348612232592 0.3705946959026908 0.6308471572046878 1.516589625164517
P 5.262849363176925 5.205362536197626 5.69386033079312 -1.4926940494938423 -0.16956528192806924 1.8514251611897274
P 0.4421440991868908 4.469007858855381 1.8261949879013404 0.22856644305262572 0.1167684498420118 -1.0926977605005825
P 6.561215891573833 4.886860291304621 11.402294720456155 -0.4176849645222742 -0.6649921785175128 -0.17125166849155668
P 8.54139614080594 4.921749562360984 5.778810576424284 1.6742818098040841 0.8041263976492344 0.4720771661199096
P 6.028154511997284 8.724378932248563 1.524728909595636 0.2910445069821891 0.5801948822654589 0.5448229305240682
P 8.519165642226191 7.914057494390549 8.758305383658563 1.0587568847787638 1.8394983278451544 0.8734942467200957
P 5.278924592463213 7.760119291693526 9.772228823919619 0.06059113131949565 -0.753751030520476 -0.9927877769768064
P 2.31776947597089 7.055632721121404 0.18493478357024334 0.8787123005859254 0.2898173194433073 -0.4275364033950573
Ni 8.934373379459128 1.6465533594544037 10.81422556272584 0.5143651282548432 -0.13343665452631212 2.29162013388906
Ni 8.535250283239227 2.2953036842224313 2.2186997578717573 1.627290014435578 -0.6059473086392145 -0.22129279220934792
Ni 7.096893731186442 0.5522707138700576 3.0695960909148488 -0.42587855607666003 -0.20909316481936246 -0.7087883497668567
Ni 0.5020224459329616 1.4700928946484306 13.078989134822347 0.4292050493467318 -1.367733036538709 0.5225875161646354
Ni 8.04744989759579 8.081953287855468 0.9662521031076756 1.1566449527765048 1.689820785979948 1.0477834164863953
Ni 4.626691928798273 0.21157373495894818 4.340699670439633 0.2538954087357176 -0.8350994489919812 0.15263482472131776
Ni 2.1015632891063736 4.883340305500715 13.762698377424677 2.4554657397245325 2.368022521209199 1.603282338667071
Ni 2.2194169314499863 9.013723647674988 11.855740421122539 2.266790990660522 0.4151321161934334 1.01083846383093
Ni 5.802000129959697 7.646896218910132 6.275056104479071 -0.21579114566482835 0.1854351590807903 -1.9186322551638442
Ni 2.259925003375151 9.18248532000076 0.48535710137954885 2.637817117673676 -0.24356240224082568 -0.4340011851837945
Ni 5.305333897719256 3.909499527115795 13.089926502476677 2.1733105648121733 -0.07202431285710176 -0.28332811217453785
Ni 7.587207047871703 4.206684210923647 1.1857533355068113 0.20419161375268707 0.40035727187710407 -0.2922004749635032
Ni 0.44501091115445707 5.247724718292227 8.894594716356965 -0.3809135613301956 0.6979213251453658 -0.3595217259179808
Ni 5.275301077665074 0.3668352264367987 10.699466496137104 -1.3843361923130288 -0.6581139633404408 -2.617032062607525
Ni 3.146396722354564 4.241733481334732 8.243312637093615 0.847571613317063 0.3825708944279605 0.39748714941816055
Ni 4.9060790373248775 9.158099535995625 13.524459338242126 0.0025078540235182615 0.9202003925273828 -1.7127995062633083
Ni 1.214009221550893 8.3164370480654 9.985493846175258 -0.9583301095195688 -0.6108087504965739 -1.862653168695063
Ni 0.3118189777289574 0.8031562902844471 8.3619154528864 -0.7374350669692719 1.0958661309262352 0.5647618355398403
Ni 7.53899077173959 0.5724861617529714 9.534637311537361 -0.8963294994470563 -1.0364906171813957 -1.10767263664286
Ni 2.627499991534375 -0.09906971809913256 3.0672685708899663 -0.1417963393449171 -0.37303133036864145 -0.17502116283631794
Ni 6.325988604950777 2.790473451909874 2.986671248879942 0.6331565220641547 1.2980214309751839 -1.33083282107825
Ni 8.141463636085676 6.232087807181872 10.487909702286302 -1.1598853140906733 2.328165022892629 -0.1303950394865109
Ni 6.556566498560118 6.42499997034407 0.38716173269534376 -1.3335247660881162 -0.6381470333002106 -0.15558979358458364
Ni 4.709148066841109 6.122761189272319 7.6095514283451084 -0.11942491362825239 0.22282851212758398 0.12410097894768304
P 6.162553969964605 5.640861956300138 2.4396099257651302 0.7110210957521174 -0.5934792580791908 -1.8255377519000044
P 7.958800843352499 7.2822012191359216 12.74026203031968 2.1139242524340562 -2.067116548051898 -0.03668090036080134
P 2.215200477866698 2.3593881316523673 8.064333594209765 -0.8855126113372105 -0.2774282017503351 -1.3747261800270907
P 0.4378852928332344 0.21563583622356272 1.1098901120512377 -2.511407030976842 0.3621157118974022 1.7349099650091022
P 5.461455621021911 1.9231640085902273 8.50160806597703 0.4506133398191788 0.8896418030142357 0.724670825325068
P 0.3287977327830923 1.6861296704314757 3.9466240832749055 0.020660356562828934 0.06471698056241112 0.4134159048332751
P 4.012247348028207 1.4188178073230828 11.987705065380046 -0.977125387849201 -0.21296241796678161 0.4955168852000886
P 4.520320593087723 3.119432125220364 1.5452257681083272 -0.061230564675707456 0.07252927751797832 -0.2935878422293331
Ni 8.182065825278325 8.667315632972942 6.626318687837948 0.3253923883344396 0.6789998056505145 0.4331966870046281
Ni 6.00909576533175 9.373232786010822 7.832101119038054 -0.6252737768819683 -1.1850957519180298 0.47223914561907054
Ni 7.400939563793885 6.5326230657121584 7.794770446063154 -0.8482498703310101 -1.6569384334296302 -0.6323898191014593
Ni 4.485497204118599 4.809797072688625 3.5638849209786403 -0.6011290613149647 0.9218225015118382 -0.024756895229705752
Ni 1.7985715698947515 3.3860945791831165 3.347204383086004 1.4784799627769891 -0.32018307621935826 0.13507547568131575
Ni 7.621908084393097 8.004155954553095 4.359033714145538 0.9128640067669699 -0.5199418510116722 0.13321502543380928
Ni 1.4395612530765827 5.582876307803173 4.703092561851181 0.09805956057859887 0.8454846488810471 -1.1669409353858742
Ni 5.3986794036100045 7.256187206403311 3.6131449576071533 1.4763305205341541 0.6120482793306298 0.40211179267436553
Ni 8.909959360273746 4.204933629748442 10.932236380906149 0.03731236329721316 0.3443223924697231 3.5198944780770924
Ni 8.136607185083495 4.098430529863414 7.66266839059512 1.8181268041479142 -0.6952432640925704 0.21347329616492913
Ni 2.2175063509200585 1.3651992000373805 4.947048283860715 1.315933278258598 0.3464512658872679 0.2383821435914669
Ni 0.7103161941200883 7.881624684015522 2.9460069422907535 -0.39258714101338194 -0.3476270313629239 -1.2377714850451909
Ni 7.522821425185818 2.8787930957169707 4.939981959418007 0.25287879454574513 -1.0095853081501194 0.6925487479795427
Ni 4.414655136883303 2.5308227343746887 3.902434143845762 -2.3236195696137916 -1.310436259699769 -0.18690043077240717
Ni 2.4025220753403387 5.732343940294701 10.083916037474099 0.9570589561166292 0.5533420237386728 -0.7229435582213162
Ni 7.4575793353658275 1.720350708888701 7.0154625301865075 0.37865844674743177 -0.2557286052897144 1.1571614874016072
Ni 6.352275557759091 1.7933762967296283 0.68348994936909 0.4652550009917536 0.4608856682794643 0.6138645066037621
Ni 3.715072075947104 8.9117193531757 8.514088015645422 1.0034339438367428 -1.8045549790007502 0.3749375462524188
Ni 4.806164146163739 7.497353292604616 11.826344774969225 0.20664830282329574 -0.2721674675720281 -0.11569475716185881
Ni 0.20404529473289354 2.1043303367704067 6.104521262833898 0.5606611831079054 -0.03022306055059956 0.4172795015537394
Ni 0.8998062534365631 6.581846396606352 11.817790456527593 -0.4901669337420848 0.6171079532417243 0.8704598307691459
Ni 0.33831581204376115 6.33954149146849 0.5907966761420066 -1.3639429733686574 0.3120995278802754 0.127160077488981
Ni 5.214708380858799 1.6661391628178488 6.173975100373802 -0.8065972277872302 0.39346594407390945 0.34034926675458804
Ni 3.8044175979697767 5.375893613152099 11.886445238466557 0.5910230832292144 -0.44107968929713065 0.7750050548032459
P 1.7316824278937888 4.521685293466242 11.808630022883364 0.11278735370707674 -0.08654641773267675 -2.3826191880764513
P 2.1231726137207274 7.0878302383277205 8.349751737236755 0.25694910796037684 -0.38037800054169973 -0.7804331677973527
P 7.820900223034769 3.131385018190847 13.026919697759434 -0.8501913103280971 -1.0390601776807848 -0.06838131678787578
P 0.14497918000521062 9.198927606630235 11.765156315859775 -1.1673615678630604 -0.4739643558402934 -0.4639604505500461
P 3.858064440435724 8.884839461582235 6.303901164617604 0.3415520288134376 0.1879242440512312 -0.1298589644773828
P 6.74844337177999 0.4428838609093159 5.231598665681498 0.7169737137911264 -0.14034058073499703 0.5071040758170557
P 9.068236369001788 3.0326842397802527 9.321137937285688 -0.9710334160188503 -0.7350547396625534 -4.082595831543478
P 3.3628382023877905 7.158691129016513 3.7760205360244687 -3.266400161434536 -0.10256156221401047 -0.18376651312911577
