# total energy = -340886.6445049477 ev
CRYSTAL
PRIMVEC
9.09384940751793 0.00000000000000 0.00000000000000

0.00000000000000 9.09384940751793 0.00000000000000

0.00000000000000 0.00000000000000 13.30976782829300

PRIMCOORD
 96 1
Ni 6.92403879889356 1.954068186452618 11.439945322824059 -0.29399279097723563 1.26712191318285 -0.05057874138881612
Ni 4.979464591287806 0.34667845765691524 5.67195759090197 -0.20768728561077135 3.1160158233102915 1.2618223553468075
Ni 3.2648283675354692 1.814877726462094 4.864706576668807 -0.6394158727103052 -0.027630617233074996 -0.5793268778382088
Ni 3.297829947262741 4.49059743147005 4.625583804850511 1.6455975544955144 -0.8659444593972958 -1.4255805436747964
Ni 3.7699280486574906 2.6757469865563666 2.5498189966331486 -0.173791661304591 0.11000901963099119 1.3298959110862774
Ni 5.080288100363655 4.672147042292656 2.01971759516277 -1.250978213543452 -0.18926995944584823 2.2174368657074264
Ni 5.672606891754141 3.4008996371577225 -0.02976416931588817 0.016739681352184073 -1.4705447670903125 -0.03114094437917863
Ni 5.539245589274 8.310059678191594 12.28795042345782 1.414026777398926 -0.5059594206896512 0.11128145858551158
Ni 2.0065760732934175 6.761568084259383 0.15279485879790805 -0.5847413639855608 -0.810293702802211 0.1931752080375254
Ni 0.8732150701349842 0.1835829955641381 0.1648323873415809 -0.5050775323053301 -0.2343768790868157 -0.007833122891173607
Ni 8.292799551897197 8.8035465135402 7.066594892572995 0.24234498489395684 1.0214658616377892 0.15190386009256418
Ni 8.506932425371447 2.293323334787028 1.2534061818593945 -0.008847165977984763 0.8144918000439586 0.8681026433908791
Ni 7.232065668147383 0.9381396990423634 5.167663624843006 -1.1256053098618808 -0.5137020407495476 -1.1490992792187629
Ni 0.854106164243302 7.894197941920415 2.672840592265698 0.7938214161788006 -1.0666262602245113 -0.573369117592877
Ni 8.295718677577124 4.195647517754341 3.774876012154214 -1.5647309607564341 -0.5263140730866033 0.008678758720920537
Ni 7.91555939432586 4.109974361895806 12.54396411128202 -0.29120931469482747 -1.1073772168896283 -0.30186653729835755
Ni 8.390822155336231 7.356696875136154 9.165824560578255 0.5044566108918795 0.2273803931643245 0.288579076160832
Ni 7.552460172680647 0.5049287167519823 -0.11737340572662298 -1.4625897739092941 0.4031289210849703 0.9069224444715542
Ni 2.1222043693067136 6.685734473527581 9.03771859370693 0.9522036849068568 0.508726184801511 -0.767913180953471
Ni 0.3028260967418294 4.776171586382008 1.1868610289764299 -0.2621674189365227 0.38821472297729914 1.3071244217177165
Ni 6.700466509669267 2.3922916985709604 7.050250516920247 0.22199290360016607 -0.3262524223418897 0.2781182858388242
Ni 3.659301369852792 4.669891767624053 -0.0059028176910916625 -0.49049114985072306 -0.8076837759831896 1.1816515021231715
Ni 6.158227547311044 5.5606343232278554 4.153192881502821 -0.02339523899548874 -0.1322395488944174 1.4223381254780987
Ni 5.254498974663829 3.316254086289318 9.230882869072847 1.0282600017414874 -0.7293695163523181 0.13128386984936746
P 0.04396694341841006 5.824983433476421 12.29669506910834 2.0141119708304083 0.2577659474347173 1.0240590762862622
P 4.290278115340999 6.594423130997537 12.603125967780148 -2.0663426460003507 -0.12239530911048599 -1.5439111957976055
P 2.572004351800591 8.593815063209515 1.381726763578216 -0.5307068028376603 0.6952694893448155 1.0546156089168806
P 6.618494550545094 8.057550759953198 5.6627073272209065 1.0674245877560908 -1.7140531761647513 0.6295857739937608
P 5.100240006101223 1.2978923840825516 12.627682089504468 -0.5803074965839232 1.254509366625162 0.17603212059933554
P 4.192073634912561 6.485124154215484 7.826995303720757 0.9400138277088842 0.8875448112758909 0.7734073712988229
P 5.229627296362895 1.181409266219059 3.7185896308585558 -1.2927257297938834 -0.40520894354245046 0.9127745323769572
P 0.5905700441373709 5.849673234787951 3.685767199965847 -0.2369883485677338 -0.709304884391959 -1.7333547047068407
Ni 0.7050070458700738 0.4765804597986006 4.430156070351468 -0.48456090040921707 -0.5981851481952923 1.643677968875298
Ni 2.1125012319220353 6.915508768090534 4.736666994898613 0.4156841320421616 -0.6672668334843025 -0.8113221440667253
Ni 6.3927215497490195 5.863304915143744 9.035468775348008 -0.28918817049974066 -0.6096435265438791 0.3900525475169863
Ni 8.942509627293969 2.7479248698011585 9.866011866229137 0.3834049602934816 -0.41154774127628474 2.1465644070665806
Ni 2.8922624485918025 5.3497661417134 6.601525427433745 -0.8950033244364651 1.1541599815711219 1.6186660202119931
Ni 1.092816984680598 -0.04068770129946436 9.031396549555263 0.11191086463939434 0.43226414788802975 -0.33137997337644215
Ni 1.6817801456165886 1.480415036798467 11.300139209224403 -0.304072800921057 -0.4744099280181442 -0.31000253614193063
Ni 4.058430423098845 6.924347989775546 1.5520782081632472 0.5892636773359464 1.0096770965329773 0.6979583490308883
Ni 5.903963516124905 8.270392306802682 7.984796326651997 -0.34656953663268697 -0.0944463893060438 -0.3674618067006639
Ni 5.451653631177258 3.2868263894038265 5.206780818338971 -0.07990268716391401 -1.1501940549448384 -1.9452357166839855
Ni 1.2397463105702422 7.4919951675534415 6.764050705164743 -0.4920317548649655 0.06384563370105134 1.6419031363630625
Ni 5.548075717109542 4.949509451133045 6.798070796032673 -0.9506653938854595 0.8109225946354613 0.9842604562320855
Ni 1.3784002334420253 7.343701764243272 11.153838268333148 -1.785853288826189 1.1727943088428576 0.9951897015500796
Ni 4.836727530003913 0.7240895795982925 10.35888577612345 -0.174443435955977 -0.7881883862627393 -0.04710029592191243
Ni 8.597034285921957 7.171637038418059 4.906512821453102 -0.7540104548294498 1.4289016376282295 -0.3166264692163515
Ni 7.5622906239579075 6.5235729497753905 7.01219821319724 -0.14261009349546408 -1.293651326931946 -0.6031730883281871
Ni 2.468934661905609 5.307961715698997 2.553305578520014 -0.334012783013599 1.22559679735587 -0.14610499402259997
Ni 2.796295055133028 5.528669442340185 11.229118063632217 -0.21639586912836284 -0.7612601944133276 -0.09843288475761756
Ni 1.3625951230628583 3.326075443717109 3.6760376904177052 -0.057976062294151774 -0.15354730923325813 0.004181127960883122
Ni 1.5309222767558281 1.3038579493349876 2.5082255479264544 0.29387323468023585 -0.3607746244884754 -1.5983360504053892
Ni 1.3711251538658842 3.6898748917715256 8.075808481534471 0.696639887329781 -0.43012421872689155 -0.5517661946111208
Ni 3.7706828381635153 3.1108694960053787 6.967822955937619 -0.0394242674338934 0.34569510444753365 0.008707040855694681
Ni 4.394402691774522 7.398474019602146 5.731877874445911 -0.3913242151405583 -3.15004308809833 0.6299426431125474
Ni 8.154182004423294 7.420053724394874 -0.14168944982492832 0.7681463800101996 0.7960726741068226 2.209006732662202
P 0.450348341616929 5.757652571999232 8.155094117525154 -0.29076965605424765 1.1900106727211441 -1.7223349565575692
P 8.795962243082071 1.665993222936362 8.06209950345818 -0.27112617079170725 -0.4407973821700215 -0.6399681456693495
P 2.074252501050472 3.538380453447853 10.179284067857358 -0.9672433528487987 -0.1995841968876627 1.0110549507171105
P 4.1813065171398724 6.318061045598869 3.7946551347518485 -0.10611739788606887 0.06761101428075453 -1.117280077825637
P 7.1068797363409315 4.035577579380291 10.21293131089701 -0.33997234303114354 0.31787191158767836 0.45330374216714836
P 6.51276945660482 8.096936222008534 10.101568030285227 0.47673677637910794 0.2252350646865476 0.5288833764756762
P 2.512003132996366 8.95083049955918 5.676137124118463 0.7663882596685123 -0.5392680621441099 -0.0674930006456515
P 7.110462713032181 4.220219099022758 1.5448249538258343 0.9689978736460602 0.10569625118825021 -0.5518183880052948
Ni 2.889216009019293 1.7846861462211077 13.801563467132112 0.32196845025455517 0.11760945768606841 -1.5912089524423048
Ni 1.5077875237036988 1.3362229595993462 6.877330059859892 1.3063158097734924 -0.18748689940349647 0.5428804620857166
Ni 6.98328522819176 1.2544874405613984 9.200230230663722 -0.3474930768882209 -0.8948076634858911 -0.6000031752406375
Ni 2.971888194552669 1.8214980488763828 9.03421837104586 0.053141102799353634 0.05817429434788691 0.1684728201948389
Ni 6.070844747752116 2.415080885343223 2.3514630426047085 2.5080874796853063 1.0337349088131296 -0.6445475375099157
Ni 4.409653077336007 6.816740468994945 10.050218699866928 0.5917147099796003 1.8329034482364561 0.025186526567956623
Ni 7.162597752044704 6.362293529421808 11.476719940696505 -0.9737981232481809 -0.6192453112997013 -2.113243424316947
Ni 8.169777956264648 4.094378410054453 8.023301504078619 -1.5365853515601537 0.4177788097876612 0.21961823272040243
Ni 3.099674967307591 8.79891774415988 12.562264573955803 1.0932351210612916 -0.1904387829429688 -1.0648524561535402
Ni 0.3153728808558321 5.2072564266662615 10.25750572346003 -0.08129776773922773 -0.9282127213088981 0.14478241855643453
Ni 8.803191853410862 2.369302447110354 5.892819912984151 0.9121083595478678 2.4143432586526097 -0.7194748829464255
Ni 3.7128186739847813 2.7309466528403386 11.285138904523347 1.2139448149392382 0.5671185086974749 1.1681213288472205
Ni 1.4505781166868175 3.9663188218154257 12.613054632631687 -0.47436159127871214 -0.8427363967119486 -1.0621509980619774
Ni 3.4767332478895256 8.823298354589424 7.905136933448091 -0.03849455653077242 -0.6403427553999488 -0.4651557564097279
Ni 5.987154051078081 8.02464011872063 3.3541417913369154 -0.9474661702218714 0.012743929929229663 1.2635961594177787
Ni 3.4365202455324044 8.572271733814667 3.6200968754019134 0.3529520431202631 0.5869360576440343 -0.6964583674465942
Ni 3.4612918914891657 4.688479595941094 8.984465920594523 0.501554092533104 0.009340560674635526 -0.23373898839250068
Ni 5.1664977933409295 4.8131289906288055 11.325880259534685 0.8705670457709718 -0.3354271468626223 -0.4609198639515094
Ni 7.9865550771395295 -0.033482644364243405 2.4184246937934066 0.31420140471462665 0.8783127511546615 -0.16630820844335228
Ni 4.668827787236042 0.5362588469466348 1.5594123977609446 0.29371999693182316 -1.1486079414046413 -0.48803960298643695
Ni 5.936810500411183 5.854402036512442 13.658882787714935 2.299666915452936 1.5060799838824448 -0.8355442498388835
Ni 8.581947589650936 0.029752347311576943 10.824408114966317 -0.6446701791307091 0.3472886741868987 0.8189004706346156
Ni 0.4947181425668679 5.09190094613707 5.960379939467986 -0.48414720991056615 -0.4633621548444149 -0.3102550184723689
Ni 7.63906090118514 6.185099872495416 2.3842318197855428 0.4600220347275884 1.0205605762147005 -0.23338777570066901
P 8.266918456305074 1.8721507904252666 3.583282244591797 1.3729354066752548 0.5671660741059588 -1.240351329957225
P 2.192645327302702 3.5335425255297195 1.4578459211833825 -1.1261223587076155 -0.02205723691035556 -1.0431518312516552
P 4.9350138550775835 1.59948990176096 7.853814884578202 -0.29674875645581794 -2.1363280740505535 1.038611005958508
P 9.026736861086745 1.9820135858744707 12.437951651698487 -0.39286790547859435 -0.04261834889115886 -0.6321627906923177
P 6.413291837250559 8.060006099310145 1.2595672648754392 0.5932306324034945 -1.1004272679343563 -1.0037432475470456
P 1.914237125773244 3.3168360926554095 5.812668542523908 -0.4661014081524489 -0.36853035717449434 0.7387794968123084
P 7.377358101132396 4.233923530174314 5.97363695322561 -0.11202013652374902 0.546622188516336 -1.654036686401803
P 2.8814771431201724 8.605509753628162 10.245127175561224 -0.14416432535646143 1.0933958150088718 -0.6725447940537901
