# total energy = -381161.36141879176 ev
CRYSTAL
PRIMVEC
9.31043100198045 0.00000000000000 0.00000000000000
0.00000000000000 9.31043100198045 0.00000000000000
0.00000000000000 0.00000000000000 13.62675688419059
PRIMCOORD
 96 1
Ni 4.337357440636876 2.3538911265490428 5.792584341683869 -0.7874270826166826 -0.026202112316664552 0.5703784103956693
Ni 2.353555951028794 0.15643479468794244 0.27035257463237317 -0.7805380688063331 -0.2532536613866606 -0.7297086448592917
Ni 4.901811637597447 0.17274201479113974 6.402627064613784 0.7511056224778291 0.6161841558758743 -0.8320928009551734
Ni 6.538352667365933 4.216684942916328 1.7646236996158597 -0.9800387048412542 0.6359371701330854 1.4253861682758031
Ni 8.694983689817665 0.392019426396325 13.398413316368078 -1.8378872746042927 0.30428774514534046 -1.8128089914794263
Ni 0.01716564185227796 2.423104871480341 10.557588504433255 0.6474595689503881 0.7668086350353827 0.30735327144454166
Ni 3.6186852626375625 1.4666442827270108 12.439007838252122 0.7048954424703537 0.027099941540585586 -0.77952016906478
Ni 0.9684617344644469 7.257043466227483 1.6063761639892404 1.0987275116344302 -2.0159155996980505 -0.7592074256493571
Ni 6.290862787386949 7.530937728857148 3.017658761202331 -0.2692729196330524 1.1710318176257961 -0.5593501776059656
Ni 7.458651541656906 2.3570008105424587 11.64857458136762 -1.1545024525122052 -1.8226185213706807 1.0720628578590505
Ni 3.801672475830962 4.822328487142982 6.841354130799838 -0.5676977782397126 -0.9891414384734707 -0.8678725296579439
Ni 5.885393512197545 8.957603020363416 10.69734459281639 -1.4689630244254894 0.7868406139855932 2.091799395510559
Ni 8.310267365590308 8.863725943400507 3.211090416023916 -2.724777740125636 -0.11722122110871426 0.7715466639410002
Ni 0.5344168840876413 8.637054187401397 4.577718323508799 2.471838010434969 -1.237955576031539 2.0449245853358913
Ni 4.284725573526757 8.701668579360396 1.1555855722035793 1.276331861816892 0.1791606389259882 0.693549164219599
Ni 9.046405912367012 4.281960375484707 4.844788971172073 -1.6625318683570076 -0.4614860208676246 0.5802398765707814
Ni 8.992247134553539 6.869282631024537 10.410501382587796 -1.048372456220646 -0.6874407373290161 -0.6155246679150044
Ni 4.175169730561115 8.075048633824863 12.352409656337272 0.22956711640299818 0.1626130189799522 0.16802544824477514
Ni 2.5564209346591484 3.678607197313085 11.830613992673209 0.5597677247593584 0.09872341941484288 -0.6034975615471413
Ni 3.779765031410281 8.516875142530102 9.166119435682404 0.47923743131377466 -0.0124312837848173 0.5134475015365803
Ni 2.153214094231421 2.849159509871669 0.3032537761172025 -0.20408825540560335 0.5059745901983028 -0.1093436181328504
Ni 7.764564376901413 5.0922378852541375 0.1195934187539706 -0.6957106906472922 1.475903974519697 -0.935208435900441
Ni 7.293456562330026 3.069500172710531 9.45891759765408 0.5521773140066104 1.2031806344441989 -0.11866900929883432
Ni 1.9865853085123677 1.171866723099646 9.939955918055936 0.72772169633625 -0.29784276085094513 -0.4493038769791359
P 4.645374433314054 1.6992747146416483 1.4428011996768948 0.3016991584825578 -0.03844647690165637 -0.2986572863324405
Ni 8.485219676728864 8.097430910232562 6.821922330013435 -0.2651534981480401 0.9461250828129447 -0.9591050400123806
P 6.924297968500867 4.925851170744153 4.742274607260983 0.4867003153497231 0.7843782684880298 -1.9358475906008663
Ni 7.176685135247925 6.81542178700684 12.314268544219226 -0.5280295131158133 1.8881988783746513 0.12049834919808924
P 4.210595920965149 1.3983336496141596 9.678090732430745 -0.939579568384943 -1.6325805734105563 0.9884819505126008
P 2.8046463386964553 6.233696740322358 5.419007017246102 0.9566056706292945 0.7455103877782386 0.552554494840371
P 8.870988079672555 2.540015955029212 6.334983989412095 0.37036509639038795 0.5361691115038121 -1.4113253193073632
Ni 0.7552631033362115 6.0022580435908255 5.90565952761212 0.3923943082762855 0.9951994717420926 -1.0107595309638786
Ni 4.066908037520876 8.104730288229085 4.557182305591801 -0.03801530290150872 -2.228009756127266 0.09693058918047823
Ni 9.284725017694754 4.753533711611994 9.62603611204994 0.2073394153530494 -2.3475848221801376 -0.25590575429752704
Ni 1.4261066656391883 8.213587848860875 11.204233325217407 2.181707273516301 -0.047459993254176325 1.9186744212556894
Ni 6.058716497890448 0.2969962353627869 13.037958113548036 0.025598674404710753 0.1723706125873483 0.07462138416031665
Ni 7.208098529840096 1.2333714310652306 6.857461176633997 0.5143458449811336 -0.576694068201052 -0.30920369438971906
Ni 4.637553671174924 3.3246525374996385 10.357221509471863 1.4052400323452314 0.5579489263830648 1.8890296018060628
Ni 8.202266364621373 2.9044169185570676 2.8689637279027913 -0.4908246219307418 1.1441650751419392 -1.4901044343897951
Ni 0.16361127499370576 2.264203743589237 8.484059597011559 0.1922519248923076 -0.43503322599273464 -2.060036758386981
Ni 1.531929025726508 5.959672131657041 3.566926713966312 -0.20613228241882564 1.7089258822405147 0.9453527234232945
Ni 6.442324880814761 8.634493818843943 8.526793544800121 -1.0512906583087056 -2.928572375550221 -2.8537987820827557
Ni 3.0690998241724565 1.0620967402182895 7.719284957245187 -0.3834854358224299 -0.06549962436470655 -0.7744170435102599
Ni 0.38186733230524517 9.33212442251655 1.6127128434081592 1.6288488742822658 1.5709476310901074 1.8702443507787596
Ni 7.931304887793882 7.637551475589499 1.000376030250767 -0.21764568237506385 -0.34497982354806395 -0.32000052789490696
Ni 1.021642917010529 1.143078870082754 11.987280617095989 1.4164253595380896 0.02266273170483839 1.78827861043823
Ni 4.4298751946565575 3.8772824869403344 0.6394189951934641 -1.2916705490564915 0.2650725083984596 1.6345351260337657
Ni 7.8165072721088 7.035548309929987 4.881867763099554 -0.29396373751151306 -0.7562961655398329 -0.4398779556795457
Ni 4.777424277860812 7.457888086305229 7.172321336182914 -1.2113729404470042 0.15036556907116683 0.990421847847791
Ni 5.872498565099098 4.394644523306002 8.473962434464076 -2.4273232158520455 0.5856962716996622 -0.6459392756511199
Ni 1.4961211076466354 3.785602671721274 7.0914872421732245 -0.6525860915436761 0.341384907107954 -1.0451542063936645
Ni 2.3264905277687347 8.216529945094166 6.616430873764689 0.5138388234377279 -0.8031352373805587 -0.23283858806541835
Ni 6.147193524804912 3.755781360850283 6.223435714187198 -0.12907092135844866 -0.875352382974757 0.33489364295665547
Ni 7.692659917377009 2.77952679554006 0.48470383713301846 -0.3470986696632796 -1.5680569398058737 -0.6474775666725171
Ni 5.662548343387938 2.8099439740026044 12.953922162276864 0.3027322277327625 -1.4856320004407382 -1.3479327139833301
Ni 7.2552186217283525 0.8882160597014169 9.582512639702571 1.8081349830425246 2.8793208376132604 0.9736937364598327
P 6.706620088961756 8.9998258254836 4.98735215453729 -0.3973498525093479 -0.2689098798666788 -0.05599477019806485
Ni 5.368329409627654 2.0111462258016823 8.055825386695505 0.12498158178042344 0.5384548222141952 0.015392166185354137
P 9.303671745019907 7.37523938927064 12.814030141599405 -0.8064005383953919 1.2520945865360824 0.15798631884121825
Ni 1.1450340606175367 5.798219945639603 12.018336491133228 0.08341609963381116 -1.1187306942292345 0.20863653689791808
P 2.2566716048147657 8.397366448699307 3.126073145312905 -0.057761118069868264 0.9609834879820159 -0.04547175917955395
P 5.777196992175131 7.051860185248743 0.7071784507841288 -0.08358887776624958 0.14479784517540223 -0.30861799708957816
P 2.3586208255569923 5.3303521610972835 1.2787113685237235 -3.7841113233434767 -1.8555456111160042 1.1065482932304298
Ni 3.493078236424468 6.64203362829611 2.4138577512939317 0.19768260898957568 2.296780852154393 -0.5526989908380352
Ni 5.276333039750581 6.114551153305164 5.57467928762548 -0.01653090777548766 -0.5201660512073364 -1.7251685693516223
Ni 0.8009624234358594 0.788481790522165 6.639651088973011 -0.19910237215523774 -0.26249292059674145 -0.33935759226528006
Ni 8.592578257950654 8.946272225692796 11.056587577504867 -1.251486006417806 1.5289818281812828 0.42355427881885765
Ni 7.078581122557437 1.757018008435556 4.352713134679814 -0.44692869187873996 -0.8774102939450502 1.0929870096062275
Ni 7.544242334924786 4.673305726668088 11.452307900270602 0.7917290524261461 -0.2455352096964804 -1.2474946258702257
Ni 3.9493824655182155 6.039583561942934 8.764007501954154 -1.0557211832762334 -0.578931699282319 1.5985162847369954
Ni 5.172875529167236 5.588120757030552 3.2738967222597983 1.6262926835193152 -1.2511173102244775 0.3177464417534076
Ni 7.068842411607997 0.5905848529363816 1.6511947173051247 -1.4677417504238788 0.8886262172655276 -0.08563084789694285
Ni 5.674158450992098 6.7756383148395765 10.3123889905093 -0.025592760867439796 -1.1890465090356617 -0.3961535182084016
Ni 3.096807667179659 3.272849298759022 8.702810038215464 -0.47806835070633796 0.701658937810927 -0.08023847323677795
Ni 5.144609060292954 3.2818152439256676 3.800243324654347 1.379057974633225 -0.5933489031489135 -0.17759972219677156
Ni 3.3911290156822416 6.148012842743298 11.294169296688064 -0.09272812106335643 0.09327782291923936 -3.7203878170425857
Ni 5.445308054111373 5.057631012788488 12.212053976190136 -1.0719787827856764 0.2392612037623105 0.4426874001038827
Ni 1.3528615040337912 8.140407860273305 8.9742956923149 -0.6512352339427365 0.48027975653536 -1.3664724246587305
Ni 3.453667181501925 5.773128333776561 13.362765537703437 1.5203853447615234 1.1197185120638005 0.09974723269366692
Ni 6.7854049570823705 6.293693158446825 7.298681576273454 0.9698401670416975 0.7631712953931115 0.18668471521717525
Ni 8.562365908972708 5.852229756555187 2.6391348047115635 -1.4635145997164085 0.6991356571684411 1.5472795980492062
Ni 2.513341569876109 1.6697513375664335 2.222088008426912 0.3268512322681532 -1.0445217150159882 1.6394703585518537
Ni 1.1955990120194575 3.824324754741084 3.22007125788035 -0.7735762927765193 -1.8956622766312319 -0.05489742336882804
Ni 8.20865332036833 4.360661449725259 7.3459124622920156 0.4017626368650629 -0.8152322777544089 -0.06694561278261374
Ni 4.699672867594297 0.8166504998697091 3.648073638461566 1.3021709343671832 0.8407468770857457 -1.0648030909728436
Ni 2.655195298390134 0.6696788273701136 4.763355285398385 -0.9679763743600814 0.9075847606459014 0.20320945234507584
Ni 0.42625946787592434 1.7926583387553043 3.955820628636321 0.777810642572841 -1.7310723364305671 1.69022110674216
Ni 3.3096255016751677 4.1478901673853406 2.7852136068669417 1.5146841806116882 0.35558253876457474 -1.0283263362030484
P 0.3044725115505502 2.0454086123159647 1.020210972704579 0.514096962195121 0.557665076594059 0.2373465032381009
Ni 0.07639301836639685 4.317479670199922 1.3210775542831232 2.7658189743376624 -0.6668603420745031 -1.10668044793292
P 1.9817718156243556 4.749455742782305 10.05489784542335 2.0062153416911515 0.43863945528675424 -0.34935352713572737
Ni 0.063806246537957 6.3406549730060755 7.855362494293597 -0.08132502143273737 0.31059388986902636 2.640813738408155
P 8.819808639816847 0.037006170564760646 8.434376343436515 0.9386840531538672 0.22153910389219908 0.9095997341934012
P 2.8187237105468887 3.3034340649816905 4.652829295510246 -0.48318715999014206 -1.2559597259184434 0.8150438158926866
P 7.336396270646296 5.614990661237134 9.317417665522541 0.3304844581453663 0.9760830626276157 0.7107066498354923
Ni 0.12737973229796368 3.4025063625084515 12.578396164606097 0.535933084233606 0.681540055573865 0.5216809451899661
