# total energy = -340892.2726179213 ev
CRYSTAL
PRIMVEC
9.08785062440020 0.00000000000000 0.00000000000000
0.00000000000000 9.08785062440020 0.00000000000000
0.00000000000000 0.00000000000000 13.30098800283137
PRIMCOORD
 96 1
Ni 6.286211746797459 1.9492894517657162 11.352673072369823 0.5665770343717081 0.3457012750951208 0.4902157847021493
Ni 4.663448771305868 0.15975623654523996 5.996324758260444 0.1814445498641585 0.2550254085751027 0.6143422175711291
Ni 2.940864843534984 1.7003368692148288 5.164680998555262 -0.5366761330472177 -0.3683411239818237 -0.5347727453769178
Ni 3.216590234299163 4.290238005896753 4.8241755903077195 0.06116962953078498 -0.09971406546288634 0.2616866226453622
Ni 4.712405023120193 4.56289170311847 2.598613659164641 1.8202896161271878 0.25550569064563095 0.08124608856568588
Ni 7.465005951194705 6.254549674898237 2.7473454240046724 -0.7210658815826292 -0.46349328110564053 -1.0455337012202703
Ni 4.788770232698025 4.517143462607367 11.238364268476943 0.37382451569389813 0.5233048539466343 0.6914359745313382
Ni 5.744139627209398 8.01027699423527 12.353080037466205 0.01833376531218133 -0.7486052246534785 0.2871495428031571
Ni 1.6507172042981375 6.621398944805212 0.5638847788798265 0.4130796045397789 -0.016708828114248644 -0.6413110328504891
Ni 3.02343705515276 1.6962655120934593 0.30091327781236626 -0.595551053006555 -0.6117880836907076 0.24901159828085503
Ni 0.3461689568145897 9.272879357947849 4.91745510764067 1.185647510656442 -0.1320243475598178 -0.2545356134228778
Ni 8.692311102721126 2.276797415917314 1.328586521415991 0.45367089569857993 0.15033523005386368 0.8295234975661004
Ni 6.872105482544546 0.7043520522775065 4.851162871797941 -0.08947644689527817 -0.2707381913246692 -0.031638709951203575
Ni 0.4630659805917695 7.5605374379354116 2.6368807809652273 3.35060970350392 -1.096289334506583 -0.40611705717901675
Ni 7.538026831708554 3.828756946470088 3.728319837912159 0.8617913564608708 -0.24616692974320833 0.07073927549709107
Ni 7.510963212272307 3.607340551592749 12.659934043292496 0.45010091895913446 0.4029486867533641 0.23674769331183745
Ni 8.092213056302832 9.022890760415185 6.8544114371978795 -0.11646660233087684 0.3209605778153311 0.9294576494595927
Ni 7.072283570295455 0.6554675944838482 0.3913074025425594 -1.2467358933273303 -0.2930980470771081 0.4517844773091445
Ni 1.8209235603832499 6.557193279487185 9.344608854874766 0.08463403120131231 0.5829937851668346 -0.8462413245414135
Ni -0.17307084663121883 4.701445075155078 1.248873347633891 0.2859046146524624 0.7861710987223944 0.006697980845465884
Ni 6.423710928150855 1.923961611816482 6.930573078919642 -0.4806929328133786 0.146354905249877 0.7079478561434324
Ni 3.640047726324466 4.511018251223878 0.48075729958322067 -0.5477858698071341 -0.2326907496336444 -0.6094062137220924
Ni 6.036859298815009 5.61229308900219 4.660347087856039 0.26001129182546834 0.6304995440572819 -0.08753937777356537
Ni 5.347018726562954 3.295936258912283 9.037848453910861 -0.0963232946137825 -1.3006393282140052 -0.15538102000788725
P 0.1505038957299133 5.636557650417495 12.39961982977479 0.42358950293216724 -1.015042988830581 1.8572661933515366
P 4.185173363753553 6.236092250091313 12.488377232590787 0.15746901288516751 0.04152768693014139 -0.010970382968574655
P 2.49853188556976 8.353561467232176 1.641382164041283 -0.8679506911940471 0.7911415553537923 -1.1735368434358369
P 6.497985932063696 7.652361081583443 5.753688231958111 0.2510841645391676 0.22788741470773013 -0.1740469718485067
P 4.901377790936618 0.8642509680790088 12.660226672085598 -0.4492925641252262 1.434389400215678 0.0806321091307708
P 4.133218121202505 6.068466843609927 8.078248664890562 0.32890271548054323 0.8669934694871004 -0.4306718637002454
P 4.774511394922514 0.9408379212143431 3.9431175511120578 -0.22952726430399825 0.41664598173479855 -0.45387632684116663
P 0.3008605682782057 5.480292057332786 3.3566103854415497 0.26735050579935893 0.1350731616884706 0.7028233904326735
Ni 1.5891106642852708 0.9446002914113231 2.9400905586538664 -0.3931720669825745 0.40171455723594685 -1.2199593965644344
Ni 1.9144648078168587 6.248488078469769 4.814997769868275 -0.8022217244273538 1.7862518098161881 -0.47543579817949727
Ni 6.04472028968551 5.711714175849919 9.338849883875184 0.6618616033083311 0.20589342693514218 -0.6484139624438574
Ni 8.87509504419904 2.41197010748707 10.268176224585869 -0.8259262671331453 0.09831769933599196 1.3448977838117484
Ni 2.1657893194049724 5.263192391546186 6.940961401074637 -0.14720285507246908 -0.5763407986266912 1.0664249428469827
Ni 0.3533937981348772 -0.04103073720373079 9.177894959820327 1.5116250820703903 1.3508208341644026 0.5986849706498464
Ni 1.4897713680939972 1.0039803079984406 11.54618885675985 -0.0028336127940531844 0.3886500107425049 -0.1707896412534736
Ni 4.249333589817994 6.868970174047063 1.3374144596028177 -0.6839939164309962 0.32510339633911106 0.7843430443747201
Ni 6.05498047314539 8.091486028245445 7.865193092673179 -0.47657736798310824 -0.20044525933637738 0.7462331248768761
Ni 5.109353254603008 3.030889092740981 4.743877158939423 1.3962856513654212 -0.8185734263125 0.06567497360030625
Ni 0.7138670319785644 7.359768639887875 7.083015413207565 -0.06197644170279649 -0.2949975780926662 -0.07129052001487078
Ni 4.936047941423281 4.715958372750674 6.5154091594589865 -0.9735435840352137 -0.35200999092196794 1.5842507759569167
Ni 8.392384765496663 7.154274159467321 9.300636380393831 -1.9280522629261632 -0.6703087056344198 -0.552214595002449
Ni 4.692875231928624 0.2045366209549464 10.3689186849279 -0.16170259135054085 0.3068585911963102 -0.24563085473408017
Ni 8.51326226788804 7.0901048455521645 4.873202727357641 -0.9351385018944541 0.5002667411802482 0.27318202487947146
Ni 7.051890433285738 5.883647223571327 7.052396626570694 1.3064788177139177 0.3894997603373099 -0.053423409926462835
Ni 2.3581972947925536 5.3084226245664 2.6127661690867585 -0.625458896309581 -0.25504443473849625 -1.1216033877913394
Ni 2.3322333052931055 5.364912704625402 11.579547630387998 -0.48142929675877094 -0.25386095595335634 0.08660298200222505
Ni 1.3256538719895046 3.2876117876551967 3.7836657575658488 -1.218267353573992 -0.36077925247416576 -0.7484959527691238
Ni 3.7250463940837726 2.490280117118413 2.5959672770357503 -0.9961926888932972 -0.6940232756425402 0.7446783787952466
Ni 1.1036740303676904 3.5111729153018283 8.517420868376295 0.24359556947160627 -0.1064318438026941 -1.371151832412271
Ni 3.4997676626515632 2.906140165944017 7.43301762545473 -0.31964700121023015 -0.04673391372142919 -0.881086971465689
Ni 3.913946459094459 6.991574368074734 6.019308841509677 0.4333051875580343 -0.7171259230982747 -0.0584799985137638
Ni 0.7444649165587857 7.390203851940257 11.34760477802476 0.2672119233389656 1.1061099201414306 0.43480105537727054
P 0.07869533450175782 5.468832277578217 8.134910505328124 0.42503137758501636 0.6564556018014114 -1.077618497569957
P 8.624161310191772 1.7264462643257545 8.196188973930093 -0.12905009542284226 -0.67412010896071 -1.0301189093270968
P 1.8098636460602437 3.3772906985339346 10.541751429870326 0.7115414870319617 -0.14506601123512436 1.3799023249113913
P 4.041912485045362 6.168269620187784 3.8277845464433327 -0.45783505437859856 0.5477557879001469 0.2986593432149695
P 6.7910236784444145 3.9649929165737734 10.530232579086093 1.054232771656165 0.33985227251351147 -0.06521885989949414
P 6.476883942698027 7.865144018279306 10.194289271898658 -0.7514838317528542 -0.7746808386946078 -0.7594236554252212
P 2.2757704887862547 8.446284808101224 6.001592076536216 0.07923368612134742 0.7138580509802803 -0.3825989194524185
P 6.757153258820877 4.11042579160341 1.7142976254868107 -0.2918186661440522 -0.08900799189929189 -1.0889292945970859
Ni 5.296662945738159 2.6534343010468673 0.7769521653031426 0.4105732931781574 0.3639517366648764 -1.31179431638956
Ni 1.5912281335024119 1.0966763853153365 7.326277183639252 -0.5091123644963361 0.10010847268782759 -1.2460913177647959
Ni 6.905385191871455 0.877906372566888 9.357857123650508 -0.2091705550245172 0.042166348955404796 -1.2549117442699032
Ni 2.6585780245528836 1.679153089192703 9.394594760175366 0.11036177498471961 -1.2701460447211543 -0.29311373080639197
Ni 6.350299270056159 1.945627047926627 2.7654884091767755 0.34884367737884436 -0.15092401267779815 -0.4124376000804058
Ni 4.173177400806661 6.92082545024022 10.189820775700941 -0.24192692351993175 -0.21623800339425986 1.2609422667346994
Ni 8.239327183715176 7.260865560531035 0.19835597368208155 0.1468305593347149 0.9517995074899028 0.8268811748472469
Ni 7.747292770176806 3.7284361624013416 8.180985908465052 -0.4039174784245366 0.19720386958094424 0.28624554293164894
Ni 3.25794904291379 8.377398899663765 12.45588362235093 -0.538678251078911 -0.4667580678998413 0.39139312070528076
Ni -0.08652724424996382 5.1156874865529955 10.320888485101673 0.2737600088701285 -2.10798603257275 0.005638429232699966
Ni 8.715421507095328 2.350454445981377 5.829996188076422 -0.7580630276322687 0.21182676170044165 0.08553545996965914
Ni 3.839198886944315 2.326526135042614 11.286926107570135 -0.3970711449266645 0.6614543405675835 0.757142058479896
Ni 1.2431452753267498 3.278551200490006 12.833777357234691 -1.1293652911249452 0.2643052912151319 -2.101757535164535
Ni 3.6126115050088083 8.301933387306951 8.277404369435772 -1.6357317174450279 0.02797411661542279 -0.8301763006587509
Ni 5.630614196048353 7.845750544848496 3.6108457356144283 -0.27199057567453155 0.32095826382248593 0.29983896534536747
Ni 3.18352863338947 8.355887957015815 3.6713790004575766 0.24237480969062777 -0.3214300612525819 1.339632678758067
Ni 3.2990443038576136 4.616282826082859 9.305384782393642 -0.43545360135960487 -1.2002752878719458 0.47838845304991806
Ni 7.229194400781095 6.138561436192791 11.614116905731699 -0.12190037175193846 -0.33770977224921195 -1.7656994395861334
Ni 0.6659322545848683 0.1612975360269013 0.3830965294194402 0.7661910560560418 -1.02915705963446 1.022963015008606
Ni 4.744694156718912 0.2259639553762971 1.5245723836309897 -0.6153308067366434 0.033177258082917056 0.5406207195172624
Ni 6.229376328411197 5.892271593902086 0.32598484037137143 -0.7081448026455869 -1.118913242553686 1.3759281707549915
Ni 7.915308954239038 8.911073845189 11.370376205567208 0.7831554518245223 -0.11896571460364673 0.4748950951846789
Ni -0.05545679143244067 4.875386537885018 5.424529005331171 -0.1864098642892338 -0.891064137283059 1.344001497249724
Ni 7.887309286178905 8.847268045302538 2.772750510685004 -1.5075971918579196 1.2265010543376942 -0.0738917050831437
P 8.487343717642178 1.6890406707731718 3.5155841580400264 0.5708057277410751 0.38772929870044837 0.7456417711497805
P 1.888755278137496 3.2740708900863558 1.4673916269174692 0.8130933770345352 0.04806908759308495 1.995993663963143
P 4.6257887179332 1.1235128084836496 8.198636332128276 1.1619090293889216 1.0364877889679183 -0.1547744967721399
P 8.584056624976139 1.53873670775904 12.492168683910064 0.42154881835305463 1.5291083264568182 -0.7627079826034477
P 6.411769492308267 7.875158829769817 1.5120693186140695 0.23323505217288865 -1.074891071336465 -0.9555232361983931
P 1.5414630629742427 3.2389009078102395 6.11234934836876 1.7334899447331242 0.22151339286058624 0.05996146815529673
P 6.884410432415828 3.9355573681003 6.007869963811756 0.5492495988368541 -0.5521788566685071 -0.4660021635704233
P 2.4457496486034334 8.548995696908632 10.331822078299709 -0.14037811884115178 -0.2736746482451738 -0.7423420173525861
