# total energy = -340896.47851091 ev
CRYSTAL
PRIMVEC
9.03851984908496 0.00000000000000 0.00000000000000

0.00000000000000 9.03851984908496 0.00000000000000

0.00000000000000 0.00000000000000 13.22878742673171

PRIMCOORD
 96 1
Ni 6.3680077499663925 2.0514005216841498 11.544789211324783 0.515168597992745 -0.07106863381205179 -0.47414484728221573
Ni 4.64501280522848 0.4035310416323175 6.147973121086091 -0.8439856957380174 -0.5310698426040338 -0.6669783557096061
Ni 2.67982168501164 1.5702349222804797 4.717319155601533 0.639419472254731 -0.19317109427246731 0.796273734374035
Ni 3.363468204070443 4.078261462220916 4.484254596635755 0.04225556623510142 0.4797025438756513 0.7700564525487189
Ni 4.772817474629587 4.346578959805162 2.3657837390753036 1.0237798544829466 1.076258898218269 0.6159404152961845
Ni 7.342640374166582 6.107996652041242 2.5937686499361723 -0.8948058637136783 -0.5535034890172016 -0.31861496040128995
Ni 5.214150317452586 4.619460909868019 11.36961365986348 -1.1440396053076682 -0.8696447910670184 0.6553685393848196
Ni 5.733575970998752 7.790489989736273 12.534923800764707 -1.2200393578727504 1.3124345210767205 -0.5475357014695408
Ni 1.9628049510002992 6.428746602751077 0.2896438849570827 -0.15209617860902838 0.006722920546130358 -0.4671362771748665
Ni 2.738987835358149 1.517648814318978 0.3899597042132396 -0.32306322598063075 -0.08295355817509584 0.16018512626474993
Ni 0.4443797278339695 9.290242534931192 4.998801257215675 0.4493956653619938 -0.7981475543579803 -0.596690823037953
Ni 8.707357434152696 2.3577069178181023 1.276387221783195 -0.07757301058947286 0.6834557845393391 1.1070679131793255
Ni 6.848097765518667 0.6910888362288786 4.9542865473995175 -0.03025082846474145 0.11687283663036001 -0.8807265028024767
Ni 0.5968396714353825 7.307670341216591 2.2876809859804026 0.7714412487113875 0.2958046473749938 0.35055423231204785
Ni 7.666382074916854 3.8277046559643337 3.795445275090254 -0.12197776195709316 0.1641785636948592 -0.006897755561097799
Ni 7.670702487361954 3.8492344100317624 12.741213552646546 -0.27602386520364075 0.30429571556514046 -0.572151443135692
Ni 8.043460080768673 8.748166350867404 6.806740210654548 0.15155521850389383 0.29976491757432244 1.6596080098419934
Ni 6.983223635925071 0.6874598705453889 0.5542447432161708 -1.1902934940688854 0.0019375833423450502 -0.7467026083141268
Ni 1.7582361332806926 6.646312811885025 9.16664981573807 0.2026497231868639 -0.3658579525486538 0.1025232527769073
Ni 0.2063240982569259 5.026845072473865 1.3209887013890438 -0.7083522906707026 -1.2304469263593196 0.2787006407048555
Ni 6.32630401979548 1.9739855999429563 7.0577037503003135 1.0654252979378749 -0.1794437173840458 0.8172387666614763
Ni 3.4327394195082137 4.1626089286177415 0.24250258129877938 -0.4893287541115057 0.24078869615043047 0.3565983816235988
Ni 5.904060530704809 5.465348858612102 4.745046622668137 0.4959228623892556 -0.07947588403914055 0.026850287423624723
Ni 5.3532621750729845 2.954854802777288 9.215080916166071 -0.24784637432816023 -0.666374146466704 0.2730084754160847
P 0.1432279995189314 5.647691956242789 12.44086715644209 0.3389125343080615 -0.18880433266333937 -1.0768857331689905
P 4.079337046072311 6.077554917490823 12.5762108551747 -0.9692120465393953 0.6011902535702033 -0.6769992302807178
P 2.3117550833601657 8.45010308475423 1.3245191472071534 0.3601421331107991 0.07173352108956033 0.50049042715528
P 6.470585910718384 7.683636609137979 5.821129400354317 -0.4532075829089162 -0.6406757132593354 -1.0053105920341654
P 4.72734468171891 1.0614837605704326 12.6152491258685 0.08158110330760145 -0.5054215459083102 0.9985899854808802
P 3.90722555280952 6.304512148655023 8.153748098875626 0.13931702456648912 0.21742688149603845 0.7300953387747491
P 4.850331820088136 1.1156335324503497 3.9367679546438565 -0.8069461264862167 -0.967686096813172 -0.7251770755375254
P 0.17849720747296652 5.525798478764478 3.574854777244735 0.7095123724170748 -0.21650925477777552 -0.4203247161379664
Ni 1.3338324379674718 0.9965148805382437 2.691727223239019 -0.1039736120701887 0.17047802355032576 -0.5335123906072554
Ni 1.889827942461082 6.593021699382272 4.572199393896912 0.35107385226094373 -0.042309302291172295 0.3124648816394941
Ni 5.811750128399753 5.5082095193122464 9.212990306545672 0.274516684530495 1.3908855633957724 0.04470145667243269
Ni 8.59837096289113 2.163839707493892 10.275659017056592 0.14651482786650896 1.0313982902601526 -0.6558922730987736
Ni 2.600273672607175 5.096857446531924 6.984548682921831 -1.751357054821532 -0.47685941799990134 -0.4730233320832628
Ni 0.5126720715817727 -0.004275219846302918 9.0595361257707 0.23183122984682655 0.40386991301605285 0.21096698480330767
Ni 1.451568196356355 1.099138233889033 11.562370036109229 -0.21813393486539207 0.771222447832362 -0.01929407234292161
Ni 4.08297956953544 6.781592337127342 1.5229508100099742 0.6274779836221387 1.0838274545941464 0.32926112726122647
Ni 5.6803662051738355 7.777745676875201 7.7395552193348545 -0.95604876968456 0.4286666603447585 1.9986210742836614
Ni 5.488885164066167 2.8589470696079005 4.967383362531216 -0.8887665994981337 0.9026780673729035 -0.33545568610771265
Ni 1.0080028391527278 7.424294361675041 6.8902669794572 0.05765750261246844 -0.3636259778943415 -0.22404001593718187
Ni 5.0071591764374 4.566007104009593 7.143928517251213 0.2390416315523367 -0.4750506469259367 -0.5893762916544107
Ni 8.161973151856886 7.167437707146 9.276157809589767 0.039774194574144404 -0.47706562047343637 -0.5668634552638754
Ni 4.666777560809659 0.42846108683331685 10.52035163169313 -0.07275296349301019 -0.14958652481329723 -0.5721601848864405
Ni 8.25601894995579 7.147191422884439 4.663438731610452 -0.27464421124729477 0.7050237405181019 0.40791271562685877
Ni 7.165141923127055 5.93593938989701 7.1563501549568675 0.3314293385571389 0.6843680119409634 -1.1050146301947228
Ni 2.3540824713944923 5.3172617508703945 2.4468493189474096 -0.3271721059426817 -0.7732374213798618 0.4882355210473269
Ni 2.3418172000806803 5.3122363338840435 11.182915803412603 -0.38726932834489436 -0.08837575763193167 1.2964355745453027
Ni 1.0358685955716536 3.33577417952695 3.836586809332118 0.3040136655483474 0.2670026355416369 -0.5018996487979808
Ni 3.487250732178516 2.423308494233465 2.528920886068762 0.18486257440677195 -0.1422534814869937 0.6339525356028889
Ni 1.1241568565836766 3.260835812199894 8.20478500455033 -0.37575567127834 0.37766214427243344 -0.498659030373496
Ni 3.598487794860228 2.5924463144953394 7.256703935996015 0.1733823416813143 0.83781247704777 -1.5923034710580641
Ni 4.089207109649823 6.630269439311689 5.9002110251391855 0.3362948941795563 1.5661054725064576 0.12311444666469765
Ni 0.6217263317415356 7.581302488419497 11.39014465749747 1.401090528953232 -1.4465010958775477 0.30770499835700554
P 0.12637025631525367 5.6546245008984215 7.978546335707019 0.8162337224357298 -0.01323141108860947 -0.33187593917625424
P 8.509486159574971 1.657022789012405 7.9446536943123744 -0.3009885055687784 -0.5426338932925494 0.18372383281663845
P 1.6961234254925452 3.1495806724786624 10.414323467948886 0.8080339602337567 0.6025709359678139 0.21321644295911665
P 4.030465769732015 6.144729196344362 3.7439853666908016 -0.45775483595996647 -0.6421235014494555 -0.75016382738985
P 6.971518752836355 3.9106963443972163 10.349700763223494 0.5347174666589499 0.1957152008505597 0.9325697127260133
P 6.281834502578122 7.698369396346168 10.136439601051054 -0.9668093506351738 -0.01728166989858314 0.34803609387588447
P 2.5376276921532095 8.466218765485644 5.617987764904755 -0.40125664376292186 0.49723849587688557 0.9521648612491215
P 6.890714386185302 4.0669723510411435 1.643452355445303 0.3518235859427747 -0.003204622980226739 0.33993814735909844
Ni 5.472959292249707 2.8630776731380494 0.5014091721093034 -0.6637246246589988 -0.21851805767768817 -0.4483525688094601
Ni 1.5222855749556659 0.9756810924923066 7.013043520316027 -0.17296865118266339 0.8784490196222097 -0.3147287379730064
Ni 6.956560002634175 0.579810196356272 9.279121540218949 -0.8232132390773564 0.32521755331947216 -0.9298813672605727
Ni 2.7426755514200765 1.6736898194491547 9.16358123827968 -0.3629068403401298 -0.8355496491555222 1.8269099496571826
Ni 6.4060960722334555 2.0136647016877127 2.6674660285002316 0.34010064107889165 0.04898954252482531 -0.10189873181903096
Ni 4.049555123464345 7.116903343169933 10.332344093729084 0.1639214533787306 -0.7389605024748629 0.05240885261901941
Ni 8.027091321483994 7.212377227390858 0.2692114071884731 0.009612069168467317 0.03982407397547335 0.2117329164350547
Ni 7.652019867018809 3.9007178185825895 8.30591880984473 0.3016649628105127 -1.2405328498404118 -0.6179805856546647
Ni 3.1235497355709403 8.30453772402546 12.464626713334217 0.6421314718692555 0.08698736192483728 -0.33990549434895007
Ni 0.18183874822810012 4.754704281031297 9.95785020067654 -0.3373210214512255 0.4332812762986344 1.7058801534356558
Ni 8.619150519818508 2.5667136487396847 5.814092008869473 0.1297869735888668 -0.09174621676606136 0.8620412676881476
Ni 3.5833663513023746 2.6419322101792893 11.532738152929275 0.12700426863740708 0.5584346077702318 -0.7347953153535797
Ni 1.0494444522506112 3.515568414585423 12.5969144885361 0.4539781425263536 -0.19576276625904349 -0.31917983176582454
Ni 3.035369936796033 8.474651704421374 8.211148122461104 1.0541216999995975 -0.4691342814415017 -0.46236893769321014
Ni 5.706379065042038 7.771129480411155 3.737740653388876 -0.7104896487286796 0.34984177962605556 -0.21963108823620883
Ni 3.1086271394477984 8.392482521286619 3.4893576111344844 0.6895595834442317 -0.06036281735877347 -0.3886309845791113
Ni 3.457866504439973 4.431242774393574 9.293341843356767 -0.2659726516152258 -0.41530463721555566 -0.20338685846320453
Ni 7.16719366711249 6.118409026804332 11.380751827763264 1.1223718905262479 -0.8639963345319894 -0.231076353958673
Ni 0.36539391135855315 0.07505225267602728 0.5149199514459917 0.6267974126153463 0.015004443828632225 -0.5029453164536758
Ni 4.57523543268417 0.37051332895040506 1.728989291042496 0.5059861601625285 -0.41752838433975187 -0.4570596096651548
Ni 6.0259268926238425 5.689025107103556 0.3079116372432621 0.053017175626979655 -0.9637991030539401 1.1786463967482605
Ni 7.801589292001093 8.740058798643021 11.408651930557276 -0.991965281075511 1.3821656670242712 0.3284995665048536
Ni 0.3598578180057825 5.136599817914998 5.698604130344808 -0.3542059701320222 -1.2373256557570238 1.37090217829531
Ni 7.894207003977976 8.864311329778594 2.6444873997153353 0.017468846208724752 -0.023091591712140876 0.5073524443824359
P 8.49234008759096 1.6607556976731304 3.722276649932133 -0.5678217054120867 0.5990986611484973 -0.703960075140278
P 1.7328378927561447 3.2535507652736357 1.587176723717922 0.21340927569621312 0.10684064920533858 -0.49948923958427527
P 4.710523996446247 1.010705356560856 8.290943790306985 0.7347752607489216 -0.22527697366807653 0.27182396818968024
P 8.50346650541506 1.653642382622305 12.399262849988535 -0.6304337238163529 -0.12875287589739762 0.6968658872976579
P 6.247849668281929 7.774030845253995 1.5418946435741738 0.0423308995577271 -0.07631137026822986 -0.40486698682199956
P 1.7885242129951981 3.207110850748679 6.0341926189440205 0.6120868458780492 -0.08582779439909735 -0.6507690929395953
P 6.906043715697627 3.977454851341811 6.18510607181456 0.09749031833869017 0.37313134628161543 -1.105167096612187
P 2.253031820481878 8.626625375659719 10.34378685974477 1.1788842237906794 -0.9049838326879446 -0.767347281147672
