# total energy = -340869.272669323 ev
CRYSTAL
PRIMVEC
9.22397966247769 0.00000000000000 0.00000000000000

0.00000000000000 9.22397966247769 0.00000000000000

0.00000000000000 0.00000000000000 13.50022661018886

PRIMCOORD
 96 1
Ni 7.496420328636701 4.004839720227998 12.771187098685195 -0.7104022312211958 0.10049542371360111 -0.02789852618248098
Ni 8.504564385235827 5.135625807427897 5.740957759594204 -1.121388700677372 0.18131599470609416 0.1572612677497356
Ni 4.945076840208377 4.4177234878086065 2.190101092126407 -1.8887964027493342 1.4799305791805868 -1.1085714943080456
Ni 8.435052476194956 3.2427268671648513 3.9544048454597296 0.610875084958135 1.104871162638323 1.1525345301525571
Ni 3.1344926924454275 2.6095744706171526 9.234965196992908 -1.5679065302709383 1.574185678411431 -0.9898492631737726
Ni 6.306167246003349 2.6618744340276805 8.550328236816954 0.27127143812031984 0.0687448707748816 -0.4606858935638324
Ni 0.6004995093390094 7.970477527846694 12.96083857270545 0.38769227481492585 0.6699963166003235 0.2511453567944062
Ni 7.56373693057145 6.04418778201996 10.829273776487254 -2.1836037192080653 -0.21522061787333902 -1.5618824355640455
Ni 2.780633169285272 0.39712736590549985 4.731329564703587 -0.45454455655278486 0.17274933608300572 -0.404570024406871
Ni 6.7817832977382775 3.106986785762854 2.073918614325704 1.3456377473015664 0.5480383521375723 -0.09967035670914448
Ni 9.465832178333665 8.66472956418828 8.84118982521499 -1.5275548659267693 -0.08023898745741019 1.9145614275285798
Ni 4.660803017924592 3.4377125684938017 6.977321515435532 -1.2984186664136026 0.4253347677580482 1.5635194569468363
Ni 1.9481136811758188 8.195468834285776 10.481372944043713 0.5765940522880779 -0.9445909055566055 0.5398529881133024
Ni 6.670283834297984 1.1957321264192162 0.7336282821622561 1.1971768514522803 -1.3631233056808394 0.7754894506388321
Ni 3.6885033454195235 5.660728508844922 10.212705172570203 0.40617182167635213 -0.13194772868561144 -2.292880488658722
Ni 0.2870391713191418 6.786496751230831 2.2402002140431514 0.09843417030919821 -0.5092252359251166 0.4240034505411343
Ni 4.901770256749395 8.757199958049044 4.068820008800211 0.4944424211889872 -0.4401137258394356 -0.23176926626063957
Ni 0.764182714048918 3.9863825373735953 12.828994700217844 1.1098490754688886 -0.35808447925082204 -0.21590941641024752
Ni 6.620529689212201 3.5808595053840984 5.847663520920837 2.364829468193198 -0.9298584844424372 0.61829503157129
Ni 6.9154295358079665 0.6042370658070776 9.638081692747166 -0.1346044495821682 -2.092100471690745 0.4609579162782964
Ni 5.371270810117272 0.983589823336548 12.279644001655566 -0.10087517565052305 -0.9944713353268165 -1.0353549609150556
Ni 2.4205290120459413 5.758096835786991 1.3059568359012492 -0.17587374064460032 -1.940384302128955 0.12496615516145575
Ni 4.742518251761253 6.211971967987774 7.654088576355426 1.6427927380568672 -0.08323200864746311 -0.6230135200928818
Ni 3.317035245513213 4.9461191498848125 5.709542730426025 0.4307957908726194 0.10436981906734283 -1.2173088463154649
P 8.182343111546238 5.23170277724872 3.20924658900062 0.5191568932165317 -0.2036658231562041 -0.002392925712208782
P 7.012724070914536 2.124789783321366 11.101722457132185 -0.4547885542427909 1.424224029646902 0.49112724077282516
P 4.192686061472337 0.8271668128418822 0.7716864213213103 -0.01192091980730205 -0.38378162690660994 -0.2331376073630759
P 0.13330033884078366 5.790823514831181 0.30854211218380184 -0.0909309199536176 0.4037161610470079 -0.5715464625618415
P 2.1740089375997744 0.4251027731414416 8.705243126673592 1.9172065784609111 -0.2814380942406766 0.6506173978530795
P 3.06441812065887 4.260749805741523 12.46978065699423 0.006808281171085048 0.8494796289730531 0.32831470418755715
P 3.0953276757538752 7.466156452102318 5.207927970248607 -0.4180397767585317 -0.39163686128497066 1.5157619870568992
P 5.81439078229395 5.498672414107785 9.39931621781409 1.0624389616160412 0.5361498282301025 0.3120229090060691
Ni 1.3814754003518086 3.346782579199096 5.7465871542449 -1.6214402405230204 0.8768580209860058 0.3650539685901197
Ni 5.1611208865931 7.978649973628304 13.50010469454873 0.5847891865043606 -0.0011657381733270248 0.7922129340411002
Ni 5.387837077186991 5.906307737388467 12.019764837790092 -0.31488480393489643 -0.5663865156274568 0.3555874238605812
Ni 4.979592971263438 2.729689130852054 0.348847212733827 0.16695946887410598 2.2145909116181985 -0.29666416716181165
Ni 1.1002454912823938 3.9943243836692677 8.239079809066196 -0.879225492776918 -0.4758397184861353 -1.913143721245447
Ni 8.631670821884342 1.2561307437758542 2.8322533254112576 -1.0836215092309271 -0.90976916989173 -1.2946468580759962
Ni 2.1555609787248087 0.7368382270065 13.141565846619939 -0.8044963793941435 0.024550435645854494 0.7111792185965364
Ni 4.96477926028684 3.9155792712114765 4.391529231002043 -0.9287259134998909 -1.3486227980718193 -0.3919356234723121
Ni 1.468107015228648 8.4318886512479 6.763262469425755 1.176983921444173 -1.3648623998591334 0.2326850932066896
Ni 2.810564982559904 7.907800587568998 0.6529193844822246 0.5077450518351643 -0.43001263284969166 -1.0194706855846314
Ni 7.1936616515602 0.1831264309661786 4.88195161453002 -0.05237877071203237 0.7976960686428585 -1.3038151548388255
Ni 7.218123645028404 7.027233390569696 4.017303161243925 -0.28278175275276457 -0.16768477707590476 0.5313464933041883
Ni 4.715842503228052 1.8530236771548079 2.7974494061977473 -0.3104365383555557 -0.25714579735221527 0.3085228662726106
Ni 0.5632844419005412 6.137682037598287 11.510711860594286 0.3744408091216584 -0.8105430998088557 -0.11724667503001097
Ni 4.183268378466667 8.538656213236765 9.1824484700656 -0.6150904085910632 -0.5350756213293172 0.16360057970420214
Ni 4.435784039547198 6.204177705363101 3.9710642747217673 0.3455943172036112 0.7538916698633984 0.0242303333022744
Ni 2.615588505210391 1.742446611658263 6.767960242153266 3.0072663871180145 -0.4280004875156693 1.3921590307915572
Ni 0.33097851976753523 0.43811227374006745 5.319831443988261 -0.5809772689574381 2.9770343277063507 -2.4330701456381516
Ni 2.6123785603661474 3.0091664838283476 1.1024232728275833 0.25011974374336926 -0.28255626700551983 -0.7436016007913
Ni 7.545224403840422 -0.011801159292315578 12.111957589869787 0.2657582216115746 0.08204775853137482 0.26231191493418693
Ni 0.2779314140225712 6.081406539050203 8.943940344158829 0.15538847620705498 -0.9776293240688131 2.163729091771325
Ni 5.079507116530252 3.81296249996948 10.517756008536919 0.7806421984843652 -1.2680665364843065 0.7731906273023265
Ni 3.8136174025095406 8.843398045892323 6.913074653857577 1.0822482830324844 -0.7696970123267711 -0.9960456217924716
Ni 2.7136209586719593 0.27047198185147886 2.246964158164657 -0.18165203788927425 2.742394681876451 0.2624301856796061
P 8.450244370328491 2.8416497932642217 7.172575634566114 -0.8010984094561882 0.9640418151923655 -0.10315831525774494
P 6.587544738743763 2.260788136147613 4.093295838237571 -0.46129113124799914 -1.2330429692212699 -0.49532122424951464
P 3.356532325464515 2.5916522785701237 5.0307915915291295 -0.7977264076601617 0.3120231661163852 -1.083172851729283
P 8.62793511021216 7.882489987992545 10.805959246061072 0.7328158230297057 0.517965701121908 -0.29209557395452274
P 9.328302644920797 1.2581969151698502 0.6580322362844213 -0.008391566497804901 0.06491007040982369 -0.4197775853852448
P 0.794872738433311 8.821979965638487 3.201619280403765 -0.6389538454722222 0.4833036309633483 0.7987450787326631
P 8.8898038864423 7.198153729546254 7.44501047924189 -1.556658725271261 0.26768886297538413 -3.678933920773174
P 2.7902076599413794 4.064795586571637 2.9661080254162338 -0.8308512152385884 0.3264113165172572 0.13625715469424274
Ni 8.98903545723074 1.8820515404445664 12.050909604360752 -0.3092893121249899 0.5816611823983402 1.3464635856369715
Ni 8.566503407158525 4.04294397928424 10.505295334714823 -0.6503078370324606 -0.30116179792184905 0.07217523661266924
Ni 6.810829608986911 7.78181025243242 8.429770825569053 0.3559185819477548 -1.3813704248164855 0.2552961457379861
Ni 0.6770022723955487 1.2602999824815964 7.403362367285767 -1.5488091473198553 2.189022062010159 0.9606286757457586
Ni 7.7050944154508745 0.6782355184463401 7.253644267444207 -0.6996802168180015 -0.14576200886088445 -0.36933228425049947
Ni 5.127462585625726 1.5321491044630915 5.6785058844147835 0.7351706964151274 -1.2139165328044643 0.03367116700020008
Ni 5.835808862547784 7.9086768656155595 10.670160131190672 1.5455919259341382 -0.8866330980948989 0.7812937160254351
Ni 7.520799306289967 6.997587520657627 12.94978178855374 -0.05944107687545247 -1.2210734555642198 0.7997262116990098
Ni 6.366049320511487 7.664573473782013 6.1488808710333345 -0.39657595045780086 -0.33168901997642875 0.4840849892140631
Ni 4.762755662647091 1.4079574453168222 9.916307351713792 0.8650828827279489 -0.30561032061150595 0.9151664296479012
Ni 1.3277918400256585 2.1753371906387717 3.642617737309821 2.3831277522817538 0.30165853505260953 -0.30946774668438315
Ni 0.935662026179387 5.225956238059168 4.288279694770634 2.073562303677242 -0.19770086382202082 -2.768602964840703
Ni -0.027502217090798912 7.544025286513549 5.149729271987809 -0.4098659826984877 -1.792757729255506 -0.06573847984839001
Ni 7.309016738405361 4.724051844927412 7.7393282927351486 0.02973249406742622 1.268603382824383 2.1011682383199686
Ni 8.265727885661084 8.531775124576402 1.266519711816291 -0.0954807441078291 1.1650501461210645 -0.4839582338282117
Ni 3.51551683504897 2.239923494660027 11.908697978985415 -0.5530332342490023 1.3617235971198356 -0.5386875070502916
Ni 9.689144720515127 3.7997906573327542 1.8837810365890946 -0.5437443527479088 0.5381411476285184 -0.10375866784590516
Ni 6.902266917150678 6.581871991389711 1.8059657012586015 -0.5657748501853869 -0.6783901970909736 -0.8073047953772161
Ni 1.502512458530459 5.967084537902041 6.437447533347323 -1.6061326636316726 0.6813539077049878 0.5976367318909902
Ni 2.490741943524061 7.4576703910198345 3.127327505218391 0.0964114834522146 -1.4083366689926842 0.7796386969205152
Ni 1.5933963279279777 1.228578717196093 10.84556885856151 1.0233995883253924 0.5600482321142548 -0.8810797723768374
Ni 8.798864673168156 1.7557014701099263 9.5826225163793 0.7899999855501814 1.15606748300648 -0.7826078068511684
Ni 2.8359954938690444 6.542504047150534 11.986877661503689 0.16428937824111062 0.018725858544277427 2.6304671050665083
Ni 2.6382979425854742 6.863369395862814 8.26512187021204 -0.9257891994690701 0.7534823502401217 1.1715180132335954
P 4.393123134648839 6.782844055373588 1.9428846072327097 -0.7316490564151141 0.18035774455788292 -1.6156619432783466
P 5.959603890578242 5.162578275344223 0.48247961483436 0.7521811149301949 -0.9171276671393302 -1.777625501599758
P 5.637133569443841 0.506551433972359 7.803765168289516 -0.6785742880773217 0.18899150897348094 -0.060264601218012345
P 4.084774726033225 8.408238367970194 11.629891209314227 -1.9296545744162767 -0.01216697437983711 -0.47329638323899126
P 6.032584015887607 5.66036877364686 5.329038820262757 0.4900530338720399 0.03586791754120274 1.4942745066070846
P 6.5436847165185315 8.634438015715586 2.571725715791329 0.17743311471192022 1.268453230399764 0.5683855483353566
P 3.036718510408109 4.778039796574999 7.802806796825962 0.19670738956049993 -0.29424398775609323 1.0351215047480107
P 1.1771642558115634 3.2486578859431527 10.115557298736691 1.0425476220087528 -1.0410630670434264 2.115538905219344
