# total energy = -340867.844671409 ev
CRYSTAL
PRIMVEC
9.23345175402276 0.00000000000000 0.00000000000000

0.00000000000000 9.23345175402276 0.00000000000000

0.00000000000000 0.00000000000000 13.51408997361420

PRIMCOORD
 96 1
Ni 0.8027858386704779 7.257308374642552 3.4329705685867506 -0.04727950181225406 -1.008103067177638 2.0664899702114923
Ni 7.787807109160877 3.544518975344199 4.044510385414295 -0.18998858277942762 0.3978136795196439 -0.12581667608720912
Ni 0.4748533377909487 5.348144498473512 13.518549836014914 -1.7335763337993435 3.0472084747285906 -0.20265486539318647
Ni 2.43918247119847 4.4642353997735995 0.7063959895845362 0.18148671595600357 -0.30542314430136436 -2.1392617027575804
Ni 1.2897377682364006 1.4497627198139602 10.996657797783318 -0.5556454750608688 0.6536782961665903 -0.19015878980870476
Ni 2.349165550482434 2.6136947085082545 6.976472940897732 -1.4571323503391485 1.9320248744206663 0.8297466693205
Ni 1.3593118268675768 6.622194632255451 9.930734282259642 0.2920739766879679 1.004468041528212 0.6913066480423256
Ni 2.706213894637569 0.3544934480671127 6.542967923207151 1.6314428602616868 -1.0192310587699995 -0.2146439194342626
Ni 4.468907526338613 5.785052966464219 12.226345812826903 0.32522192419484636 -1.5118217714622286 -0.6580514855336215
Ni 3.7703230369003244 1.4175933740580189 2.7481983995607213 1.0470977032732804 0.33019263793656034 0.40459007901152905
Ni 8.02387876901798 8.651476481713537 3.2307865998487286 0.30069488558775953 -0.8986758881920459 0.2871045484978346
Ni 8.956799029391984 0.5002748770375781 7.411315885741021 -1.472944891891373 -1.0157826952100828 1.2621026055913878
Ni 5.090235725323412 0.6536572834553143 0.21225212448207426 -0.21132822479746832 0.6503559166615768 0.5897982096831779
Ni 5.523857084505533 1.709324280820063 11.352010880204585 1.2352291782393114 -0.37018820449289147 -2.237633138149643
Ni 7.860945280151924 7.525743282741496 11.340361957527865 -1.1533732240037684 0.6809060215342919 -3.0628814053791573
Ni 5.65609857988917 8.436807962919085 2.517147890743251 -0.7496344372489413 0.05119297793404732 -1.0647364994009665
Ni 2.6979130215507166 1.0507668045425105 8.806470125454585 -1.5193499615184736 -0.8725730204574069 0.7225972306254911
Ni 3.4507348063306815 4.471769896368562 2.6766142184923845 2.0002393266133747 -2.7897364043852084 2.3386237563321077
Ni 6.505142164933963 3.356590532700493 1.743276606101111 -0.45858787338422313 -1.0389953858811203 1.369652365048609
Ni 4.375197224938772 3.059033317909747 9.021074010087071 -1.1910470844054586 -0.18057705965754065 1.1966243213829197
Ni 5.871081036041747 5.266012945517399 5.207465474917723 0.5075121098887517 0.6498242125278229 -0.009386583421222543
Ni 9.161153782626911 6.828793114255791 8.073722788036271 -0.5168727251680454 0.4536858080969154 0.21121972424406202
Ni 2.371335068036973 2.0210825443400395 4.649346716300733 2.8791053791683447 0.06143445315639743 -1.1058335265515924
Ni 3.263443471854932 8.739785213863314 1.4482641306015063 -0.06285035966731757 2.2043568925950163 -0.4605275136090972
P 5.611436373970258 8.262443460836652 10.573870047491965 -0.02469673141573166 0.8036841679054934 0.2630832458825727
P 7.285867440780073 4.752577629758253 0.38044591078703915 0.6150461856166891 0.5519878237036235 0.6778368956906649
P 5.148018666121541 3.9290276048834234 10.901018628321358 0.08039582475024865 0.8266790861387697 -1.646364771678842
P 1.8388788417562314 2.911307324009258 9.320045789679716 0.7098090777218872 0.16539186727667002 0.8263142466001835
P 4.526330362520071 1.17405185176792 4.981928260116002 0.24058146523563084 -0.8799024642392845 -0.03298442534582062
P 1.8765051574724942 5.302965219258867 6.577483489042479 0.6686580574048743 0.421009658020133 -0.6615767250780606
P 7.117089176981896 0.7371480005030673 1.511591759151197 -0.4926310790118613 0.3062667232485822 -0.37340439743734405
P 5.4946609102000545 6.715267825487336 7.34832712486907 0.65650882363685 -0.9684833959034869 -0.019877455650217382
Ni 8.964527428472847 1.724245538782635 0.32696391179520146 -0.7082360768078125 -2.1886677639945336 0.1510008886623206
Ni 4.806556388452062 0.46102624385595387 9.044764277138167 1.9413749481769984 0.3936081260787286 1.55425731491862
Ni 1.3057485735006953 7.669535826213732 5.942186000966359 -0.6566715744669595 -2.035621305657094 -0.6035759801935605
Ni 3.524270015745238 7.34975369315819 8.815362862796015 -0.9506558808037627 2.5492693532402546 -1.177975595933481
Ni 0.09706481440590714 5.140142531813327 5.293874886050853 0.7703852966430473 -0.39393362773894736 0.0944949831557921
Ni 3.7095946250068614 5.34155181395292 7.811306243761586 -0.47711755675729445 -1.5398727640621737 -1.2635177407713596
Ni 9.178900476812595 3.727267451578868 1.6510565838071851 -1.2561106496740109 1.645141440794702 0.3523987417199544
Ni 5.722237794484406 4.218330113845866 7.4925628740233625 -0.2530657137455706 0.7525742366035555 -0.6837638026980611
Ni 0.9271308861521395 8.050037137711028 1.3847213626269836 -0.7781176322902986 0.40503385141716697 -2.794446151156052
Ni 7.943252268690517 4.902159547452354 7.5625118107939455 0.8154230536089763 -0.4459673564067351 -0.4020251464978302
Ni 2.792759037510828 3.2431945122559713 11.760460926681406 -2.657131501731572 0.4838592463565021 -1.8784232870451265
Ni 6.780686830849231 2.4925610555311613 13.019731074311927 1.8817888610832494 1.1578446295115608 0.8117085808718666
Ni 5.375918721215726 6.241868756340636 9.695899904931613 1.8598699495229711 -0.1663128364290426 -0.14520047993045962
Ni 6.522270217855107 1.3227842919047457 3.7345110944449806 -0.8791946395389826 0.22218599344757864 -0.2595351235199982
Ni 3.9260913672397986 3.908870979801558 5.3692697126397055 -0.2559047258562625 -0.7514275245936219 0.37063274822947784
Ni 3.390957439963298 7.321314661892891 11.078161476023181 0.21050470045490843 1.563554681060146 -0.5492220880330283
Ni 6.0162862976255385 7.9526242221756736 4.9306161222759 -0.46894119159408915 0.9441389056208515 -0.36267132729055607
Ni 4.947800499252473 5.1755251187641775 0.8126563985479467 0.8490266005960346 -2.809015564329795 1.0794167271209603
Ni 3.0898084124575513 6.658999170769567 2.1640920911073094 -0.8055425612704709 -0.484582754786088 1.88533261257045
Ni 0.7945274394614901 0.6551097054092205 5.410082492540922 -1.9579588206776086 -0.4288147558868486 -2.263112256257354
Ni 7.657236868536661 6.817509836266767 6.143923993986811 0.3391986980899126 -0.24189966982642214 0.17373792524852014
Ni 1.5113590761681173 8.504396829432714 11.851451053207624 -1.6037258539623929 -0.43386054584087214 0.0945500047634436
Ni 7.553554439290547 1.113055669774881 9.679872479454241 -1.0493073093300895 -0.7884403543725453 -1.0909992897522371
Ni 6.743540654621864 8.219258607191263 8.334355429440677 1.539453674246884 -0.6043673657466043 1.478203569187151
P 1.353716355131612 0.18457208294729802 2.9726266768121294 0.288209094415923 0.7551335126902995 0.31857639385387065
P 7.905432050488355 5.8975995093514655 3.856664120490804 1.7279299341468435 0.6554721548422195 2.234275791641636
P 8.763819888663175 7.476575152388342 13.095653130993394 1.1741037716829006 0.5831552504453634 2.6238621981554813
P 1.435543204181311 8.458054135302673 7.8794712776618905 0.8423016231673752 -0.28135839004267676 2.2518348835713216
P 5.486747842085003 3.4924515411542583 3.813351845211823 0.029631963933819935 0.5424999388178463 -0.3413617671795024
P 6.9607483726364325 2.1432503439085977 7.800386763769916 -0.3777817005694333 0.2120501905651574 0.9031676054148123
P 4.643835268975326 7.1315302954555735 0.8073508571956609 0.3004912542173857 3.2911238894334605 -0.5479601906014692
P 3.7723728631798363 2.705964591441412 1.0527972405734323 -0.2178266880376184 0.1342817761354268 1.1772276620238629
Ni 3.7702676361900673 7.036952049595039 6.01371570466961 0.5211716096537153 1.000992681385102 1.7886596479267327
Ni 3.3807914096311253 5.172699682541067 10.089457317146161 -1.2433934592176585 -1.6935447717987542 0.7108362334348209
Ni 2.592799407289628 7.020793509103391 13.356380876950409 0.09843262764730144 -0.1336773097822085 0.7330420801078988
Ni 4.611416620023228 3.25401611765952 12.766977337251248 1.890299726767738 0.45705780989294187 2.8272811954082018
Ni 8.91520232944063 2.842453474611424 8.527593106817351 0.6905258040122431 0.2000382537059458 1.154253826836509
Ni 1.2306713776506502 4.784183734959914 8.503119843061288 -0.026633800537444453 -0.39059582161496603 -0.840961564199713
Ni 0.2029457285040567 8.713100538422824 9.787903864455537 0.03349993152965843 0.6085052991743778 -0.5943009826495378
Ni 0.5308366788508933 3.3464060354649012 12.698812303350943 0.3175811198201369 -1.5665245623217472 -0.6274412168469323
Ni 6.867887548793867 4.116420507327978 9.51559460001928 0.3689337632605001 -0.9505898034525178 0.5128242661302845
Ni 3.7724744311486407 0.4537955278222347 11.23601933648452 -1.8667252818819076 -0.4203493987283148 0.6797202287563068
Ni 7.010553611157543 4.970422455940779 11.797056789186886 -0.20555018466311054 -0.28856982018945143 -0.1334741926324669
Ni 4.538500051873208 1.90480568696215 7.044800483548124 -0.4783270036843633 -0.395120706068513 0.6888059931076589
Ni 0.5893878428312532 4.504834886940325 10.79039264338969 -0.8511171645764761 -0.5026290707648375 -1.2003223390597972
Ni 8.900364172543444 1.600212581968755 2.676235646972295 -0.6014339941498932 -0.10914564318943139 1.396193605872247
Ni 2.631903075279413 5.8005743987879095 4.591304315509568 -2.318384289356781 -0.8802019977575744 -1.5931974436272434
Ni 3.092883151876819 8.656582580508898 4.1309733505673405 0.13761315450150494 0.030048482645948248 0.250029240912092
Ni 6.340879059021737 6.976962313838336 13.064435754108702 0.8871087521797366 0.232929862227644 0.7582327204409135
Ni 8.71809583579767 2.4722659286736532 6.255793724863751 -0.6196258345675716 1.2971290010679015 -0.4424711703280187
Ni 6.286217024901424 5.9319110159040145 2.7424551925974052 -3.1759574939712465 -0.19455434777323913 -0.5652714281864072
Ni 8.36037344966774 6.398800501595509 1.7753056033910675 0.5073035934223715 -0.034555883597998556 -1.2685902701982603
Ni 1.6841815918150607 2.3406338411028447 1.811239427408977 1.9187703234036053 -1.086652068527135 -0.06388342891752223
Ni 5.044363937230554 8.853328969535188 7.036232763706868 -1.079276087778038 -0.10904562727645735 -2.1468546846134897
Ni 6.214288436084322 2.6540633593822425 5.8769396611514315 1.4477907612232486 0.5799002338431755 -2.207382052574585
Ni 7.187337277587867 0.19649523913979136 12.642377446502405 0.7216286960646345 -0.5553032612301017 0.028373923157002743
P 1.3953130550829655 5.270509636499932 2.5807857632703817 -0.6125442451304418 -0.523040287431338 -0.2731192899623361
P 2.50413980397489 0.6283853261263789 13.130167773483551 0.34162067726784395 -0.013175875260325693 -0.026280016742451517
P 7.9157642829513 8.89095528525145 5.534776564497203 0.8367297855065525 0.7782639280601757 -0.3851815925779302
P 8.269414716877334 2.039272444207779 11.353281403159816 0.828898976608224 0.48042322409175964 2.1955629484524706
P 8.101984537028745 5.854396188802657 10.069888862938189 1.383912988732681 -0.5990703790137231 -1.813999926463734
P 4.4690183277591276 6.7639465828998855 3.9970079697495375 0.4814020430652613 -0.3660818956340018 -1.2346378245122158
P 0.6122175521830227 2.9675852121787356 4.515016614140405 -1.7071412795362666 0.8922108492929924 -0.6246646825430597
P 2.0179339373070957 5.619303274826763 11.910832304496669 0.6223175224671219 -0.7745247727327178 -0.40396684360523333
