# total energy = -340860.01986341743 ev
CRYSTAL
PRIMVEC
9.38185295512544 0.00000000000000 0.00000000000000
0.00000000000000 9.38185295512544 0.00000000000000
0.00000000000000 0.00000000000000 13.73129013205864
PRIMCOORD
 96 1
Ni 5.719524782877862 9.166699070155067 5.514842770002841 1.1360553015506112 1.2850628139319868 0.7037387031580912
Ni 9.250788619557309 0.9728418761258536 3.1603391394813225 -0.4195158470834259 -2.0454768582949354 0.6373011403601476
Ni 3.6604894813817186 2.3826341788789525 10.43520441785093 0.6927066137136457 0.944322225276251 -0.7615833820807012
Ni 6.502581152492732 7.4179404146291255 9.974903497024506 -0.10323621968353187 0.522288496866978 -0.36596902420522137
Ni 3.1627915558836146 0.3287701548156452 4.567068267194832 0.1856195071774545 -1.4260446277954086 0.5533967882360082
Ni 3.486484251797498 7.337519169791905 1.8377549141033882 -0.2064464712251348 -0.4458526852057419 2.111696905765434
Ni 0.900297635157663 0.29880639236101186 12.863019724924829 -0.4934299207640727 0.6067466646120582 -1.2067634666994507
Ni 8.992881477632995 6.951559114803753 10.24774467272529 0.25682980877369316 -0.37099630221648366 -0.07700453968051255
Ni 0.3085616432221578 3.0895099012611773 13.406723443506028 0.5780744934883463 0.08821994878035774 -1.2004467804528036
Ni 5.862269677907998 6.805474280067358 5.9038369162859485 0.6658473274289566 -0.07835385461955538 -0.03389922385060613
Ni 0.9763788347473693 6.604280440177693 13.324788905762572 0.38404002277431926 0.8754930223176793 0.43219241410982984
Ni 7.742955951831163 4.79419261088823 2.08199363423543 -1.7344803336708514 -2.073092820239991 0.6605169163549786
Ni 1.0149382510190654 8.683224033967885 1.143024000568781 1.920385747519841 -1.0424108393205724 1.2036483181092368
Ni 1.6535516101913486 1.3930832223686969 6.31971663901913 -0.13657751414813898 -0.6044365284216429 -0.23540866278543973
Ni 4.602418151518464 9.20745384005391 11.727304187926766 0.09800916695663767 -0.858517313695289 -0.8470669057665026
Ni 4.481748756850202 1.2158787808748288 2.0408814157331916 1.5893639288137658 0.7070808801574467 -1.030445182318264
Ni 5.455125398603181 0.168234451737817 9.229143746253067 1.0251751921685763 -0.19530253879317333 1.4305047204492911
Ni 5.956078827129577 6.0681825899107205 1.9223116797903814 -1.4410503571756212 0.8017658678368579 1.427173084972897
Ni 5.149530297333604 4.862952212312868 0.15147564753194576 0.10417955743340768 -0.9198653777854674 -0.3548909120141888
Ni 7.215498788276167 2.973615869824617 0.2695256288126022 0.6726854333967125 0.11545255924406568 -0.9096588695661106
Ni 8.576974547525802 2.836349977009243 6.247970793750384 0.9332505408431216 0.12363792326833545 -1.0464528706004301
Ni 0.3134786724357821 4.115331101884906 8.088087120280923 0.6903532829901208 -0.6656850908194794 -1.4485379238019183
Ni 5.508874035055869 1.9050884738556904 4.130481856468157 -1.7942368849041939 0.8286182121430117 -0.6572313036251713
Ni 3.349133922304157 5.8424645859981315 4.229663054779073 -1.10023443519726 0.8471856907325539 1.4328241126110872
P 8.963347404050683 1.769830297605315 8.315902906548342 -1.1513502800364686 -0.7907870002278511 -2.5193355417953
P 1.95316108917836 3.7632395366147153 5.631531444397603 0.552014820286817 0.45083471180136553 1.1060739246971725
P 5.182282346531778 6.198346419923739 11.32548598663106 -0.7647563804920442 -0.4272916343741028 -0.2744112693008823
P 2.232158636888262 2.7117871133013822 12.410229915696245 0.19044983868656232 -0.563305819819604 -0.4393976736090175
P 3.931512453950273 6.080116307063419 6.680822288754976 -1.0968878873225305 1.2757911588220736 -0.2001128156976231
P 5.759378894878389 8.299806461171856 1.7676565222403147 0.40260390181943567 0.25691388384706726 1.9052800022266545
P 0.1176362415586171 1.890143181855493 1.3273708468333647 -0.31192366442404346 -0.7586762357362352 -0.20011435835951988
P 7.46407098635855 1.5682424198851364 4.312366904477341 2.531484518453008 -0.055536085394091446 1.3612165755764298
Ni 8.304140877307507 8.022657138524126 5.1480939356228514 1.3872806196533334 -0.23085755307964756 0.5944624479280666
Ni 1.744621258305547 4.047622268008305 9.976853046100238 0.8562483151554544 0.854574012776825 1.5274427658289371
Ni 2.335527894426352 2.2638786822446137 1.151323187827648 -0.23269923427407663 -0.4865391071815105 -1.1014693360456254
Ni 0.5347956490556567 3.9089584790799186 2.0649796436250356 0.04248413730613974 -1.8486103174487518 -0.01710117845666087
Ni 5.278164885290107 7.235716681722763 13.735958938235804 -0.5373911568363713 0.1422578523623679 -2.4508264411803085
Ni 1.857090913357881 6.1837670201947335 8.938933007709117 -0.7725892462729017 0.2894481090293467 -1.5714091441075582
Ni 2.4030678549470186 4.697418796084691 0.2973568960559079 -0.3958591268964344 -0.19741315737827292 0.977539078347852
Ni 4.207019952304197 1.814713082871445 12.74031728268818 0.1104453358374614 0.6466391299316219 0.9314314853565121
Ni 7.793758686408105 7.383555922990254 0.6798372217265004 -1.1385731828764585 -1.0643063538420832 -1.0192346583144254
Ni 4.242877394880942 3.607163028318867 5.463995940716292 -0.33656023202580104 1.248279069444734 -0.4308528693627999
Ni 4.772604966887944 7.962838443110905 3.8243294731239974 0.6190298528547854 -0.6999496684293042 -0.8917508789374384
Ni 5.434044374670698 5.6403607063570425 8.195013038332053 1.2321741934630714 -0.9281864960566532 -1.3084999619090045
Ni 6.760028583614781 5.058873450756136 9.959112900059326 0.4750244216736916 -1.1217658815111327 -0.6238730398796997
Ni 3.614968730104281 0.4411450531515939 8.272168460102565 -2.245153872006721 1.411929271439949 0.017090894044015724
Ni 5.767860090087541 0.28208699193819203 0.1586968598687644 -0.07839216405665854 0.8570304447371174 -0.20591296731916797
Ni 0.8617147642531984 2.646104759695994 4.260846458137677 -1.5886288504199544 0.7021417909846166 0.5535356278067176
Ni 3.561895587075331 8.543021621129874 6.456535017441277 -0.5899511903212743 -2.07921615952891 -0.1817659377593192
Ni 7.107607477540278 3.7160769610434707 7.695880627493818 -1.024670741728332 0.6222213632088897 1.115916364708891
Ni 7.602434555987497 0.36930257479584205 10.055368836571333 0.5932447734708816 1.5412241358837455 0.793432151160182
Ni 3.208743872403996 9.054914290379578 0.24776348234451795 0.4797945893688253 0.7559207844782851 -1.0346255389481986
Ni 5.739010891782074 3.6438273102628544 11.593506766205225 -0.6214425760613362 0.23861919930293746 1.4906194263530004
Ni 8.50804607274523 8.552872566892715 8.412282683521365 -0.056209971532664486 -0.6788010593761471 -1.3320872623106415
Ni 6.616974087432098 1.2280658080614306 7.328499456214385 -0.8882307815993219 0.9175994645694262 1.0874737930974818
Ni 0.4548388059472552 2.249984157792453 10.069594540438189 -0.4026103295773389 -0.9569789948083132 1.4828996891112396
P 8.673016577786958 4.989241336992503 0.19685473282746085 -0.3006020687636371 -0.16033116492431096 -1.6653922206239382
P 6.277801333890892 8.304272223251012 7.612256418005706 0.3915049636927967 -0.12393128613903817 0.36311561391682623
P 8.454841583772776 5.2568680787361535 6.140207076216756 0.29043284154011917 -1.3781416334665426 -1.5775887905557089
P 5.4685226848406465 5.5441310390337355 4.09188303641341 1.0171268679428032 -0.266832942732992 -0.21739885647158042
P 0.3374962163909018 8.036532899270071 3.0029510481210497 -1.650925651576647 -0.3672116383630708 1.7970504430935887
P 2.3134899214769082 7.97705195056872 9.969809150787151 0.23728042588685586 2.502384772873574 -0.5323631074941605
P 5.821252216122145 3.495565885605527 1.7719271417748343 0.2139242676594187 -0.4030186207593511 0.541315431591442
P 4.936731105150001 3.0048199132600577 7.981601211140532 0.46105433264684464 0.23369296564591366 0.5560149425851456
Ni 8.450263239456332 0.5341023301110147 6.239580602516375 1.1265422198538533 0.11619612227830957 -0.32763644717360996
Ni 7.921717780940869 3.26435949762507 11.54406064758762 0.9323398561033944 -1.0793668477196314 0.0489013536863932
Ni 8.381353528381974 0.10634611952908933 0.8671759409470559 -0.177254680152527 0.7699559224151127 -1.7730869902994557
Ni 4.046055498539357 4.010620239352448 2.8849855035183603 0.6801460034398157 0.21198231344169943 -0.6518296729936257
Ni 7.172407936953564 5.8719142229024754 12.110874684928447 0.5691666494757552 0.29907354793425267 1.683683048513326
Ni 0.37587550108293455 5.160460156203805 4.339664344278832 0.07356466076102813 0.45155924867221586 -0.1885989015207526
Ni 6.967292482464978 1.2841317622316633 1.9839795384510834 -1.2363236968550708 1.261463172235176 2.3136598872979186
Ni 2.211481032639402 2.3678014691160443 8.382746733568434 -0.5980069707462153 -0.9752667373739076 0.5676975211293964
Ni 6.99563506070264 8.733632730714314 12.138281892411294 0.5604935471817895 -0.7662455634430609 -0.07527701546644455
Ni 2.846594960602599 2.1598902224014314 3.4614384567417997 -0.15217434014513145 1.5748505656889393 -0.08840326843575742
Ni 2.3369164086862573 0.632687780749606 10.861890158993294 -0.4997229528616361 -1.2572568474633121 0.06613545817649255
Ni 6.116058186318132 2.432254799964354 9.793101009322669 0.14605794283474846 -0.5560169994676748 -1.311124029795413
Ni 0.042434121605080685 6.1841141487597096 1.8363401306547817 2.1785823547340737 1.9247936467795494 1.5136554822368578
Ni 0.18600274333805186 4.991690000653553 11.880188989795455 0.5601006826187451 0.18806591183541804 -0.3927000124421624
Ni 7.382373809498712 3.8889376045485804 4.336643387578227 -0.3730979219405187 0.44832017290962783 0.2526880186911777
Ni 3.124250903318133 4.306223667062571 7.667662827902483 0.1379887926733688 -0.0511739517706538 -0.8709912777925838
Ni 1.4260322904821265 7.786656623605751 4.8498232470742755 0.5445128554828171 -0.04113276548456787 0.1873336616550838
Ni 7.458554456731358 6.645598121262985 3.7334962477081075 -0.47175963487949074 -1.618426650507677 -1.012135585375799
Ni 3.7449543049082594 4.3010636478534625 12.160211035864691 -1.6936586716687994 0.10062886396767186 -0.6875466667792611
Ni 1.5396746771728944 5.81819373200911 6.571576238430368 -0.3184468102545419 0.462960548530622 -0.9258871584995151
Ni 2.651377361142391 6.2722848042637 11.038831908600152 -0.08129725351859547 0.09373187973752245 3.5416460108215717
Ni 3.8694702593505825 4.896145208607091 9.779232754059208 2.2318075326068016 -0.3896401425699161 0.3343177158485275
Ni 4.242764812643653 7.423053524572697 8.71141931711176 -1.4167050955620377 0.8248793139258697 0.3277156371509775
Ni 8.144593083361894 5.974720569254117 8.005672231658364 -0.748516264484098 1.2996360837604712 1.5355967623946392
P 6.706974204292044 1.5372635409242748 12.294420320937654 -0.7022839729894356 0.44160985076898784 -0.8416498485159893
P 2.782526285731696 0.1754659841130538 2.4753813023287656 -1.1064817016585524 -1.2802679636465046 -0.9302868302291076
P 8.923474528343942 7.7023231460227155 12.264472507633302 -0.5125604709459366 1.3452047735292059 0.12649313332894344
P 0.7129758032727012 8.306711505058953 6.866647715069297 0.030319734029463915 -0.018049401302543108 -0.4412318986042788
P 2.05556401584638 5.16163288784224 2.6370803551919195 0.9780242455143865 0.8428155866893162 -0.05223221783183907
P 4.372590895944804 1.5727550912298287 6.010391312954024 -0.2585493625679611 -1.9202805894005444 0.9324349869203619
P 3.089969612063443 6.73382506788562 13.661782254826914 0.4799105461213993 -0.02573262887941375 -2.1588008012317728
P 8.841261349563194 4.393850175086328 9.93425943299233 -0.28428096300611044 0.9414788422901851 0.47343959368507493
