# total energy = -381168.854983832 ev
CRYSTAL
PRIMVEC
9.19989477698842 0.00000000000000 0.00000000000000
0.00000000000000 9.19989477698842 0.00000000000000
0.00000000000000 0.00000000000000 13.46497594573596
PRIMCOORD
 96 1
Ni 6.6109709443900915 0.266007603870185 12.35600085236757 -1.418855309135821 0.9080375319126038 0.3580700810731188
Ni 0.36058068444183244 4.4882975719378 12.081921260628597 0.023436119535753187 1.1780676414266549 -1.0957432321951257
Ni 1.867541884445431 3.1043573678100036 10.990679395731059 -0.0014012512229008127 0.15437469023055994 0.5689342217499751
Ni 3.3472529954732497 3.236909454900832 4.179151660435127 0.6852421870158005 -0.9676740126283141 -0.6267318494847335
Ni 2.0940984985972033 0.7561577694454021 2.9859528792427925 -0.8395163471127541 -0.04446748628475567 0.29226706653538054
Ni 4.96033498424647 1.3699839634200792 0.18787657563395738 -2.6080853949371985 0.7195980387878511 0.18749615537487707
Ni 5.3128473607775115 8.335040466385394 5.570595298921007 -1.6770316046350793 0.7249721586155707 -0.985667106771625
Ni 6.957834585394083 1.1541636267277045 8.90941107069416 0.8491003912567634 0.1419791447796845 -1.8215196318795466
Ni 2.4380089733077352 5.470239164355378 11.031451490370783 -0.04479941570287768 0.6999830927704009 -0.13705805332898333
Ni 2.028530846966419 7.482412598020334 12.285188340600024 -0.5982530253187502 0.18463683154921104 0.34918254877550187
Ni 8.998196497324328 8.652565642249694 12.775057909377889 0.3443347337648973 -0.349272794496463 1.4376811835930725
Ni 5.704459291038151 1.4371431968850326 3.365907622555015 -0.846232068570033 1.3494730618872566 1.381747605650246
Ni 4.880378696843194 4.048367793162376 6.343296319546777 -1.4882259864201595 0.8536376170054846 1.2585457414780648
Ni 4.115361428517415 9.107656847977207 2.363695901494515 0.8922833544021407 -0.2253134833329668 -0.28057677468164577
Ni 8.585921602904472 2.765479235661846 4.822791034131246 -0.28035334581693006 0.13532435846732824 0.9342977511607135
Ni 1.2557580671596877 5.9403169990300695 8.870564514076932 -0.10329535505624146 -0.9914667441725377 0.13178497785550206
Ni 8.564090252080865 1.5450763649687083 7.133528660075397 0.9353159080125827 -1.864524417575847 -0.4381193211172261
Ni 2.7166553929223243 7.38798487578961 1.3133954093046099 -0.40611731428933284 -1.595062264750124 0.5827562152347319
Ni 3.6201310809258493 4.997714157611964 8.921313894838947 -0.5683294982864406 -0.5534338121215308 -0.8769536660236058
Ni 3.7065180949307686 3.7879003660582997 12.144169590145115 0.7156015160339483 -0.24492251581314592 1.7149890577154594
Ni 7.547308657316468 5.987714858045336 10.014818013915809 -1.73602916621521 -2.6678434888324376 -0.5728824077644457
Ni 5.752096347323292 5.97501900295196 4.9496851858000275 0.11171648924040116 0.6777805885314327 -0.5185686248132295
Ni 3.3001219334128447 4.914997901710128 2.139154064346691 -0.4972978883599113 0.20879388841138877 0.6109591600315091
Ni 8.369990867472154 6.293519367685752 7.7986856681757875 0.6019402443623504 -0.6644100807617976 -0.12975534901998298
P 7.8700961731180215 8.58906796699283 6.990638650978463 1.116259864091239 1.112659034113858 -1.1916263539476961
Ni 1.2579936416435211 6.742971037781208 6.244948522058599 0.021733277912033538 -0.6837044102150354 0.4691075419686243
P 4.000831935722182 3.0793152536330717 10.139530870481225 0.04178222614310868 0.58647145930279 -0.36459579800677855
Ni 3.3560756947736454 2.2278925715123834 6.941464292239624 0.6827986105713144 1.7529161717785358 -0.7549041702883128
P 7.989170414040884 1.4967585164539228 13.186143257374864 1.5039824779234678 1.6012457678530165 0.4099868245470681
P 5.664688144973906 1.6045168865326893 6.217990989743666 -0.8154868169673761 0.5380452454806024 -0.5010851233164854
P 4.11167227062434 2.463161486224609 2.1084806944431977 -2.0836870508160694 -2.3307541237760443 -0.550163111790059
Ni 8.258883735615136 5.553433814796963 5.590321713769714 -0.3301535571685088 -2.4190769166828527 -0.12617457364726012
Ni 7.283612067069077 0.3712286429092759 5.101300375310407 -0.8129961893350385 1.845937655712595 1.4852512200625518
Ni 7.018176696667593 8.219103389655894 9.161448634014135 0.32773337776279043 -1.359127811368201 1.3646811370862626
Ni 1.1862344606809683 4.666195941459964 4.828311891117865 -0.8970689487162422 -0.7689143685244758 -0.14104532011150547
Ni 8.035777082086563 7.440387477682264 4.627790979802507 0.28933832292435974 0.988514089302117 0.4717503789081101
Ni 6.490240722368094 8.486516737481345 3.05935056150399 -0.5773113900700766 -0.532427899293825 1.1385608415812842
Ni 5.370604301557371 3.966267930225219 2.441725730885795 2.1245557640059736 1.7969918219415115 1.0683951791994761
Ni 1.4996656832724053 2.2635697643037656 5.350900886446154 -0.02389351878814595 -0.32868134349835654 -0.4282460278675721
Ni 1.3693767703503963 8.844061456574762 5.037974738089953 -0.7040598339429358 0.959666054722173 0.2726654902543691
Ni 0.21017804109181945 3.71536839391615 6.941181855463273 1.6208144340135635 1.1695991989443277 0.9543364149791437
Ni 4.9231306088858835 5.721368698039327 11.715781999630666 -0.2611639173726728 -0.27392661635497983 -0.6909479791513262
Ni 2.222289835460307 0.21199686033237028 0.3478636695899687 -0.11920225609448502 0.6857520367726835 -0.1993060035256116
Ni 5.449429001876237 0.3383491381859339 10.36108366174511 -0.16590171703355297 -0.29125508033109837 0.5943228370264088
Ni 0.16944090605307793 6.384211932548425 0.35090423488588207 0.07723131097933796 0.6245839499037953 -0.2066223346813667
Ni 7.815209599576665 2.4994090725056934 2.7915857776897224 -0.45747201461222503 1.0305819650064445 -1.0466598444049138
Ni 3.3652387901888634 1.1505020685196152 9.431299954013314 -1.9444386747039866 -0.11406647752981644 -0.954295534438879
Ni 1.4868134299641125 3.017464359580348 2.57072021858198 1.2027348051560318 0.9648375716207835 1.0647922923395663
Ni 7.689980628902014 2.940958032800273 9.854989158153714 -0.5357667338590709 0.22272232556702287 0.583782342506401
Ni 8.844760648594397 3.376039466913227 0.5216119664797989 -0.501830229012626 0.7200104437349212 0.26544943212190414
Ni 3.2739850317314843 5.4520877715298495 4.534895960077983 0.9874717640805316 1.448547693993931 0.41952278906196133
Ni 5.9286423322811626 3.561564549386412 0.24714045921403074 -1.0522519937807102 -0.6025303125378655 -0.04965108736822416
Ni 4.411441649147907 8.237199583111451 13.242871649894262 0.30381543349461226 -0.712923969201785 -0.2671221918386367
Ni 9.051657087141429 7.272636592339804 10.625589842752078 2.947846393288484 1.4214896614348744 1.503531249318662
Ni 6.371019283125309 7.361709975683321 11.650974259326485 -0.3137105811211371 1.1888793873301784 -2.025600173975666
Ni 4.572062615869088 8.734729904451816 8.329070654523008 2.3708041977193943 0.34349321170020847 -1.4802439966559475
P 4.140973936184049 5.675912016868049 0.17130572476860478 -0.380646423711738 0.430287226667317 1.5315711861750139
Ni 5.868751015862416 4.449106019258251 9.702404299710839 -0.8366724499060558 -1.8686718640853173 0.9102859616271483
P 6.3515891048954485 5.133872603540909 7.7643231403792194 0.06753208141370304 0.07507698364049652 -0.5591951400853402
Ni 2.054106555053073 4.946470742488704 0.21480834824290315 -0.14595252760513572 0.9316587708759696 -0.6184798938885864
P 7.8084568766501885 6.03413752819111 12.28458298750934 1.6564368112028636 -0.7589819399021123 -0.35350200208646215
P 0.12922632505006376 4.0295080084222175 9.478238738268319 1.7533455460064706 1.2009802843587705 -0.36034653581212134
P 2.5946463854959942 4.790256525470224 6.613753912626139 -0.42912431670746737 -0.8761663942356201 0.7445516234093951
Ni 5.590426592572659 2.4333170268601836 11.52813358139259 -0.1495754690697037 -0.6629723198740066 -0.6132507842791632
Ni 8.091749243237354 7.014726736044393 2.3386243476535986 0.6457626408639394 -0.6070716520516448 0.2803219783583624
Ni 5.039904876059946 6.602047046244748 9.374101446859664 1.096921311663627 1.5997247032227997 -0.23703668530716598
Ni 6.2692224450034315 3.7098024574440545 4.687413659287392 1.1453110158209243 -1.592736959051057 -1.215909394864777
Ni 6.395371405177602 7.277144540887452 7.281455611682202 -3.0429234741999918 -2.1323719176162825 -1.3372037576016003
Ni 5.2538484341733 6.673631429202393 2.2953609214491753 0.08697193530586957 -1.0866561822921932 -1.2368134920072955
Ni 2.124034956911581 2.6730202909600953 13.559231199062669 0.5664258535058245 -0.6116176195511144 0.8459641596206269
Ni 1.2419766244568795 7.132926986942711 3.4857997341429496 0.522786519549319 -0.21103666169897847 -0.3736085430283501
Ni 3.449565027714858 0.921691480094019 11.661261581910118 -0.43513761278108287 0.6467702561928474 2.0130159095527524
Ni 3.4603473046492317 0.9876087277346204 4.962570558730302 1.3482597583054456 -1.4098507916443657 -0.1544518233253985
Ni 2.5578836050951788 7.949721264301471 8.40828543038967 -1.669976754670827 -1.0207485238557905 2.0101244469375703
Ni 6.854878560502809 7.745087999923258 0.4189006587953984 -0.25392780463554976 1.017832635760576 0.9174598536677684
Ni 0.4986462686032835 1.5646905410984726 9.267297105891899 -0.1245295818446694 0.32010671445546807 0.37962415309481073
Ni 2.0924149178130818 3.2395498247644543 8.849074479357647 -0.03865705025056568 0.4125934089319797 -3.202478680190227
Ni 8.237024785106541 0.31364006020782825 10.733727248504648 0.2666262260388247 0.6076591491239987 -0.6050764759984869
Ni 6.998534920852843 5.575587161945402 0.7139468112284297 -0.2617025634849622 -2.0618889811043717 1.154262311476941
Ni 8.710000586704721 0.22643977548533334 3.397065826924755 1.192631912394075 0.34533052201926334 -1.0575222410407141
Ni 7.178494066853932 3.2514084894132655 6.872106283870819 -1.671074101500064 0.5719706945834537 0.46632637967906143
Ni 3.698974181034705 7.984331269273409 10.765908481197854 -0.3274474710912554 -0.64207670737192 -0.5997753755005477
Ni 5.151987196786457 2.3656057996955178 8.35317345942093 0.5627093238861858 0.45588384418949873 -0.19313792704168672
Ni 0.15198134533118915 8.400828915496062 8.431121409746753 0.86044255574246 0.06567188827651271 0.4845380175910816
Ni 6.686152486290858 0.7706844036428214 1.4021891158402733 1.4632564609590155 0.3839886007110935 -0.6671912430513607
Ni 0.8741418228113327 1.489748196467581 12.031683394028315 -1.2948150082227443 -1.6410191910962124 0.10654265834894555
Ni 3.9835269332362127 6.482678408682041 6.789000872410687 0.2093315060824137 0.10801770023257526 0.5004829709561123
Ni 1.7468484620034141 0.8692097591044065 7.289130164087196 -0.9590556748316837 -1.1773981261634563 0.3546271168298408
P 1.3485942075562416 8.976411145975696 10.242713212789383 0.9057734184687756 -0.2586185252429998 1.0845584192228999
Ni 0.5613453929745642 5.038488092230685 2.4229689849695837 -0.8224635053955255 0.5801848549631299 -0.2071995473410754
P 3.8190328107220535 7.315931298187211 3.7170602546057667 -0.0009338246681790369 1.0186206788795102 -0.4243479783647466
Ni 7.319243260385483 3.7868791777138324 11.977715889996977 0.7760396667153473 1.187665055307103 -0.1562377115812277
P 0.4910526752742461 8.501190569998688 1.6119053222033337 1.0592549074611048 -1.3081425785695857 -0.21530083629197114
P 2.90802240871746 8.33922641860821 6.427963873177093 0.6865038273370434 0.9027896532501033 -1.208145691758958
P 7.197445850544042 5.0676701591554565 3.2637078290323474 0.8028588437907205 0.7537520589617406 -0.03830326645557274
Ni 0.3874057382688339 1.4902265910073311 1.5102317626743917 -0.8982215742634467 -2.0423617097047213 -1.5627247289596828
