# total energy = -381170.6765382222 ev
CRYSTAL
PRIMVEC
9.25779952319132 0.00000000000000 0.00000000000000
0.00000000000000 9.25779952319132 0.00000000000000
0.00000000000000 0.00000000000000 13.54972539490270
PRIMCOORD
 96 1
Ni 6.706109386882352 6.565427862913982 12.025394826714413 0.6883311103537694 -1.3150182226434965 -0.41253067401484433
Ni 3.1770546636858006 8.867185340061384 4.839541631408597 0.44772830496189986 -0.31943668497163696 0.04761245967164058
Ni 1.746835706405886 8.498845264111822 10.87044358206058 -2.4859322837445057 -1.793655044258795 1.6493091990191464
Ni -0.027811356024834234 1.3103767403958297 7.920518849994125 0.2135807682770709 -1.016915266152629 -0.41543524925614905
Ni 0.46827894929721636 5.810509845641227 2.7984791644077682 1.0347299257365468 -1.1959018413945985 0.35371411809726827
Ni 7.1852838406253685 5.293702436190695 2.9018499040975567 1.9023597432560655 0.7065622886498154 -0.49902284147081805
Ni 4.9018105178500075 1.1183236859917867 1.5993552543510214 -1.0333466722357751 0.8636101548371644 0.43687207897368624
Ni 4.881452616349188 2.466157483901174 10.632957875716896 -0.7416331642110195 0.19078228232531658 0.02709762754774043
Ni 5.021810117328686 4.447576576450422 5.393644086878253 -0.6978889292455336 0.6586860337938268 2.5933773993030624
Ni 8.839569323609842 0.3669041912188768 10.190559105430838 -0.21639946867278861 -0.6895768098354124 -0.7535499702532635
Ni 4.55313400842511 1.1023447237405752 12.926275942674144 -0.8196026389079626 2.429097277033333 -0.03424220901232167
Ni 2.044399903786207 0.1704323890265931 8.953279173984539 0.5363578304758505 0.39883106504056476 -1.6425541396835
Ni 6.51704660177561 2.9217615796537015 13.056285075169052 -0.29483405593160833 -0.012150776429921009 0.9951493352304475
Ni 4.159436819146425 7.920723447367099 2.8742357392059503 -2.2093918839157625 -0.5951306776396847 0.9495613621880034
Ni 8.56639942839171 7.606078609573403 3.062888403786778 -0.8949799273976974 1.6994513670911764 0.5490827342416866
Ni 6.980047679474091 5.109333355522749 0.39049121324879354 -0.4742651749101639 -0.7968969697803308 0.01675999306715823
Ni 8.51933277480819 8.516907231291494 12.237489165870148 0.04653491033674566 0.35995881345539943 0.7510775974533709
Ni 1.4141011280334725 7.108851446450397 4.820260412010801 0.5788288551558677 1.004111686630058 -2.1599889080026022
Ni 9.301681652538846 4.934490550727629 0.7419422852383993 -0.39660526103383953 -1.0912646275984819 -1.1265193370357178
Ni 1.6711624518048425 8.192291743240235 2.3646577455271274 0.1774732239212363 0.16991855150242993 0.4028777243061127
Ni 8.831857576474697 3.526906913670317 3.0634577584672242 -0.7315793795194433 -0.3687519862669972 -0.28665563388587406
Ni 1.701500261362907 1.1857945300745374 5.628027504548482 -0.7962948174199577 0.755004700421919 0.5443079385608626
Ni 1.3944745927075353 4.428144454917808 8.580702728900471 -0.5155172395814154 -0.38365281463822953 1.5230459223128223
Ni 4.147503515356267 6.453112237171401 10.891567103595102 0.4161939817990445 1.0318330638047264 -1.0001339329292322
P 5.87283335310076 8.444909323164222 1.9872839086478244 3.280858245841395 0.38677130566255324 -1.2504699064484657
Ni 0.7554123837757761 7.019023016135505 13.79727936172001 0.5369908360741591 0.8249975846712889 0.04880802264163853
P 6.595524969680313 2.9819557931863643 1.8014770916892575 0.5916329488990715 0.08672253829922484 -0.059071095130543434
Ni 3.7719979024528016 9.008903737594142 11.32755669916128 2.422892947994834 -0.8322799772653151 -2.179878447837678
P 3.322837235278978 5.719181651777844 5.003250080526121 -1.145410517513266 0.42792669685494045 -0.5348506498027047
P 0.6768099613553332 0.9246449619635762 12.570622755408857 -0.25666217284757736 0.24299701665565895 0.42585207371409883
P 6.1642133402934745 1.8596975423297082 5.455932414698995 -0.02553362549473022 -3.0131457287169265 3.100206624192177
Ni 4.735281217169365 -0.053178652933608336 7.046047459187365 -2.0153317021701227 1.9114182539139084 -1.811578461506435
Ni 8.332519635024184 6.307607399568684 5.402397336477627 -0.5619948143176644 -0.5440626553192759 -1.0346592203996117
Ni 5.45114983538325 8.338842712207022 12.713789072811888 0.7546689143490551 -0.6630782493242515 0.7210345141240614
Ni 8.85974206911702 6.7562866611590415 10.459899974700473 -1.5710563887538298 1.2967474493587667 0.18812324743591474
Ni 3.156141294204059 4.191728024437401 10.622971487199873 -0.470198461039958 1.372583422652475 1.5055814469794715
Ni 6.581406825165193 8.303283503628284 10.53974849695812 0.22915008347023763 0.591822182091742 -0.5329043247096112
Ni 2.68573397675994 3.687085363769076 6.650869021959552 0.18125094579611364 -0.6496622330286618 0.558638753361238
Ni 5.230629046956914 2.419738876295396 7.554419161567618 -1.109971974199998 -0.6197397344376165 -0.6269611918867203
Ni 5.057758153494071 5.044871296336662 3.1877761214975777 -0.6850624669048265 1.2922845284914066 -0.5413167171430225
Ni 8.64077659103727 5.763720926048167 7.861659611175614 -1.575465573565119 0.830420298348757 -0.038697673680514
Ni 1.2146510916834745 5.540441313316583 6.366677716219947 0.30555195656974476 -0.6728952354146733 0.38227084668903843
Ni 1.8456256868129983 3.7415860304972806 4.312348822274745 -0.30684445012892314 0.5407649584046106 0.990037725035495
Ni 6.458500276586352 1.1852298042939327 11.537442127312879 0.9614699407001314 -1.9490728310418883 -0.05959560017544575
Ni 5.995443652089778 7.770460100727811 8.178181004964861 0.45975695399165983 -1.1519022958851968 -0.7231325343036707
Ni 2.9425823711386228 2.5993216745277232 9.153422619530723 1.8967827633889207 -0.3806772769496734 -1.4067317863994093
Ni 7.4967254797290765 7.406980369611323 0.4981594235509879 -0.4074427179689757 0.795229866490553 1.7995438989394041
Ni 8.360931822248384 4.121896441435728 9.677851049679514 1.5496892359319634 0.9544264035897886 0.04804003412736242
Ni 9.000803162872353 9.301033606561104 1.333654551916366 1.473840664232765 -1.0471067021343452 -1.9321539437993627
Ni 5.078134570594255 6.64912762983936 1.05724442680952 0.334868703255991 -0.7140855936100541 0.018009806313859306
Ni 1.749464921515587 3.7793300798009817 1.970929079729522 -0.4637030831236014 -0.5202041035341235 0.012435654660191487
Ni 3.931491275375089 2.172009414603528 5.376734715758996 0.6598808254328764 -1.0284965432323254 -0.751349620167835
Ni 3.004480019812782 5.753713244591875 2.3838306486686442 -0.6925868003063298 0.5372278917856296 0.004035089301322083
Ni 4.612161739197836 3.677161002509923 0.9170905974230265 0.45701667224236125 -0.28003324347335 1.5619834799182841
Ni 6.78465255938483 6.156038703174228 9.593557857794519 -0.6204516729029766 -1.6975438656558184 -0.4660129622037006
Ni 9.057794177715028 3.533970614827718 7.131884852059327 1.391168898964146 -1.1032971332829837 -0.37408625399571704
P 8.259253408340474 8.050989946693168 8.408105866308217 -0.34078995383643246 0.21251376046513726 1.0961504949358736
Ni 3.2391559839529647 5.587119139313459 8.018321023175163 1.0328998145063435 0.7787758346995878 -0.322144056600471
P 9.075171067718228 4.120813278872929 5.137757577886535 -0.10673420553446133 0.6808093480554275 -0.5810531165006961
Ni 6.477525054932956 4.224333994917567 11.13609984705676 -0.4104172272162674 0.8604330426607633 -0.089824060042684
P 3.8648814066627684 3.2926382927161444 12.51726357538145 -0.3738404565334981 -2.133923321263803 -1.2133066671346073
P 2.936185231558329 1.4593069638809029 7.427512317746164 0.8122199732906464 -0.3010209014686106 -1.5202452196392333
P 5.956838627415645 5.49156013099538 7.324480413524738 -0.5800514147090591 1.172664725243529 0.12134527057941681
Ni 6.421061734672158 3.2652722368560165 4.135904418134632 1.5098546204335286 0.606328089017401 -3.3359127636133774
Ni 8.51639805230898 1.4916722315693356 5.606551260846073 -0.8050180562255683 1.3749616930766642 -0.23058244504139
Ni 7.0265125760782805 3.7661284574543843 7.9138661951426075 -0.3869258289625465 0.6102209963139039 -0.9104746805991868
Ni 2.45518699127795 1.8171116637922968 0.5591229602372286 -0.030090648737793338 0.31271325020487434 -0.16467015861929704
Ni 0.9755128680965457 3.625280293091737 11.944801051582361 0.20416101762506778 0.6138909889663234 0.1045474822957877
Ni 0.8835477376150377 2.3223375658405905 9.687809664797493 -1.6731901194018022 0.6759324795791005 1.169496354817876
Ni 2.5040311424004242 4.63145499373522 0.014183874892862599 -1.1616287791443414 -0.19648524624736483 -0.5058681465274255
Ni 5.455760219624909 0.5508964794397627 3.7311062012572047 0.22244464642560402 0.2871269170953378 2.1457352262970657
Ni 7.003488428269032 0.7034622408599752 7.509529016689346 0.22222841664973986 -0.30415379067063747 -0.6116919244324756
Ni 4.808871466841948 7.339565072326664 5.796951798006871 -0.26166502537880737 -2.0508754036026873 0.3866224387895148
Ni 8.254300485510578 2.650683947163714 11.367596682786129 0.3769121534802864 -1.2373071438142627 1.3763883982208618
Ni 0.12154842936548588 8.151483362241777 6.538474704919673 -0.8269379962271114 0.8071497578565905 0.1425537863362319
Ni 1.1662976039441488 6.7962803557854805 8.8512230418496 1.3606879567664694 1.0077634244500322 -0.047171001258847794
Ni 5.020032619789734 4.360803220030606 9.02554000362278 -0.03524416791427479 0.15742556124174178 0.5506660195684064
Ni 4.668088107077075 5.2299347119807615 12.686079552583559 1.0674397572647423 0.7492372018105226 0.036370825319550264
Ni 5.241340321189043 0.5288721739961754 9.149127000478252 -0.7168739549884686 0.19093423452214858 1.8311921219723044
Ni -0.03982798001212987 2.4500026234560037 0.5551254423345212 -0.36331178908803236 -0.3413363132582057 -0.38944473872965835
Ni 2.350860846660974 7.749509700047341 6.994273214465523 1.8052566330534652 0.47000177164811957 -0.02236191263496794
Ni 1.5567915945328468 5.998489468185171 11.281189935233721 0.9004466069392234 -0.22989236095290086 0.6796024722315199
Ni 7.1477712363137185 1.96884700058103 9.35500194980759 -0.015561858993999004 0.5563885238744805 1.1315844102634511
Ni 7.042778530119635 8.820590834261647 5.501825179282832 0.10038923715304 0.0881790682400933 -0.16911379621294748
Ni 3.758981436099845 3.1670840134282368 3.0940529348564496 0.011338822051586922 -1.2926776501647672 0.02819805970077079
Ni 0.970532171867605 1.6057190658524596 2.6419390295840532 1.5274175690179568 -0.7302082102035296 0.9879147651552213
Ni 2.4299317137453285 1.6280859098842826 11.443556003397347 0.16565411979912117 0.786032259151685 0.31664960914480306
Ni 2.535424341122242 8.71819956977822 -0.25016611456818205 -0.27390141954399927 0.025136132945995423 0.30228202756922135
P 3.0480842563152186 6.620743216014207 13.767062829337782 0.07188213085228265 1.3430599592720611 0.20535915169822697
Ni 7.9109379531031765 0.9960281521919596 3.0130795899374343 -0.9707112567927412 0.5859844923640424 0.9575160982587058
P 8.61372530036633 5.264253375402107 11.990464222734085 0.10606314760936572 -0.932233155322201 0.7176830811533252
Ni 6.983306424962172 0.8026651191329068 0.4940461831522549 -0.17979775828935488 -0.487533866994612 -0.18368938003427718
P 3.408647780531862 7.446881486240941 9.14166151081465 -0.7351748101801855 1.3189211572423285 -0.1737222415192363
P 0.27851534875454315 9.241774430796328 4.457019532126109 -0.39547937495951246 -1.0344807858402183 -1.1590448204672492
P 3.1970700265983836 1.0100722343096231 3.1570318945334717 -0.20452277183986067 -0.08483843390263454 -0.2784880104734171
Ni 6.281694818258638 7.30158032023123 4.064429575689396 0.03697014946644601 -0.8301701300111638 -1.9294139191603803
