# total energy = -340888.9533123638 ev
CRYSTAL
PRIMVEC
9.08227876088754 0.00000000000000 0.00000000000000
0.00000000000000 9.08227876088754 0.00000000000000
0.00000000000000 0.00000000000000 13.29283301736321
PRIMCOORD
 96 1
Ni 6.31695174073316 2.21014522159835 11.328497604837168 1.5336401528889008 -0.028578840078957234 0.3923380011170533
Ni 4.744273481183018 0.43307119305352554 5.861806978058589 1.0753955217767093 0.06394976337908341 0.7146388950103627
Ni 3.098410221630246 1.5406723101819053 4.49192691471826 -1.1079947958689693 -0.4781873927827055 1.007255631575678
Ni 3.5650395254444707 4.545598639403732 5.1190564273990065 1.0083576063906055 0.9561600984514435 -0.681068258143769
Ni 3.3277195887270876 3.137282373530376 2.8886786140277785 -0.11443517372314486 -0.09808347183799881 -0.750254073110811
Ni 5.216170506516417 4.392026392562774 2.690482408324459 1.5276489683024723 -0.5534965470386661 -0.4577214116188698
Ni 5.29311556981032 4.557841550796576 11.49678495927359 -0.27936295687920276 0.054614087800454326 -0.5520361604430557
Ni 5.55382237361715 7.862946266105131 12.389651041584134 -0.30824390157961107 0.7394137879621976 -0.8216857466892364
Ni 2.0307611393134275 6.783926171129675 0.10727351582663683 -0.6009740237943392 -1.3435908920748667 -0.14709049786432085
Ni 2.815288354531472 1.6816020253768393 0.16492509494263108 0.14268722659030264 -0.3424161765859458 1.3894298047858522
Ni 8.334725221818275 9.024269968678476 6.5554133198556475 -1.4237252356336125 1.0857532108619496 0.04879979511152241
Ni 8.796740728163979 2.3134743038805414 1.2490439810575094 0.17136016904496296 1.4526113225403434 -0.9829875030569328
Ni 6.794961139484503 0.8671541519298722 4.632871161558763 0.5102122824287342 0.163450427279583 -0.10529361643319285
Ni 1.1203989557364342 7.7107181964794105 2.6421101931328486 -0.6372936841609799 0.08169371762606575 -1.4264668029344916
Ni 7.69774870280806 3.9822703165986932 3.5486278482286915 -0.09617725595422146 -0.16694841313051245 0.1342000150548979
Ni 7.533423038245196 4.091121424197539 12.522925304247146 0.8871581173604335 -0.41404968176253204 0.762586626534235
Ni 8.242485601561796 7.44417148760908 9.1098441047575 0.49849550821243827 -0.35576303020649697 -0.43769868864003975
Ni 7.129325221774989 0.6832452785055468 0.20652647152640335 -1.7414199982134786 0.41797447073823496 -0.9643999698627327
Ni 2.106371107670573 6.610136772389257 9.088242813617482 -0.885703644302094 0.6823946902646764 0.30843107788975266
Ni 0.1135085000040759 5.346383133103372 1.1750388513080166 -1.7887732906864613 -1.4226006351108662 -0.9093619071509822
Ni 6.55791367112156 1.910720664625573 6.9249939369575255 0.25298755220946756 0.3904500400657211 0.008783402619584872
Ni 3.441665854553964 4.447273892564758 0.615440620275264 0.10386742550962756 0.32821931626027345 -1.0309478329862956
Ni 6.5864956015023335 5.9420443673019765 4.689219433712687 -1.6661044161996146 -0.7270640081475931 -2.1096927308512115
Ni 5.561188101465516 3.0382401266913766 9.164424057291104 0.11290793844534103 -0.5522243651944619 0.4208654191327849
P 0.22373193988145157 5.454880031841445 12.225630541578244 0.3610620738219072 0.0919868720219577 0.7779885629116021
P 4.003931550776686 6.226673892628653 12.352324693481526 -0.5303031396413384 -0.5755108465262283 1.212402410152783
P 2.4993340507226582 8.653731171196817 1.1092005063689434 0.5476935672036439 0.09469861452616593 1.217514791678684
P 6.75960382935665 7.907967120537127 5.489953066652832 -1.148241302093842 0.623551651984539 0.494158057179349
P 4.935691582455713 0.9692698418069567 12.516477794753245 -0.28018133901544007 1.1074756901407055 1.0550853494644477
P 4.23176050648107 6.161717436930117 8.034653098389777 -0.37432305259687143 0.43115908774930906 0.7797343419581152
P 4.852706803971722 1.2043192089040047 3.310633098220145 0.3944861578083077 0.32858107047506635 0.7694355311352684
P 0.21079877532402513 5.5621599052630195 3.5239431235442606 0.27256238901760155 -0.3985078773731911 -0.07353380752309271
Ni 0.9706594304146016 8.998140253487666 4.6923164906748225 0.2946905883752086 1.1968678048522936 -0.6262459109872506
Ni 1.9578940190576464 6.558331455931702 4.474579762818903 1.729124468675577 -0.042497249932262296 1.5565376263123643
Ni 6.213250285033235 6.14450651920798 9.200979319950646 0.40434196755646495 -2.0619272905414747 -0.8388218921488908
Ni 8.707389272464567 2.6643953798425097 9.77003220288247 0.33938201774531235 -0.5886738662707475 0.6394390126387567
Ni 2.431316867175912 5.816581772360763 6.877219335689988 0.054483989980493266 -0.6261006436586378 -0.26728777088222355
Ni 0.5066876012840171 0.20562006013396575 9.297592057295885 -0.1484377559208347 0.6798642105333388 -1.2474059228111616
Ni 1.5204460760039638 1.2918178797932225 11.241469395973283 -0.5828721719873058 0.4381460605901035 -0.2897887801982171
Ni 4.066989810272622 6.850462943283964 1.451989310178721 -0.01127223047970962 0.33133755017428096 0.29433320503578986
Ni 6.214503639463659 8.215266012953224 7.853631481294669 -1.1431698011082054 0.43675637933142847 -0.8226329410938542
Ni 5.316838481203577 2.831427563392811 5.1051923292972425 -0.2667951475165211 0.3523406347885093 -1.214367504298954
Ni 1.0210479114290691 7.791659462305103 6.857187462271547 1.057977583410578 -1.1811048855910822 0.5674501810052808
Ni 5.212464936896032 4.405077626740457 7.298177493932952 0.0490839020108445 0.4632289717006603 -0.9923074949062781
Ni 0.8242730823080793 7.2052803167144255 11.250561664960951 -0.47419112713911876 1.4738936289578874 -0.8054998809579934
Ni 4.538596202694619 0.7615218038248134 10.481943876958667 0.15013082735254146 -1.5106647750396498 -1.5760862378682534
Ni 8.707362025629124 7.166153861016818 4.853372534984403 -0.2701648353197025 -0.501639967378691 0.9047912570611643
Ni 7.094313038229429 6.1384304749039655 6.930829300881785 0.6836720143152032 1.1697632353260177 0.2549277066549739
Ni 2.036128765895899 5.497784715387289 2.288587044385977 1.8213044305449473 -1.1022144417417663 1.1623687426341593
Ni 2.28558262666435 5.245551677403549 11.17838116495836 0.29978882883372243 -0.06268220952056947 0.69547440626677
Ni 0.9900410126937785 3.2385134494833783 3.780907120388931 0.5468972965545935 0.03181663028996456 -1.1849931649018948
Ni 1.5130349367631912 1.1029882278877077 2.3503456298312324 0.6392459227913442 0.6154729887414626 0.4740767130484417
Ni 1.1260662975087896 3.6650444938024918 7.89335010154926 0.2438537082289994 -0.40177934903561124 -0.45500966911466156
Ni 3.646371329244859 2.664177405158957 7.028944247087841 0.8326918679917531 -0.10288192166790669 0.3203504550351579
Ni 4.596931677380258 7.048629177468295 6.1120573546498544 0.2925683998258832 -0.48149923076475776 -1.06789150009018
Ni 0.7415789367354896 8.954191107916467 13.13415628844631 0.5957001769899096 1.901958136942273 0.22025715185598196
P 0.1357301107643675 5.890902057173559 7.645531959135298 0.800532509650389 0.08899076550811125 0.1088291403902771
P 8.666936804108683 1.8278085443694312 7.618056250273552 0.10185656572718588 -0.4980247392236068 2.497991014681253
P 1.7695184810761988 3.3907415191090977 10.012706142764603 0.5040040967354933 -0.3392357219754351 0.5742751743469142
P 4.22043490521484 5.982651234392042 3.5427525222791134 -0.7564961973657811 1.7970614988371825 0.584558044330161
P 7.219930031904825 4.227183038126475 10.303340870623142 -1.3079705717680958 0.5849447382456184 -0.3797830472701782
P 6.253566519211897 8.095979367379321 10.135731962389274 0.7676370444739489 0.06349904899491 0.5091198206955039
P 2.926618924155723 8.516979304103298 5.528847924249165 -1.6205704363235574 -0.45378428134799265 0.5798439266839434
P 6.975716645820107 3.962570854572669 1.425709737392967 -0.018274372829155623 -0.3742939991311489 -0.2574131920809889
Ni 5.204399873604602 2.885448955799814 0.3486668544428998 0.7372082956704464 -0.2199956706644792 0.22640388818366813
Ni 1.5537326266380704 1.2484318354878672 6.664387946441839 0.18575911807911236 -0.1944173079747426 0.76873079175876
Ni 6.976888259744199 0.9837015823138041 9.163653880075888 0.270365895586915 -0.5426040684958784 0.6807916074436147
Ni 2.8013288925056545 1.6180351582859491 9.069819411718088 -0.10333032205923494 -0.028181604640538566 -0.23103650185967306
Ni 6.691114367328875 1.8676706646240269 2.392271243756789 -0.24208838879846048 0.8204701291145806 -0.16507382181561894
Ni 4.253930348254017 6.585778101502307 10.21861229467073 -0.662125398492679 1.6735302763500404 1.23221147445891
Ni 8.3169966142227 7.448158607862388 0.22876079747656886 -0.3003886672012504 -1.942495692045003 -0.6349832908602484
Ni 7.5731035129301665 4.1085866457171525 7.980710721805561 1.145597950933724 -0.9574438502598738 0.7716615922523098
Ni 3.037704272260978 8.637101519297486 12.196586323222771 1.2370207229220955 -0.4218138990889832 -0.06098116766906272
Ni 0.17817886393044877 5.179541677401179 9.748285595286752 -0.23533692900723988 -0.3433998806554538 0.4573709702579865
Ni 8.629726709170638 2.508797784900213 5.626882946404583 -0.5035862924717843 0.3071835786358968 -0.8056878285990834
Ni 3.6217946836743566 2.7522664241494623 11.555432864338988 0.19830455884429074 0.6889036950277877 -0.9797844227386028
Ni 1.3322612658706243 3.341697215309868 12.332717870696012 -1.5045239522492346 0.7117795711846968 1.2340845231119069
Ni 3.220457879862477 8.378946835743912 7.8138456521793165 0.8295862324832357 0.6137830026335493 0.32540164430582025
Ni 5.740354209066886 7.991669399021145 3.414636085565652 0.14839867515278313 -0.030836525764882376 0.029485411053626637
Ni 3.456179335567144 8.339974778780487 3.3274752754359396 -1.1546664888938953 0.31604051480589446 0.08466462732893161
Ni 3.6738361393724275 4.365451645726377 9.363896323121052 -0.5573022939380016 -0.05384378529333308 -0.6082602730431073
Ni 7.307392373680118 6.350810474911592 11.407523418131143 0.4955415677904369 -0.4289032018355968 -0.22708857295551857
Ni 8.368792848401775 0.05353912341964402 1.9998804842490276 0.14105226209004096 -0.5222293614942685 1.2090612615946918
Ni 4.87189765840279 0.24026441140103258 1.3320351171364386 -0.43990392382147464 -0.12823454150008237 -0.3727356535050935
Ni 5.8495322786910595 5.765148829320942 0.3523996708987301 0.8289475704579724 -1.3654380698569453 -0.13479728231926463
Ni 8.011968291426937 8.881342152217648 11.384925801041726 -0.11881530506871149 -0.29393314138389376 -1.2767177844014013
Ni 0.5344067152090631 4.6999701267510465 5.688707832482753 -0.6345040372309846 1.358745488328118 -0.05239214044847107
Ni 7.736130411670197 6.904284525564377 2.695294199463872 0.28898402490873454 -0.7286285244212354 -0.8901619371837638
P 8.701894493983357 1.4895027532180427 3.6133109273449384 -0.3698745299072146 0.04999638652278486 -0.2355881257860975
P 1.7235167405682177 3.302289208979339 1.43719427853262 0.11444288703262871 0.259330720818676 -0.27020802985281206
P 4.925047152075585 1.1043142405459834 8.0837973072523 -0.8375093439850544 -0.35714448393505593 0.43861888646146396
P 8.53538000030649 1.7445785443664426 12.168086133348329 0.5625812829487536 0.6889060090206329 0.19371539681171154
P 6.445184430611183 7.702689462301907 1.0936452880139547 -0.5406466876591914 0.500376527285235 1.8187731794826612
P 2.1077334494427737 3.179206171000236 5.731044873623514 -1.5521888624253655 -0.2329925971447794 -0.16648535745116488
P 6.95307452556613 4.200617373568559 5.870925585653854 -0.16151232971660573 -1.4380064281429752 -0.6362305330037881
P 2.3359983545142615 8.6469739560067 10.183120566821355 0.7084937013445733 -0.6925577468406072 -1.685260420302775
