# total energy = -340890.7269076423 ev
CRYSTAL
PRIMVEC
9.09980966576217 0.00000000000000 0.00000000000000
0.00000000000000 9.09980966576217 0.00000000000000
0.00000000000000 0.00000000000000 13.31849126869920
PRIMCOORD
 96 1
Ni 6.270642391349151 1.8415193675408597 11.266405098632424 0.9312049711680026 0.6943534052884492 0.8331788349305004
Ni 4.745687199932161 0.2506478853745174 5.972837472701404 -0.5862014934708549 0.37944314743225616 -0.06139125862328782
Ni 3.0386084193193814 1.7375267435112063 4.864299578054047 -0.4787160115926659 -0.7097635691959325 -0.009586615247170586
Ni 3.2806542546855653 4.089663726748246 5.118895870811 0.42588755493772457 2.0062950458891513 -0.664808858862113
Ni 5.144231560680038 4.789420884836477 2.559667240816693 -0.37395949860986566 -0.25036965497064617 0.11582639764371665
Ni 7.23170058190251 5.989103382349024 2.636688029212474 1.3315195627326293 0.3559422360968386 -0.7129172843335657
Ni 5.14556923269022 4.94846735690423 11.504233172252219 -0.15105796715250114 -0.1652247455711864 -0.09321457378147173
Ni 5.795204639539796 7.893893725990529 12.545992114200798 -0.6660098211487497 0.200866406034196 0.181211607917746
Ni 1.8907948364873572 6.538659083293969 0.35383244631230587 0.05091015658630586 -0.07381560042956965 0.15355605098400651
Ni 2.6168868435379444 1.5556579489840225 0.10035634011626099 1.1246331757565986 1.5067602977789212 2.146585233002187
Ni 0.31835592863274625 9.014780972236647 4.891336022336031 0.8150461298855318 -0.27070348143199185 -0.3849424799839306
Ni 9.048868858972304 2.2617212751202533 1.5418817472410675 -1.0905012670698961 -1.0070959660693621 0.33860837280408135
Ni 6.941625951504079 0.47243117471980295 4.710736651247081 -0.9093449378701177 0.8202104476952907 -0.3775148200612917
Ni 0.7426736800910873 7.401129936715962 2.555299332212017 0.4454081414691555 -0.8574695891570652 0.37412276366060726
Ni 7.657562571048796 3.5240013628235594 3.8522005554931344 0.36808298522443056 1.3194227794690956 -0.5872168221092469
Ni 7.91203874631912 3.7969865508061966 12.666378045212374 -1.3306531009672762 0.24031458472748932 -0.035189917637571656
Ni 7.90620576836996 8.939097855851047 6.831666582324248 0.24504772853710058 -0.6185290019589671 0.7113939057105039
Ni 6.83341101582324 0.8254064189684412 0.40813556005897694 -0.9163627639488476 -0.09307033489412359 -0.4006269805987229
Ni 1.6021306765758532 6.6592952590693555 9.09149509704914 1.149901206294768 0.13944249440075984 0.655063092329259
Ni 0.13674738865992453 4.571016354793099 1.3643326323277163 -0.38458715352704087 1.9216018793151295 1.125653646601313
Ni 6.4997482974739835 2.0171820919255667 6.7304857994588545 -0.5349676349965432 0.28292496319884824 0.8998997332968179
Ni 3.341823174770211 4.346423954226431 0.27832404627089363 0.38822500738994425 -0.8686155784715557 1.3559190746229164
Ni 5.93865403796502 5.770334859921924 4.6999624766888815 -0.1707356480870866 -1.3615590465175131 1.310697998001588
Ni 5.363937363495224 3.0765819247512805 9.216942342156386 0.1467724524032698 -0.6028535002052392 0.017398912202737777
P 0.08623070568493169 5.846818759551714 12.783660941152714 -0.5236946331858853 -1.0420488279954634 -1.4741995902340803
P 4.012424542922231 6.23902965282281 12.953111225528229 0.3722157764458815 0.7459685583615798 -1.2212009822810193
P 2.345767116521888 8.37799449653249 1.3902243205628906 0.23562386412003938 1.184871551722366 0.8933639890608291
P 6.265291703308423 7.817655521219753 5.7829553858465585 0.8010516153786527 -1.747945972257454 1.3467944866138288
P 4.7470976704190875 1.1643661364818265 12.585774661779801 -0.8732790453854959 -0.3998908737636468 0.6140753370629876
P 4.015236384086491 6.240076130926014 8.107192352871232 -0.6410837473310314 -0.1967863224275514 0.7729877672629011
P 4.702526803032209 1.0099332678777617 3.6847467693423397 1.1370541751287706 -0.2422745366673376 0.33958462067442163
P 0.23282317834360336 5.30611717334083 3.6698704006195815 -0.20730341990879136 1.6495033173078237 -0.4981144707239357
Ni 1.7676653128834685 1.0763709777167976 2.7413049001802126 -0.47184345284254864 -0.09190022584542237 -0.5076635478649516
Ni 1.802490284196164 6.5808003015194965 4.874114632681137 -0.24299341711123312 -0.5753336975184156 -0.6357561644705308
Ni 5.778943279796972 5.511727371096344 9.27313275641266 0.30589648439335704 0.9920416428394011 0.32949638320048413
Ni 8.711375120784362 2.3189863768894696 10.431934359328322 -0.2749476014203265 -0.5093087967778583 0.6357093703929955
Ni 2.138327857038165 5.214018000449324 7.171088570164961 1.2179580498636895 -0.2156127111054351 0.009359586838029042
Ni 0.38088709021347517 9.02411737687914 9.189279830974398 2.3056046210936096 1.9592837101366194 0.05725281097488204
Ni 1.55715941756688 1.0688636348025111 11.566523188878731 -1.415722162823478 -0.45295201525468437 -1.7133538361048815
Ni 4.226224569311513 6.887090792612786 1.7376232014928927 0.018630213506677592 0.9537615163122798 -0.41049410320078983
Ni 5.801501707778204 8.124755895366825 8.1973714659386 -0.8295270971105263 -0.8714782447313313 -0.8221698854145065
Ni 5.293031647145988 2.987594886740607 4.544682415811701 0.2245688918574584 -0.11344375634415302 0.11589016100211653
Ni 0.7920028379141839 7.408427984009607 6.856625540076132 -0.37191264338316593 0.32962956634423873 0.4891850294447898
Ni 5.197865838421618 4.675418470254441 7.08816746522903 -0.5425215360844011 -0.8682651371106723 -0.6057968991042793
Ni 8.145594459334966 7.373657611554469 9.200427097725914 -1.2513574512597418 -2.5200999307651504 -0.28663403661931924
Ni 4.701680520740053 0.3663319447693527 10.16738924474326 -0.3870808664831721 -0.4450936955525302 0.044676002751135965
Ni 8.168962770369982 6.892850972085202 4.791566619938523 0.15754048955305125 0.5675214005628484 0.22708445919046052
Ni 7.119882121622813 6.095052465441188 7.283217333951781 1.134881335847168 0.0398919510989313 -1.1091849595223284
Ni 2.282041149941588 5.313579017207151 2.4755476909573546 0.18464891573406908 -0.733058278057815 0.8375419969952027
Ni 2.388763716849164 5.259216754698125 11.55488362242823 0.26850853066320207 0.5980887318267442 -0.1600159476767373
Ni 1.0445671431890027 3.29804399081793 3.763592069561532 0.3951176207447195 -0.3913481263999583 0.2506869291007489
Ni 4.107490253741079 2.71271693836261 2.335211337393922 -1.5852583912858247 0.45799857653965637 0.17722125581143028
Ni 1.0908123755410066 3.3936556902123627 8.788419568685086 1.0110464660766783 -0.18076140775420482 -2.1223916664751186
Ni 3.5126902994993676 3.0131835513163314 7.450190650156062 -0.8050715351713232 -0.4471510923021912 -0.4743158256424412
Ni 4.05765059659981 6.906855579048942 5.966537674520118 -0.034595478586682354 0.227683269116724 0.19013462143898865
Ni 0.837168832848449 7.4318781933309594 11.246893286902955 -0.24358219973516762 -0.5268437203378281 0.995164504739099
P 0.15157279844896124 5.406142280387903 8.108816668883597 -1.0054419754057071 0.6903599678583401 0.7132294162573458
P 8.553557123011673 1.5639842747616857 7.9735407194348715 0.3829074518317728 0.6103004434015876 0.2504161919378655
P 1.836414374359145 3.0493370948296157 10.73760697335024 -0.0016848439015906469 1.2289312610457415 0.03998708191589888
P 3.816087051142059 6.146903180502527 3.891250568399894 0.15201133220470595 -0.6276013965738804 -0.2673782737135008
P 7.042169747697958 3.7898250006564465 10.57364296417839 -0.4497741317473351 1.3592779637928203 -0.8218852642945523
P 6.361449391278439 7.890381199487603 10.401475476658383 -0.19929700466454708 -0.6702457136069683 0.05583227647827159
P 2.323017592539202 8.841265802915906 5.7373398603183965 0.7322180415447067 -1.9215342593019875 0.24009629806909616
P 7.067585515891414 3.9327739095540517 1.6148940695110994 -0.0106083716434656 0.13476694330196146 0.22677798369363525
Ni 5.559364874316088 3.1033990636220707 0.31599543802430274 -0.45925995975058326 -0.5683914618726276 -0.3575394053806294
Ni 1.5574688110930444 1.0902845865846083 7.139524060629464 -0.7609719737489475 1.0350225172763012 0.495083911427728
Ni 7.091135823118291 0.5865764563124495 9.315605207707376 -0.35796826538793186 1.511580344875384 -0.6441613578150905
Ni 2.674197444355127 1.591065308110675 9.387218889242952 0.6282567707696922 -0.8244383697337092 -0.5866450087661768
Ni 6.563901955105158 1.8504462807516657 2.60777429421144 -0.5212307450264249 -0.16574128019628875 -0.6146116691824318
Ni 3.896119876513148 7.069496475905961 10.867768829807657 0.5158044318045311 -0.45484614695360376 -1.4002718897066788
Ni 8.072104397061297 7.551131198048199 0.29243694096879264 -0.698341700512236 -1.579774485353118 -0.5543614661421228
Ni 7.888543037949802 3.633754166325629 8.36823404076296 -1.5437967817069282 0.47704170921403644 -0.39266993053517535
Ni 3.1086405539476814 8.512735377177142 12.573121376540632 0.8501535151116262 -0.3198472901464943 0.15519230103584883
Ni 0.20563476724141586 4.79266041705161 10.528294063071305 -0.4618313200221853 0.6527372724095598 0.020279061964010234
Ni 8.698708185830803 2.293306714217814 5.735621816267223 0.3135689133369503 0.13226037483002384 0.41994033621535415
Ni 3.828926882477887 3.0798123571568223 11.599060468059728 0.029628107279078005 -1.6360088823658148 -0.32250401104305104
Ni 1.1477316845456864 3.6195220641220605 12.72845512629441 0.3069472942553746 -1.0798653846226047 0.4110337777543438
Ni 3.3269267864663483 8.38133412665315 7.967347389025825 -0.6524981598155601 0.22247472833259105 0.1800965204766963
Ni 5.661246342520149 7.765577310918588 3.636667015376372 -1.0289403156379635 0.9985131094963577 -0.644263944831226
Ni 3.0254136954094233 8.34593586733609 3.700009879972803 0.9107089080971799 0.17378189111257814 -0.12686414351511702
Ni 3.3266992912265216 4.454875484956691 9.474082031694602 0.215864422104925 0.6100736721027622 -0.43501959914597976
Ni 7.301860113865113 6.031599493148682 11.35185595063523 0.537362617591281 0.4791014199565427 0.35186960868936173
Ni 0.5995464149254583 9.10790842361217 0.20058983280301543 0.8465953654467228 -0.23334123873344975 0.7525009601634589
Ni 4.272997590619915 0.5192005561043678 1.5861787103591938 0.730901122505496 -1.8907473558281183 -0.4933111357980214
Ni 6.079537290084996 5.551411640731741 0.30233116393934234 0.2990848607881624 0.5895899503271136 0.5854916118880239
Ni 8.116611565781024 9.022670507153842 11.390040571649688 -0.21723199187641298 0.062196785243718695 0.889056619934727
Ni 9.214467193947069 4.9220506096555345 5.964685863267928 -0.813357172218883 -1.1087812963260066 -0.8437758937200566
Ni 7.973790054217722 8.694158281034266 2.389430732892336 2.1360956463247724 1.8423859338055948 1.9298083263853214
P 8.535894392591517 1.424356796365553 3.6330316414439388 1.0905562886775475 0.723582734467212 -0.7404427434473442
P 1.9715829460546712 3.1262577853198734 1.6639857223038168 0.7384359974299605 0.2982351111933574 -0.3556275330698972
P 4.738689446355087 1.287595757991239 7.993452012805478 0.1608919225237874 -0.6338730885152051 0.7902552960940971
P 8.56991858066002 1.6921186936417654 12.81136258151595 0.4381362903980906 -0.11294161989675387 -2.1243891565211217
P 6.32335758832183 8.048599588882386 1.5757375888321004 -2.8520280633355783 -1.5383799815667312 -1.7826972596957105
P 1.6658566431561528 3.054806080395054 6.045982652191494 -0.11024324712898431 0.9056636323637887 0.6504140235930218
P 6.818578326186529 4.046275834608468 5.770009996719452 0.7493112495815676 -0.04117158914230329 1.2554542470369345
P 2.386543363308454 8.579309584160075 10.17817706901585 0.4809505573501394 0.5464987755645944 -0.08102008859780885
