# total energy = -381172.1109482267 ev
CRYSTAL
PRIMVEC
9.20593823184134 0.00000000000000 0.00000000000000

0.00000000000000 9.20593823184134 0.00000000000000

0.00000000000000 0.00000000000000 13.47382115279510

PRIMCOORD
 96 1
Ni 4.080927962013165 5.446546040378929 4.674257123090199 -0.4085971432883931 0.7523904027275236 0.310405170896988
Ni 4.824104940935455 8.737981948391045 0.32751229855236325 0.4400041968447648 -0.7066571623564669 0.7178082938772798
Ni 6.172176501094081 5.80463862444046 3.588913833190508 0.23876395241091783 -1.241578774606423 -0.39921827317665437
Ni 9.176497608558327 4.444157459589692 11.358552601439555 0.16593745536749485 1.560145912488913 -0.42760505184946357
Ni 2.4539809159947015 8.525149863170249 13.441767118254276 -0.34791808024078147 0.93397456349334 -0.4661985958519455
Ni 7.865903422807499 1.362874708782487 8.364197842669459 -0.42547463577002204 0.1097915043035464 -0.6443305364031032
Ni 1.1397503846552999 4.047280257896118 13.344997978282525 0.10262686823430711 -1.0065537204126473 -0.6762680085416483
Ni 6.7097572622199255 3.476420030181184 8.052170852761495 -1.0235543687357018 0.01687517848878384 0.009874835911550734
Ni 5.570421144783577 7.979826908019114 4.276725379190682 -2.1877362533192 -0.1179807249825581 2.9422940960116875
Ni 5.7401970570480305 4.249056011340013 12.746045830153589 1.0764710142290752 0.5824021743294228 -0.806978779496365
Ni 4.45745083434893 1.7371513321977163 3.2059882308373946 0.7835876542659344 -0.6080944368892044 -0.6144748864942514
Ni 0.014031691002791532 7.345611413619223 0.7205754800501255 0.09104302005144965 -1.1832844097409039 -1.300499203091715
Ni 6.68230515451075 0.29348807156298046 12.24682713409646 -1.4472490297871654 0.45207963995206013 0.6281187025299312
Ni 2.152458822165525 7.101350255387319 1.7700156109740353 1.152590323091157 -1.467838166792427 0.667712148551837
Ni 7.005912294079132 7.60508998769394 0.46063108550254417 -1.2734643104611099 0.9275349785155832 -1.8459124589016145
Ni 1.6183026700496788 8.457016714560053 8.763575377177858 1.5268812368985123 -0.4502333307719407 0.29421467718005456
Ni 6.172553944560237 8.848793826491427 9.989262274326242 0.5950782271351944 -0.11863532784742148 -0.9597365029487923
Ni 7.751510434747738 0.6174413544076418 1.197621673955161 0.3679860546352501 0.27713895264469046 0.168445052280697
Ni -0.014709248054231929 1.2510777952948209 3.4095775541064763 -0.019819348718772316 1.0147429410916589 -1.5938731295380293
Ni 7.390011653552608 5.459959092334754 10.192703381990322 -1.0724441524578692 -0.5511373027778701 0.5101901709415472
Ni 3.1345114854733516 0.11895821281260456 2.20663484787234 0.4341546800425233 -0.24917640599349344 -0.5766642434043812
Ni 8.168300080765572 7.627147415618548 5.07440243284439 -1.2182825230826437 0.7700621089756737 -0.0884469771894993
Ni 8.580523581436744 1.1876857048570684 5.597173601189633 0.41433687398564767 0.9418897045753585 1.8485121013079908
Ni 0.7783455040297985 3.33983152512383 4.385378464783417 -0.1441363003320034 0.6310294484188229 -0.989421945828367
P 0.788819099918708 8.55042936946448 4.386765799669995 -0.3194163732566628 -0.23617665129971585 -0.024262729202106603
Ni 2.34895957302144 6.616132870736925 7.023794829030532 0.026702191881534658 1.6767400415365896 -0.6994382760105246
P 4.062967176587075 8.936931478807871 9.048762454266875 -0.6078283277120112 0.56986367554278 0.6901717631069341
Ni 3.3464690065652505 5.261064797547121 8.566830668959673 0.28102517507297403 -0.814062940036656 -0.03482739209183035
P 5.944605708816816 2.2981427941634096 6.129321938184296 0.9502581311447118 -0.06873150103844292 -0.022302263041626108
P 8.258591922620564 5.126381921696943 4.079293907982857 0.29299391739907604 -0.3205656563697576 -0.6043539960101656
P 2.6352274272550082 2.799037891566564 11.855372230002049 -0.578123858669043 1.4880727486717469 0.7531936153551092
Ni 5.418302221984648 5.835938814316783 1.0800240988083567 -0.09808347183799881 -0.6855000686628775 -1.3168071962231194
Ni 7.479962875694239 8.027080988794163 8.142297908322728 0.2530580004360867 -0.5479756172204369 0.9744637818566378
Ni 7.819477876470353 7.592367381103035 11.317215177144952 1.0727925369362235 -0.9954216150552276 1.0180223831738788
Ni 9.040304958843528 6.661232761973426 9.29360818957441 1.4034644285020474 2.182366504366854 0.841625680146273
Ni 5.638093996483827 6.424428413682645 8.42043783972047 0.43851424256279964 -0.037253999255451975 1.9836770513793194
Ni 7.158399454406017 3.01221059650072 2.17029532742593 1.8261046801470677 -0.10546408057278613 0.9749512630160176
Ni 0.9102629160450206 4.848813679061352 1.9282923858342207 0.07486358207810978 -0.7900223541476846 0.16161543095337327
Ni 7.652620246614955 2.9902360220199014 4.430340266946935 -0.6589719404653619 0.2560193970572559 0.3933505015419677
Ni 4.457966366888069 0.848428470350525 5.392924212151689 0.9059852773692655 -0.8701230162550176 -0.8876862219497615
Ni 8.704159331448219 3.576589843723615 6.5366221031066845 0.5782560133715331 -0.2748365297637589 0.7174275134990935
Ni 6.446789637567819 8.822925140152465 6.420127399356111 1.6797088943569265 1.2578625993681112 -1.9735021677288462
Ni 4.605758498733508 3.8455597400814163 6.851006733787391 -0.12005072013770937 0.9087605261215576 -0.4229459558108974
Ni 3.88613030972405 7.044715323587574 10.004218241524205 0.370555100914007 0.7484244761012401 0.7591845428312215
Ni 5.0557539638348405 3.70627389513178 2.0548381329103735 -1.9669396840199804 1.2885420307298387 -0.6723830716649453
Ni 8.261077525934274 2.69113508993704 12.539343979179455 -1.3361506337467375 0.4082364175148646 1.2097372046157941
Ni 2.291606578042178 4.40680896831668 6.282034643997055 -0.6633340740887996 0.0417832545843732 0.4497448211712964
Ni 2.2781474963953587 9.03926468782705 6.581382295223647 0.25016345249711114 0.0342280679449346 -0.9550139006621423
Ni 7.894856098443097 5.6122161042066665 7.80060110019347 -1.1491728127691758 -0.6428740064622348 -1.280218855576124
Ni 1.5783304863899748 8.401790291304742 11.118947806748666 0.0956200978991708 0.39322143216327116 0.4729580260629661
Ni 3.2926510918543728 1.8107620140362684 7.024590222090917 -0.44057652440846706 1.3999810979391374 1.6752876253607796
Ni 0.6304824864602298 2.029200515620206 10.835579823047755 0.17767968350508753 -0.38557368581002627 -0.11870474763277622
Ni 8.818589143260775 9.085193113501454 9.833463738029206 0.4509642954006943 0.2180966538695534 0.2247702092349871
Ni 6.791717730004897 5.036200551100338 5.790158604247381 0.4697315487058684 -0.5437446098582248 0.00494885936484309
Ni 7.000112553013814 7.669826145108734 2.650502840508474 1.8361188698499604 -0.09819325794298574 -0.6847207672946918
Ni 3.153659836927102 6.411006155788622 12.926945277543798 0.4954454085322048 -0.9202862673729699 -0.3132518963171637
P 5.787727315969047 0.22413881851670775 2.2485651345869546 -0.8947539274298203 0.34845338391896113 -0.2777968979436635
Ni 2.2203894401353446 0.9649388241960372 4.302527782774611 -0.19064421408555554 -0.5975079196226097 -0.08491453855620859
P 7.391825223377794 5.796601840392804 12.975343656436973 -0.4077165404556527 -1.0302772892818322 -1.4775718491404233
Ni 0.8357178314792783 9.014500714071959 1.8780887224602387 0.24619444054703402 1.352561213894277 0.14890286848271128
P 5.499940481932657 4.553570035083838 9.987335471461208 1.1116938419871112 0.004224579604308854 -0.692555175737446
P 5.136563689344946 6.085603858271451 6.51028115213812 -1.6859613030245415 0.52534399586385 -1.4753972100866075
P 9.065980320480312 2.5429010730580552 1.2957597369370917 1.493743316693963 0.23283653118288933 -0.492998489653609
Ni 3.1029719412038568 2.9645514544449187 4.699588182638343 0.9584437522792978 1.410427747193758 -0.3082014783774499
Ni 1.8795671961349847 3.6967365431577 9.835363843673463 0.41050361628248655 0.31383939338951755 -0.46687171065957017
Ni 7.151338499807447 0.3651498562848215 4.073499690480458 -0.9364993867977227 1.3135840613001313 -0.8875939193462714
Ni 5.401123941305466 3.577427584099717 4.290077671954394 0.16155295314655402 -0.8537224634098072 1.1900731505279634
Ni 3.7457397521905436 4.7109271367179515 11.003409599976958 -0.7650803394903662 0.40428746016944567 1.997374860581386
Ni 4.418877953295462 8.229445922282789 7.0290090724263985 -0.927596427881138 -1.6189979496301148 0.246618158348014
Ni 0.10385587119727882 6.768067674771874 3.041795720090584 -0.7745132027684919 1.4356093886657082 0.6971343104676961
Ni 1.0598796648414832 1.6659618121054796 8.394675942264618 0.5313817174174977 -0.34462115465706455 -0.7504343074424173
Ni 3.566490929519402 3.9088781830135773 0.09023200325669938 -0.24980246961326658 0.7267660172911999 0.3937819326524315
Ni 5.497427260804352 1.053361860596649 8.051309176946077 -0.40267692114921616 1.0655402262491842 -0.04761554499543413
Ni 4.466546301289461 9.114394349468425 11.41087086881783 -1.7208383174073847 -0.31428008047136197 0.4958143618358493
Ni 7.7917311787388135 5.425547295347196 1.6273815663014521 -0.3335967785221029 -0.2514472043055412 0.29209737372673567
Ni 8.87720335177329 3.5276234584435677 8.982673023936838 0.12875930365530083 0.8248032092722957 0.47419704067638985
Ni 4.201765106812169 3.065549802425253 9.233475001259075 0.8623955657037728 0.11664195156647654 -1.7153916924705168
Ni 4.495646271936243 7.295715228581086 2.4183355232884893 -1.1675515723866796 0.4045039470556259 0.23930876917079433
Ni 3.089881097084995 1.4989016516097062 10.297354646247987 -0.9376206448863595 -1.9231440269912685 -0.8050175420049362
Ni 2.3403059911144566 2.602960613867799 2.2004502985903067 -0.594877166867982 0.29937205301127795 -0.2314414506075756
Ni 3.895943839844097 1.5512742340233532 13.121831306839622 -0.40522848392647637 -0.32062170641867366 -0.18273627209238852
Ni 1.4877624663890148 1.447440457077752 13.204802586638834 -0.2339927562745196 1.00246849459968 1.1319189107847345
Ni 5.925411327672071 2.205254877736323 0.5272876016256333 -0.2982988745517572 -1.2106625446435408 -1.2692921813612914
Ni 2.8134267729714733 7.7020193109903525 4.6427958292953955 0.2733653445348711 0.19597693915237863 -0.24385165134647033
Ni 0.1250414967744499 8.823772086466766 6.930017618973428 -0.9210012911621235 -1.359007226629937 0.7540523638109787
Ni 1.7821683699904276 5.562310713230329 3.9526128336151793 1.547103477482658 -0.5832470388282213 0.642776561652422
Ni 5.596078094543962 7.025889179970785 11.889515213594196 -0.31315830816209295 -0.7886444999635513 0.40841536629489017
Ni 0.23374797680873885 5.938051080819187 5.7678461718346625 0.596449139340792 -0.7586618375585321 0.328634292310505
P 0.8414024983171104 5.311982841725338 7.844310894761936 0.3937256254931994 -0.899817715105973 0.8863813870954089
Ni 8.865521016198862 0.4798171813029101 12.3018142029586 0.8596146605245261 -2.283390546890416 0.2689250493753304
P 3.224002410705038 5.134851384839949 2.1853194185665643 0.2196444579726475 0.0022587141271896583 -0.19533082092794748
Ni 5.637016901714553 2.3047434518520347 11.185925610114897 -0.10776033280613055 0.08667394444947653 -0.03359866189105182
P 1.006301104523778 6.7283900811345365 12.400819465318868 0.8718945063331435 -0.47213373038945783 -0.7865259109586519
P 1.3807342288883888 2.3581286874675627 6.158748719637138 -0.12097117506944972 -1.105764878097186 0.8463711652510585
P 7.6339782217621455 1.7123689465662277 10.560969448355477 -0.021616035607878902 -0.4712826952430722 -0.06396004779172856
Ni 1.776037215149948 6.127085815795779 10.280256457231136 -0.06685125329659455 -0.6832212999310298 1.0436619381188543
