# total energy = -381173.6765821367 ev
CRYSTAL
PRIMVEC
9.19520708123013 0.00000000000000 0.00000000000000

0.00000000000000 9.19520708123013 0.00000000000000

0.00000000000000 0.00000000000000 13.45811502915458

PRIMCOORD
 96 1
Ni 4.883933058373741 8.477226860218893 5.350098790295423 0.0057772688034094044 1.749437212091 0.10988380690703657
Ni 3.603279796662693 4.680332784662883 6.818446456623975 -1.5210024095202321 0.8827581885205249 1.313537524332912
Ni 1.4642723505798096 4.899574105505082 2.454787406326923 -0.8755989517679243 0.3897144474512772 -0.6484792684641542
Ni 6.220015027967051 0.2675731679508173 0.07810868598305856 1.399080440501739 -0.10759269688001469 -0.9517563129567931
Ni 6.5301509701457086 7.847189666012382 11.455035802478381 -1.0471437260198675 2.090103752975691 -0.16911996686053452
Ni 5.592184683443975 5.882054389363091 1.220398909187676 -0.07156434250154771 -0.3316751360193578 -0.544728571038049
Ni 0.2901611939814705 3.8473941524786013 8.336077673987125 0.2544674791891037 -0.31982954953468146 -1.1977936591006726
Ni 0.41885547231235415 0.0483548351261534 9.396482739687906 -0.31239751873666843 1.9608934778259 0.5936309531657067
Ni 5.681185092135483 6.153395753148374 9.998437771672714 -0.09227920645139592 -0.06589891668565424 -0.7487330084805944
Ni 7.731449595323259 8.131054901751154 9.260218966942844 -1.7613370488523792 -1.0331720943311238 -0.2606633235871705
Ni 8.17763782048565 6.074326168032319 1.829321149527226 -0.4770975021526364 -0.6279276695650476 -0.10930350892353434
Ni 5.135752997667642 6.154821010235591 12.31661106786733 -0.38151211414614294 0.47099781701280174 0.411992027902555
Ni 1.122596848342069 2.3761794206029876 9.966972692790446 -0.2731694264739811 -0.24390718717475413 0.6426246094555901
Ni 0.5478651462438285 6.074408924895448 4.2933000847856535 -0.9360746405554781 0.9592024848221931 0.8395975939726509
Ni 6.980449452843496 7.365296452013423 6.696892256539702 0.3213238746920208 -0.6651400169492867 -0.620436246284009
Ni 0.17254162297862213 8.417982141425691 11.842898829549002 1.1351158204554772 -2.1364581718705145 0.12533150892067446
Ni 8.169325353344714 6.36488551447751 11.092111096351271 0.930089883726953 -1.1118941309233754 -0.8297847216472871
Ni 8.712642550199265 0.5373035314671918 0.2177360654539571 0.21452179203410152 -0.14902653854476916 1.7260095771956792
Ni 5.003176502935316 3.806006525707191 13.139386237738693 0.1566359754609109 0.38363173159230707 -0.42207280917732476
Ni 3.822980877855608 4.771687166350055 2.7153768145503716 1.6078959261796826 -0.92359759113439 0.6188362487867407
Ni 0.9526326418895579 7.144740216568177 1.3390713313936626 1.175514535987498 0.4113513089947625 -0.6576635060665835
Ni 5.1189809400735395 2.8804997445098484 1.83351968104996 -0.17333606182441114 -0.5421790651433178 0.7148810929281559
Ni 8.527386714481954 4.322565670150099 3.5690920169834874 -0.3259708865457289 -1.0325216052313184 -0.09031436941554123
Ni 0.408591782242981 3.3362969610021938 0.5478366411020842 -0.02029114614886828 -0.013881128857466417 -0.06245106734636986
P 1.8002928005037497 9.271803088739471 6.799833518585608 0.43114520379223814 0.2426614876931111 -0.64977459023681
Ni 5.120001608052128 9.295802579046821 9.85374935026114 0.04424714274383347 -0.4615119890095536 0.08943916589943952
P 5.846799965670226 0.6885389402729556 2.144577902492152 0.7538543888675597 0.6511431884495625 1.0237762549385208
Ni 8.62623518988579 3.6417065667754955 11.557950398423944 -0.5759386780922662 -1.073991699450647 -0.306888158882665
P 4.9110037478238695 6.515742080754283 5.841682832966763 0.34755221226093047 -2.0641844620067675 0.73211288342541
P 3.257751502685956 2.904425673161084 4.061632361184315 -1.0910959632311015 0.5843086473235163 -0.4383183245019096
P 8.892574361055287 6.00446098513759 8.729189325221515 0.036827196130678516 0.38653990637803753 0.6754380564411852
Ni 6.796471750901176 0.48426189932584446 4.134063926356738 -0.47878825959149807 -0.7288491250724738 -0.3648297683944556
Ni 4.166688520843511 0.995013351018514 0.9888589989638361 -2.2578502365274664 -0.7404877377526666 -0.6849704214116525
Ni 2.12238251180101 6.599538002275693 12.155705979365315 0.8861474167077319 1.3391536822391195 -0.3567171665896502
Ni 2.2545268318036626 8.998245680063741 13.157891591854991 0.03740209479754203 -0.37712015572603436 1.5110792368692492
Ni 1.6101635050688563 3.209476665860827 5.600446576946333 -0.26553530696749106 0.6466846384575765 -0.30478036851104284
Ni 2.1962568049539786 7.698788220008429 4.726678467056409 -0.4528998218605103 1.3555056412345816 -1.3760042754085657
Ni 4.24862701054803 7.760276569313121 0.744221435868813 -0.6945392960470103 -0.1636813123434665 -0.3262292824134382
Ni 8.089005220074712 0.9132845120339215 11.417649010278897 -1.2032027459313859 0.7519782548907695 -0.20762969289995853
Ni 3.0233656758911867 7.470811452502633 6.731493820534553 0.4965538111050351 -0.767395360776788 1.0671623352336397
Ni 0.4506313491917061 5.51825521904892 13.07922843488897 -0.2890750419606441 -0.42907649418866745 0.2607466273295961
Ni 0.2604027455210582 1.5828353498223264 6.884686888913663 2.2191466493096814 0.3624391566750919 1.2346020861782738
Ni 3.749345660085011 7.41499654592577 10.672123694055454 0.3476046627654207 -0.06021600736826404 -0.13105067079263882
Ni 5.062439612142546 3.6354354355917358 9.562165657754555 0.9078516411540429 0.2428144683312076 0.1144518858936932
Ni 3.000065021316925 6.023541039692284 8.746953545652461 0.8617867284751803 -0.43906188753615355 0.7190977021126647
Ni 5.815986826965273 5.370653756055212 7.693398909177341 -0.2938868615269907 1.1178922574883392 0.4062430412339197
Ni 4.133594970799009 0.9687702301996725 3.592980245285964 1.6885858851315823 0.7941420327430129 0.781343338316448
Ni 5.499441825497641 0.9952156455728287 7.814939316451091 -0.6024657778485172 -1.0164185290218688 0.04414969793402074
Ni 2.481648445057126 8.579321243698779 8.926108361515775 2.1638388778763122 -0.3782118461283164 -2.1768208919582768
Ni 5.0758646143834385 7.686356300125081 8.091112761522393 -0.19907177602761844 0.23494894954020182 0.1399664852250299
Ni 3.6320148185824124 1.7185106293184744 5.999533273698621 0.5243266103429293 -0.358294281268783 -0.5484268458252426
Ni 6.256179777154333 5.38688329643547 3.376667597877822 -0.14047222121685485 0.9600231809512755 1.3664328296700465
Ni 3.499732570474545 2.121591723997779 12.48817524034033 -1.2630176612064894 0.9080012793580298 0.2658595230761292
Ni 8.032758138768177 2.255280838778836 2.0114634881494897 -1.0231069967856379 -1.0452223406274384 0.1437884300742814
Ni 7.646642201030275 0.3480303098053307 7.092332134190117 -0.747630519445035 -0.5220049041882882 0.08410284128819064
Ni 7.491473082663789 2.0841396458284933 9.609874989348304 0.046398384758881375 -0.5255651107357207 -1.1474568585193334
P 5.966208923958059 1.743751472572756 5.826879469194424 0.4791315018635296 -0.15912788864482919 -0.8870691571910528
Ni 2.691620997228901 8.866073774440045 2.635812527296948 0.1713419142125178 -2.0669152306743697 -1.3605272628188891
P 2.0349912643370054 3.886464587082406 12.42734434833716 -0.5269511924499699 -0.11472802237321533 0.10674963215342906
Ni 0.3075474914041283 7.745499871641124 7.487206506609149 -0.1459548415979809 0.07748585019230526 -0.10361108652444737
P 7.396275104444635 7.296819745377855 3.626719298862871 0.8427772772522131 -0.22598839791280434 1.6558871093469805
P 6.18703182040672 4.424660053629986 11.30259582155374 0.27148946766839693 -0.691783330568428 -0.11452104856873181
P 6.828360728826804 4.051178330329746 1.7367162196861072 1.5598533209491587 0.9114023346197787 -1.3320489528735382
Ni 7.442526995726615 4.386987290492357 9.34395603913936 -0.26718569808672044 1.0574656767711659 0.44494560001044015
Ni 6.476772793427637 3.107584576935255 3.7665094334979226 0.08556785586949134 -1.8563362253381 1.283213933648706
Ni 1.5792584142937598 0.8364217766013019 4.404464620464457 0.8106850247033586 0.43359675065652425 1.8888902480147212
Ni 3.641292782459851 4.658770024214325 11.065006384635188 -1.0587211464448216 0.4217663336804995 0.3522514175088127
Ni 8.513088167574702 1.8858909825999641 4.874488661249343 0.017878165832001466 1.0250378952597639 -0.8227468409638993
Ni 0.41913500660558917 8.96786471608846 2.6909773327378996 -1.6674161930325027 0.9015519241882601 0.23465198712507326
Ni 3.2073341826264925 5.397200318705526 0.24198382635069327 0.0825925752912513 -0.43512861392001834 1.234082466229378
Ni 5.267952488912381 3.2095134466888844 7.3955974176876795 -1.0045713998752959 -0.5060380964463865 -0.651284342013117
Ni 1.3141697912782089 6.99345147556173 10.09357230296347 -1.2978867051695324 2.013498505616126 -0.8886069339918179
Ni 0.9394743006520799 1.6550728961267478 12.320285472590246 1.0262799951969808 1.1596258897816996 -0.5725427650368398
Ni 2.739803881983887 3.1154740645535326 1.368326802030392 0.18561847873619 -0.6305447954729205 -0.7821563211360465
Ni 7.3619769822812575 5.076876087155013 13.039109746685535 -0.6891214674655487 0.43364225918247895 0.9947073625970224
Ni 7.130083056587367 2.6294062265700777 13.023430999205434 0.6805941467208279 -0.3801987946513581 1.6791967306071984
Ni 2.382110329127218 0.2010440061608797 10.964770352492891 -0.545700448033015 0.17724542418114636 -0.0885819601054668
Ni 6.921848398541296 4.823566524324794 5.68190875492751 -1.0805433845262358 0.756909887864432 -0.3496921414220687
Ni 2.6531574462880414 1.7044419625865797 8.136601450622186 -0.39128230615902937 -0.3491601801779987 -0.43744749186118215
Ni 2.753017394463451 5.486163946568977 4.733636480204138 0.6572169054474681 -0.6771591528973498 0.2307346543485381
Ni 7.441230471537598 8.401026179691303 1.865065677753954 -0.3199030830850942 0.15473747288661738 -0.7104680514621248
Ni 3.572641366891011 2.087955656739432 10.23320060195507 0.09321020290609754 -0.12408143856365728 -0.5032541059433462
Ni 8.93774121790958 8.322177279543592 5.130556786183854 -0.6067196680288647 0.11605702559728401 -0.39671504713882644
Ni 5.845733321656566 1.8252577875476024 11.333172643438427 -0.5046275892521052 0.9327484043957226 -0.44923060053903924
Ni 7.427088243149589 2.741219943864091 7.336502580768812 1.0939953962660836 0.8041762770505635 -0.7734503087216164
Ni 1.3765316852492613 5.6023729728158305 6.930256495835181 -1.0411810806785293 -0.42525300667751925 -0.7624662989062869
Ni 4.529972759564881 9.298377237010827 12.054097102815785 -1.0446703247787106 -1.2605383464280613 0.555421789085837
Ni 4.638246322158385 7.232462491484697 3.159871282580727 0.8102037141915659 0.6556037953240774 0.9306727528136165
P 8.853614268935655 4.397534192937771 5.860968860158576 2.762621036225655 -0.895111310769239 0.2597791212100042
Ni 0.9482281377297034 2.6277970653425737 2.9429535905510438 0.6389682436499253 -0.48670494333541336 0.6100644161313815
P 1.6794034138866127 1.1492077774414828 1.3935474158292425 -0.6688945988957125 0.07234492942131411 -0.584624121681406
Ni 4.826674504295631 3.95872971900787 5.211264957189859 0.061977727254377134 -0.35111396147025986 -2.206553386025703
P 7.688581540222543 7.531554990039167 13.187337403276917 0.9016216010839311 -0.12374925203521912 0.7565260221624519
P 2.8589553744753196 6.585184284126354 2.272510817682251 -0.7517972492282149 1.1476013545169979 -0.7899146249252267
P 2.5436793115756635 3.822226870880434 8.52749245936262 -0.00425620417319267 0.4451116932746592 1.0430741839361843
Ni 0.9590417011785322 4.885054873629486 10.527623774387672 1.237419758132727 -1.3582824326487704 -0.11625705742323204
