# total energy = -340863.95487878064 ev
CRYSTAL
PRIMVEC
9.33789219707526 0.00000000000000 0.00000000000000
0.00000000000000 9.33789219707526 0.00000000000000
0.00000000000000 0.00000000000000 13.66694911902916
PRIMCOORD
 96 1
Ni 6.6444612644461944 5.801520394043567 1.8910819227806124 1.2299830993490237 0.9155870621250876 -0.9547735025165622
Ni 3.8933874800326023 3.3911209322241533 0.9842073055779544 0.8617011107399094 -0.9651198787478926 0.8338290669199898
Ni 1.461688286013607 1.1865566290524234 13.042834518165469 0.028536931097428272 -0.5979866590312412 -1.0463297147590045
Ni 3.3629111597669263 7.307685060796588 0.07274218055008207 -0.9881793316705174 0.9931137928576573 -0.19616694367599763
Ni 2.3850564222798862 1.997711314269879 8.465964684567657 2.069400973210701 -0.3784854115046772 2.691801285199616
Ni 4.430073498637919 2.4459114660083694 12.392465264272742 2.8212419311926573 3.7231095868491235 2.5597964780238236
Ni 4.29594401450167 5.100786284564844 5.866250663051677 0.7086952758324182 -1.9770109522130532 -1.7811779948377064
Ni 7.809017819381031 9.23935880114475 7.916143052948245 -0.7051214424382307 -1.0424128962031016 1.3292089123215818
Ni 0.7354579955626179 2.649075987475396 10.315444429840346 0.43300771092227364 -0.27155554501964196 -0.10684064920533858
Ni 0.06375632684747053 0.2552195355484754 11.08109369859353 0.09592425940315093 0.2769543474377101 0.17804735125715143
Ni 4.421940194496825 3.846613977802132 3.5772830195004754 -2.0358835581795454 -0.07430925223653653 0.5957842520632836
Ni 5.4404988042582945 9.284162008112567 4.361710789548425 -0.9144555196238058 2.2846691564925234 -0.029969292668580647
Ni 4.705531981827504 2.757124738585152 10.06976728637199 -0.9228905377650364 -0.08326234766476628 0.03171687148730667
Ni 7.9979794067509244 3.9889888207863553 0.7711408831795664 0.998557589581048 -1.1850929237045527 0.0959869943202863
Ni 5.445139736701605 0.522552184910759 9.319575030643778 -0.06269275104353074 -0.7612126290048439 -0.2905372283284674
Ni 1.8133626456665775 2.094526581014841 3.8747714580628148 -3.6929387196926977 2.4387967637092838 1.9332348355683675
Ni 5.531235103154976 6.847551082775299 13.08976676456402 0.847925397112056 0.45646619905553 -0.1189852549876725
Ni 7.638937450120544 3.666149872370696 10.26823858319916 1.0357491110296806 0.30501253912650694 0.3212703957462661
Ni 2.0159668935992 5.659117537382623 1.0922560566877104 -0.386930714058553 -0.45759285646080544 0.28803245962874263
Ni 1.4593631508458313 3.519899804106847 12.417284448057602 1.072937804264836 0.9968704316866123 1.0157533846340443
Ni 0.855426566116813 4.475773143260781 4.298693089977144 0.7699140134335837 -0.3351543528172099 0.5828197214828156
Ni 8.543144231510217 7.899530008863951 6.2674438652536955 -0.5424024940080336 0.13016878240831778 1.7513768523158744
Ni 4.726850389811566 9.18805642117785 11.620788386078598 0.34511583490529596 -1.5293052729589727 0.4605305989328907
Ni 0.35443744196680493 5.155926538242409 10.205862396824772 0.09560827082462889 0.5048690158389498 -0.242145467288641
P 6.815167272486765 8.81379370019617 12.396866212885483 0.15789041669330228 -0.6306514962541139 0.8602155273333184
P 1.8610325855520933 8.818574701023081 0.8241306202742457 -1.349806019746643 -0.9614498860954733 0.3214035788900207
P 4.507456611631311 8.178891731009882 8.105361432354739 -0.6519245467002772 0.731140749320128 0.7008719231332574
P 3.2367935871726505 1.3172497688443294 11.595859948954528 -5.443838375261837 -3.313529767932487 -3.162076108003464
P 5.064742020518205 2.087018915653831 7.871138147508042 -0.7829176247821032 0.5551474523785278 -0.4189517470498398
P 5.672526750639352 2.504982972319001 4.799859634079714 -1.6113612590204638 -1.2637370558710173 -1.0575834332959528
P 1.9070870700800784 0.04231932763196045 4.525235958456389 1.683409226026649 -0.39990270083818874 0.396504216679601
P 8.133929779873984 1.5991607355717978 9.996580622151281 0.7313901463267727 -0.1695799372160886 -2.3320026514711647
Ni 7.428358642214908 0.9285628057194256 3.1000466918415124 -0.20946391789521993 -0.38125757493317564 -0.49423030517818106
Ni 2.918128676588299 6.816129075387491 9.416337071402971 0.4475719818896937 -1.5121992094063053 -0.3024738318650533
Ni 2.1106064314522275 8.41253513274847 11.67510036871447 -0.011940203081011696 -0.6753961474596563 1.734359234711955
Ni 6.151420554170926 5.281707946716043 4.094098937208164 -0.6008601239242942 0.5408063531655073 1.2781702005772115
Ni 2.962521016297553 9.070679115720273 9.75287190636713 0.5783100065379202 2.2636593870100756 -1.6730944743642022
Ni 3.0793753997896873 0.2273823449916269 7.143605221089566 0.7820768740483627 2.6378685397369024 2.0432073455344684
Ni 9.043701945038734 7.29120368099288 11.326457088882622 1.4706000458082804 0.6201331132212933 0.3439076735298077
Ni 0.8439680385490331 0.5955082031931386 6.391663044355567 -0.768786841807676 -0.13964663999176596 -1.5242504841438846
Ni 3.75731571431042 1.8605750288323304 5.640240988219338 0.6761487093549645 0.6771303565419435 0.10752481975655674
Ni 6.351120717616889 3.9443443579866195 12.169379283500767 -0.29242210405600605 -0.9096128468195239 -0.022920870462231496
Ni 2.7183257963276946 4.546657083255091 10.587006210598155 0.2901219951679197 -0.3921186860173957 -0.8062023063416567
Ni 3.571080791474626 1.4301728997033978 3.118428332716074 3.0521961577511694 -1.6335431944341414 -0.9632303750346637
Ni 6.099464521747222 3.926686403760663 8.663779527570352 -0.48120561078373897 1.2403274186978253 -2.0964026986105253
Ni 4.466304520529358 5.652935852719703 1.4202971448703086 -1.6108172135915355 0.31795624377136855 1.1071080223886416
Ni 8.386071546140135 5.658828062723181 5.429988072752882 -0.14770987661587465 0.7070698244138532 0.7481599095859437
Ni 7.207069271909922 6.100099498419547 11.601845537880406 -0.2016588200285043 -0.6961086974166592 -0.596558668335463
Ni 6.201630400745739 3.021835307806426 2.5331413863689076 0.9673760217719211 -0.5373335641255584 -1.0454421699477285
Ni 0.803963574403384 7.523857266154021 4.969234058686852 2.598226756975564 -0.40712852916266656 -1.143966843088204
Ni 0.5320338806913179 0.11295021074656453 2.916786821473402 -0.766941303958505 -0.4333779497774988 -1.6410873253299867
Ni 1.4164461981105068 2.8544349136188365 6.768461003080423 0.6689941005880543 1.454210034486031 -1.59291076562476
Ni 3.622280454626885 0.5157719413552501 0.4402778839620218 0.8467298341420578 0.7390391782315981 -0.7690830328918561
Ni 1.9118867466914704 2.32983212757216 1.3927438262375578 -0.6762150438165258 0.20951405440686496 1.131215714070123
Ni 6.212723816726933 1.5458973982344848 13.511925402423426 0.6982324286278814 -0.16429374911648478 2.2066837409559805
Ni 8.799618779775756 7.057345507732769 8.470351626342039 -1.4023351999936107 0.7063491441977449 0.6343153182589463
P 1.918955531117197 5.971806196933335 6.3754954177311225 0.9071985809510764 -0.6386342573492744 -1.053206901494812
P 8.161616630365769 5.40805896661632 3.3111876408599996 -0.8923296342590438 -2.622970282468831 0.18134556239244898
P 7.5771579550602945 9.188616694712255 5.012121130167007 -0.4084873571834062 0.8573477188672202 0.005926649897080115
P 6.641538504175054 6.164895132673335 9.396492182814393 1.550688366620439 0.06011547723465776 -0.9668530593889156
P 1.1726711832914514 3.8846098613269437 8.556193935915703 0.3338790856492121 1.1297090476176095 1.3591648352537238
P 0.0749179094420165 2.428197484428972 5.353371600712397 -2.4750421191945633 0.5338597466443451 -1.9893625317998707
P 5.144216821373371 1.081458651890527 1.7859288520544996 1.95751376272039 0.4680706160636778 0.28606428015877833
P 8.849576503260087 4.775360739998686 12.234967704805738 0.28566370228624993 -0.17786943091839047 0.5725450790296849
Ni 4.814337102208705 6.186110823842756 7.541394761570082 1.1303469383119242 1.2892339145905412 3.065578492595346
Ni 2.5684526258747016 7.942839153073358 2.8210902342188 0.5222769269027522 0.19088255534860674 -0.23888967935550473
Ni 3.3498754621998 4.175681300341913 7.752891484282916 -0.5793129938811379 -0.005368977621397205 1.0349983489065853
Ni 7.812005944897851 2.1349409786298286 7.492973121359241 0.04785337203785307 0.9762473561196219 0.09621042318500204
Ni 8.489012470194577 4.927297584636734 7.996313526775297 -0.6322201262928143 -1.8880916633728257 -0.5275165780351366
Ni 5.83207397745305 0.08836167290003358 6.900566032179027 -1.0739605891023956 0.9283135085528207 -1.0869037795266248
Ni 7.03635392597711 8.198342560545932 10.357388374204255 -0.07472859916214226 0.5946108005804727 -1.022898737429574
Ni 1.4872647728591362 6.081386362370463 12.363778325522048 0.25958371736974645 -0.7365709191967638 0.23891847571091115
Ni 6.599247190219814 1.4048765496250704 11.312885396300917 -0.7142719985892474 0.21250039072869856 -0.7039132810627425
Ni 0.4517971078293621 6.4234426930161685 2.9783151272323938 1.950235483891422 1.5513589103249024 -1.4789587021856205
Ni 5.090365196824934 5.478391970968466 10.627433681262278 -0.478060380286538 -1.2709052914846823 -0.4777104531462869
Ni 8.714587933037754 2.455632211830274 12.346927165185633 -1.1030564780270875 0.09942970145324811 0.39856726985621677
Ni 6.356303247810124 7.3930614095474745 5.485189022730007 -1.4420564298426326 -1.7633306822436403 2.33941257078199
Ni 3.9096260746380698 4.796632458521548 12.804154257352591 -0.10334137780282847 0.7422782539941861 -0.34559508853455967
Ni 3.0045135177011115 5.824416905816199 4.30172697116594 -1.2463198888358342 1.1501140936365224 -1.632884220693904
Ni 8.708583668327393 3.049354076237888 3.1065524013651635 0.038145657831785924 -0.5557182372803333 -0.34016954664361415
Ni 0.38320562037998757 0.7384946781190861 8.598274213506318 1.0236459000082434 -0.17848469590488614 1.6735924970465434
Ni 1.615315289147105 7.870526515566319 7.411449586946604 -1.9085357901597904 -1.038593522457011 1.3056480942825064
Ni 7.339826085886882 3.481324971263151 5.360860590288928 2.160994980669614 0.03706939404847164 0.23241846980886424
Ni 5.386852613339139 8.116869450751391 1.7116487206524793 -1.1816111358035393 0.2063433699883672 -0.35739208116948773
Ni 3.36195869475844 7.90093069269996 5.93176998395407 1.4559123618891183 -2.6590621430953814 -3.249809089845074
Ni 7.05448811270731 7.674832307891342 3.3876817865121387 1.4611507274699223 -0.52950275522723 -0.06642573572340173
Ni 8.861697087387688 9.256120317715661 0.2626039407319163 0.7099121789586548 0.4517582520568994 -1.2817170373882054
Ni 8.257610162593604 6.2584794887032364 0.23051053889204762 0.9697229247375428 1.4405243094688223 -0.6252434378646651
P 3.5999722300653776 6.629501961077614 11.55409342454318 -1.1289081489828687 0.7119346087053223 0.8010814401753236
P 2.5050576754569214 4.249805488943524 2.657702332326765 -0.7378868097947099 -0.2124019174776213 0.2697429172909354
P 4.7019182175306 7.407880644532453 3.7527662932110624 -0.7717934898444837 -2.0640037134545293 0.3902561788873602
P 9.189849296487942 2.08687884727023 0.8394802475384594 -0.4150228443090788 0.16553456350212137 0.4476552856321193
P 7.5389473000139615 8.368871148633941 1.5191910264279078 0.008594426537230361 -0.8237755393387297 -0.2878702230192655
P 0.9791993939696092 7.860497619300492 9.612757767094225 0.5744335543016494 1.276225161035699 1.0154836759124253
P 5.961525177577028 4.337945853797468 0.48915147815728166 -2.0488637724892973 -0.23847290353306028 0.15687560227554273
P 6.477621143793008 5.080551072080629 6.548381823609749 0.2661819394125545 0.18369477935091588 -0.011608530773205814
