# total energy = -381170.4252991885 ev
CRYSTAL
PRIMVEC
9.24584539971881 0.00000000000000 0.00000000000000

0.00000000000000 9.24584539971881 0.00000000000000

0.00000000000000 0.00000000000000 13.53222932686205

PRIMCOORD
 96 1
Ni 1.3397969896995006 7.403860477134436 4.108236148339264 -0.08988705207013552 -0.23970729016079365 0.6335126198519928
Ni 5.716262514669277 6.075167747963197 12.67865698050222 -1.0363785170835633 0.32521832465042055 -0.5511797259800314
Ni 2.3007177196762383 0.2662267264802865 3.760593279532834 -0.04097798507425846 1.8263443069617 -0.9828142107038621
Ni 1.4444137323117086 8.234488751354105 0.9350767424425225 0.44561588660458734 0.5002294601844095 2.169679138707173
Ni 5.681045088897301 6.674603653732288 1.7227340247961282 0.07116042219490971 1.095169619079843 0.12512582066777161
Ni 7.958204394063959 4.932510677483978 11.629421782820375 -0.3684226279520364 0.2435428618567999 1.0135782313595962
Ni 9.200032404115296 4.001749895753022 7.961037321146273 -1.2673265729944883 1.4704552927002996 0.8305552812647244
Ni 3.363204063227444 6.215898763367563 6.751986758221275 -0.6728777519131767 -0.6083052673484298 -2.118024390645359
Ni 5.706332476528268 5.164109863139585 4.672218859274375 0.14074475815195114 -0.044157925464136855 -0.7045457724404189
Ni 5.756075125689 1.820793613730866 4.63725107133276 -0.1499665338605353 -0.3027479114620463 -0.8300878547100027
Ni 5.719359872934861 2.817236882383353 2.2141433201071994 1.2640273334179262 -0.9386349450834867 0.7403116171861185
Ni 3.1228860452003544 7.65151045069767 2.5568202452585687 2.0794958955528573 1.116575852669761 -0.488369732632346
Ni 1.4070882537500218 5.563585866789879 9.175433831979214 0.8188598472046672 -0.272451317361034 0.5931375584690559
Ni 5.131971303942057 7.674708277230064 10.45025101902042 -0.4846354624008944 -1.718705587335098 1.0496430954029536
Ni 3.67220946798596 4.952675866669769 8.636959484384167 -0.9725781347981509 -0.46021692434721384 0.4606558116568454
Ni 8.106304348386747 2.6542603625401897 1.4889648391854977 -0.21733689288539343 -0.8980369690564662 0.12512119268208127
Ni 7.626019654464188 0.15893978366777745 10.152541263793442 -0.6055775840046216 1.2384553984860929 -0.49409789336537485
Ni 0.20089095876758933 6.90685004857772 13.224317199273422 -1.3788008643170964 -0.8876162879437747 -2.25459110616022
Ni 4.252192114678067 4.906492868053068 2.2050629751739734 -0.34994308109061023 -0.049501963384869584 0.1838271911637221
Ni 7.51512498271069 7.170338155600495 10.76276429758778 -0.12683586138034283 -0.35454689841120873 0.8568157576231502
Ni 3.2413900478570645 5.70530618767012 11.330008018255045 0.28434498347482645 -0.6894220294251031 -0.7686742274892117
Ni -0.030560293358915722 6.752148560518731 2.0729481632552726 -1.3110019023952517 -0.810547727794546 -0.48357411101591563
Ni 5.965641461353897 3.6140808368942268 8.643183787621156 1.2473550149685677 -1.8891350170356755 -0.38039856936699007
Ni 2.2307636521018708 3.05562251868654 1.92975035625312 0.16575722103588872 1.0308696714501921 -0.051510509174466125
P 4.854198365515317 3.811830981922058 12.190603927132662 0.02729585960147557 0.5325011757339216 -0.10911684683402498
Ni 5.728208147144308 2.083125990057528 11.020945289254001 0.1107672379532544 0.1309272578408971 -0.07017440413255656
P 4.753464878042051 0.6362602595009447 2.4467623225290582 -1.6993775764304473 0.8191179859620602 0.1926211353062683
Ni 2.7768972581662017 0.9440563076590471 10.366459618967623 0.09314129734137508 -0.7783176641162466 -1.1171322393938632
P 8.390225774116812 7.449202103804367 5.478523162971356 0.17822887114033822 0.0538062471871783 0.51713009259449
P 7.464577944985463 6.02775505188583 0.7628580753686776 1.7626102591378485 2.1154944251346537 -1.0341969360512124
P 7.290201297555835 5.60095757457941 9.26021268833877 1.025252068153099 -0.8294329947348231 -0.9116620160390686
Ni 7.031317621626377 9.223119280500864 5.002648737385167 1.7013264726267021 -1.4239404369682123 0.2488982126314423
Ni 1.2631489299332428 7.972202604255288 10.789286930186755 -0.9331345840905477 -0.5769691762393097 -0.5429560525186584
Ni 0.501675882230788 0.7484234612664965 5.469212596483465 0.9836585609820283 -1.344297431223588 -0.08741930725593332
Ni 7.949161957097566 3.3128696799503015 10.019113541803955 0.1755649511549299 -0.6443025113786451 -0.3275472298939133
Ni 5.08150747882695 0.3456772020384805 9.347874399346713 -0.07246294305641714 2.1349491914251555 -0.34611059471839745
Ni 6.769290358203489 8.140504731146143 8.330968225281115 -0.08308468443632143 -0.7785848017347043 0.2692394952919557
Ni 0.41911695339232663 3.857884538700795 3.096336599649232 -1.121183012424469 -0.35557456834477474 0.19046886484995587
Ni 5.308308070632294 0.058572431679040055 6.480801484762382 0.2965340693418506 0.6398100228249305 1.4545609900675467
Ni 3.737956675826473 1.543316542362331 5.7805081971894 -1.3385687562699269 0.335732336807867 -0.4655139110800951
Ni 6.654743577450272 4.250749762769318 0.2922094016980352 -1.0294511938361108 -2.8315679957090136 -0.44855028664256297
Ni 7.6526199521659395 5.178209777632172 6.629372052624628 -0.12892385425762315 -0.026438396697186728 -0.8791897544429763
Ni 4.0643627619456755 2.550263091581099 8.153154897053524 -0.798724767017689 -1.8549719980007215 -0.6217156272170647
Ni 0.6338387725464473 6.205691349859488 6.855468110997621 0.6155933163694107 0.09882857753413947 -1.3535179213805915
Ni 5.617720292595842 5.648379516502345 7.800004278041694 1.095042092363043 0.6016134571505509 -0.0930029719912979
Ni 7.376603724397292 5.005229252883449 2.725255512325616 -0.9377777392895139 -0.4866319240056329 -1.716892188275443
Ni 7.0813653836908825 2.7045022873616427 6.327102246363062 -0.44554338149543915 -0.07468206219492299 0.9505005861728212
Ni 7.038057843046111 7.159428057829183 3.6318069720189396 0.32381810186878424 0.48385358992954736 0.71830040302235
Ni 6.72833126233322 0.02244613928764097 2.4700239453958766 -0.05819254918033204 0.10969843036910784 -0.6370417160511738
Ni 8.173974692105594 1.715668349612368 3.9843214768556288 0.17189341584061366 1.0919621678861389 -0.5847197667190059
Ni 2.723095682800719 8.373028501358641 5.6901263584150845 0.713669589118558 0.05125288463770528 1.2458228945947576
Ni 2.018238645854923 2.727755588967449 4.42720395169828 -0.09316366593887826 -2.308236402289502 0.1630069119842612
Ni 1.3786757703167638 0.49075931236757675 12.752867835376511 0.47535686531244586 -1.3731094703592739 -1.5106195236240112
Ni 0.43171349339540854 1.2263042353411395 10.339679027277278 -0.17696285994372105 0.5980072278565314 1.9769327906769503
Ni 1.142823495699458 9.182936835658383 8.680613744237773 0.08359993350984311 -0.8469203528863092 -0.27124829819186835
Ni 4.662226873968055 8.896195427029802 0.32838099873272203 -1.134621140207246 -0.6168541853597054 0.13784352534475613
P 7.610958172032435 3.8163799379419614 4.372885533565495 0.3649074157099264 -0.7998087441104871 2.0494029328222187
Ni 8.8234860974759 1.7590221194849833 8.19122096784528 -0.662185305196337 -0.3861881794655736 0.08673410826345063
P 3.790657995569256 6.622309151194538 0.6396710519313152 -0.45906249902779644 -0.23947460532469725 -0.15234866093946664
Ni 1.9838995754119941 4.870175186658392 4.911076033701575 0.44548707433620693 1.5018227512679878 0.4808741955862492
P 3.749708145544557 6.174283212461903 4.273355855185301 -0.49489519245568964 0.3086462792243523 0.10219183757941754
P 8.331782784275736 8.755473657471002 12.171590770304759 1.3445144323304006 0.9681057008490939 -0.558446949065406
P 0.7496947650322215 5.4378423670527125 11.346301047316578 0.5703331589800307 0.634360826784901 0.3140332545678785
Ni 9.02311314915422 5.778070992297435 4.215127368961424 -0.5779523660881852 -0.5835064631371951 1.687591639539113
Ni 6.159822709992129 7.010764106926691 6.129315117952956 0.3528605118477213 1.4923070984680686 -1.188648502266295
Ni 2.583464923019051 7.534356341494022 12.611279730087908 1.2645302411962738 0.2601827844063261 0.5807173304278321
Ni 9.026469391095732 6.9826012613237936 8.839915040467295 -1.8426708120358652 1.209071803117653 0.28575266245563047
Ni 3.6588029919110414 3.257302148081157 10.222435233371609 0.47733738607758436 0.32404127362318386 1.8356151907406646
Ni 2.5046163520073934 4.81518089721452 0.04891422139775745 0.6406805983553417 1.1139875231172944 1.8552674177539534
Ni 4.225647292049729 3.2822936686539186 3.884832480195938 -1.3616706323947128 0.5125149624199818 0.5407639299633461
Ni 4.831536798025921 8.296750275415139 4.303844030948778 -0.3022948830850277 0.10312694779917723 -0.6184482693197026
Ni -0.034865159055799864 4.57334656051413 0.7370751104152172 0.48609764876871764 0.40221720790397825 -0.41907438867063307
Ni 4.187314016321031 2.995413572341803 0.6111004645388288 0.14384833677793937 0.7508644530013003 -0.37019411803016244
Ni 2.0105830857238662 5.768150200001996 2.333267719001583 -0.6706154382415612 -2.2249619704398778 0.07479647628560021
Ni 1.828745040920128 3.6574438526124116 11.886994397848161 -0.10580295196944359 -0.5602942866867899 -1.381525205226795
Ni 4.684638803627091 3.778324037580331 6.284069307331688 -0.14698971062039845 0.048511574447142256 0.008811941864675148
Ni 8.576585037403747 0.31418677661533256 0.7985544359411224 0.12266578916305326 0.6967537871998258 -1.1031405531004614
Ni 8.631625556075463 8.827184435703463 7.257753927116305 0.11965862690561328 -0.4535371983341931 -1.4371402234879378
Ni 6.217590753106674 1.5074519074005317 0.005522543558309491 -1.1945957209886653 -0.1768394469919793 1.5062445344847673
Ni 3.191675136233039 0.1733179981119882 7.7993006691939 0.1543320099180826 0.7587749660976287 -0.19087921291449705
Ni 0.11137453113852384 2.9113965736571243 5.988228137494186 0.2211845487662578 1.1193469876569948 -1.5764670182464398
Ni 8.989661679885906 8.81610791271191 2.904395619392347 0.9059829633764204 0.8781471721110747 1.8149270662636936
Ni 1.3708630308110357 3.227770917334061 9.626841901020956 0.11433927157522888 -0.5615546414564522 -0.14615950140961922
Ni 2.7688811100579573 0.9379817871202737 1.2152915086840117 0.5847035687690898 -0.1678441854719045 0.34904448053574083
Ni 4.535355381071482 7.691868566605959 8.018292219831745 -0.9457748985623775 -1.0414034811019808 0.8302614041733895
Ni 5.500344283098539 5.128411653398028 10.324293015666056 -0.3385379245774621 0.10884276723703189 1.6724365290652294
Ni 3.478398053170484 1.863176569818746 12.294030729420152 -0.019668167852888708 0.2790850206274677 1.1580883700912508
Ni 1.8625940815479047 2.027604687416228 7.3845237157116195 -0.4300195748282271 -0.05761790762378464 -0.5025797055841409
P 1.9479702195312127 4.172308008962692 7.237969666767953 1.0596680837391232 1.213018446470227 -0.5885694794823992
Ni 7.816622760867252 1.737164940560082 12.156190889925181 0.7642892110476386 -0.11587036350777465 -1.6400095188847759
P 4.51265683019981 0.11829227279318173 11.674471240770329 0.22598119882395276 0.0027901611506274526 -0.3932237461561164
Ni 0.43766504418811547 2.38953331221118 13.028181378881923 -0.004889981102449642 1.5246888572328838 1.4077954517772338
P 0.62949322512906 1.581594343017615 2.4527573287959386 0.5336067500932746 -0.19025469195662073 -0.006072174336008897
P 6.674733095570254 1.3923873592954563 8.23444252212626 -0.33382097871776706 -0.1522069931552798 -0.1391550450673281
P 2.947446125530302 7.040239862600374 9.559558958231445 1.001096811063134 0.8266641737404343 -0.2292590982442761
Ni 6.788188866546339 8.119720070307235 13.46795170210608 0.7663466077972996 -0.6563604709844438 0.3888968366459883
