# total energy = -381174.2584635664 ev
CRYSTAL
PRIMVEC
9.19242819494854 0.00000000000000 0.00000000000000
0.00000000000000 9.19242819494854 0.00000000000000
0.00000000000000 0.00000000000000 13.45404784818417
PRIMCOORD
 96 1
Ni 5.442671335556201 8.479215369905523 8.174786964007328 -1.1243495830779087 0.8097386016296892 -1.475516766383607
Ni 2.40409577455152 0.5382065655742726 4.643570785292384 -0.9932567461934249 -0.7897691004862979 -0.15213448804613153
Ni 2.9343885785982 6.965250005391655 11.058110684129595 -0.14123275353196324 0.34871023712477367 -1.0882883185789771
Ni 4.601095331824444 6.2819308473551505 9.368269346588685 0.5150395286140484 -0.08003278498387506 -0.24205085069230572
Ni -0.027497310788115945 4.039189766837596 2.8995759333651328 0.6696415043640661 -0.7937021169921169 0.4228104586742976
Ni 0.04748073067989719 5.557962771354868 0.8339141147397146 0.565059312175601 -0.06421535833564425 0.97328415972624
Ni 5.973166373025586 1.778854378544673 7.499030416737173 -0.29156078449697526 -1.6847071189024663 -1.1970634658028674
Ni 8.25244735605468 2.3893603119789435 7.157446215631019 1.470903693091628 -0.040751213775433046 -0.37835377102281936
Ni 5.4580226908251985 4.028057736160496 7.770358726795483 -1.3759654517508302 0.24018757223132187 -0.1150398971866793
Ni 6.8774439302243096 0.25185139296612313 9.60843716317942 0.45027986773916 -0.22711505531807982 -1.6962786257901497
Ni 8.418453418810866 0.8615088652678612 13.297133427397862 -0.5921114311973867 0.6576161977684158 -0.3983726373469075
Ni 1.6919123916379768 8.871336784102915 6.882660633287277 -1.579198815355306 0.4508334262497848 -0.7581478740365911
Ni 3.9304617248485485 4.992205578908311 11.356507937817018 0.10774156375305315 -0.6669264194257483 0.03700640202102014
Ni 4.347549774321749 3.8049391163466515 13.182397214268804 0.07199860182548891 -0.26597393716680645 1.1703458473023651
Ni 1.278942550045322 1.9299043604489692 3.024832880689021 0.6948082334376808 0.5066052818037662 0.30277747914840114
Ni 4.354333786410684 1.1147657805217868 12.042314566952799 -0.16874381446803843 0.8508415423175862 0.452059328237086
Ni 2.4521629821572635 7.110766145456469 1.874215710535726 -0.8281878094738123 -2.625121267373563 -2.0055375988978366
Ni 6.133316858951623 2.823500315957528 3.5297371170007033 -0.7995241229905328 -0.8393949910435414 -0.2899895833551135
Ni 4.587040108946422 8.712537585137683 10.278502678086081 -0.28425036687849115 -1.1535341750616648 0.835208977986652
Ni 7.800198268315659 7.268673678876138 12.941381855788368 -0.6573642296586099 1.2878624881643113 0.7417198103875549
Ni 8.740197601906793 2.169541773926519 4.595216773923532 -0.7313418095873404 -0.26138786045802076 0.40307775613206065
Ni 3.1372746637132023 3.643023684186095 7.13526028991741 0.490363108913291 -0.6096298996971242 -1.5522906781105523
Ni 1.92355239249036 3.879011703626643 12.724959919994562 -1.008321096725715 0.6927588071078198 0.6588133034003105
Ni 3.488471387097674 3.8379675112457594 9.38781796462165 1.8835698642430723 -0.8805233856527351 0.5092211221600585
P 4.76066669476728 0.8784845226183154 1.2835470373831908 -1.210244997490148 -0.15625082420735023 0.4537693689496572
Ni 2.911288006268265 8.33699931160213 12.92323232534339 0.11644680483653493 0.2772572233901096 0.7552517834357186
P 5.190486257442615 3.155392939901942 11.270792220846179 -1.0069203597234464 -1.3986824337323716 -0.3422953347373653
Ni 2.296571940670401 0.03012174906913326 9.957972814769217 -0.8890545630521979 0.2784075349444689 0.6557979136127545
P 4.899031125610968 6.592947466619389 4.794592270668935 0.9881289380485562 0.534727493961279 0.1560785602955441
P 0.1841307736447411 3.1551998989075414 9.20332225157321 0.8836141087629169 0.737549223949633 -0.886165671540177
P 7.071679940304506 0.7572639705630603 3.9843486588140533 0.13006568117155018 0.6336866835360119 1.0419603820467152
Ni 7.522145696952395 7.3953821106293525 8.130671581329814 0.5612530510556334 0.5336604861493455 0.24017111717108958
Ni 0.2851960073989155 6.672158621321757 7.008254023487121 1.876641512554355 0.07639056024559747 -0.9755690991056747
Ni 5.0135595898603365 1.6740331185851618 9.50991271660869 -1.5406975739563145 1.4691846535179924 0.9259943735013406
Ni 9.073459897668622 1.060291450387606 8.903094785410302 0.6185685969476508 -0.6415378041493145 -1.0714709899113226
Ni 3.85234446911445 8.046959813729421 5.993011906492796 0.9474926525844326 1.190815942231259 -0.73266875592888
Ni 5.702265510883448 6.394142819671712 7.1359864917534885 -1.1616498621902638 -0.1332718468136737 -1.4778546704881643
Ni 1.6566594290891101 5.181542024702054 4.984643887384792 -1.0255752558204725 -0.5677959943804737 -0.8369771256306683
Ni 4.257179011657366 1.6267748446702404 5.37623765619749 1.1891195283654425 1.0503712318182297 2.244393082581296
Ni 3.5483876347882903 5.410415104634696 3.647836839646482 0.908825575031538 -1.8086090944654658 -0.7632695115338727
Ni 5.246109641114893 8.36506379521665 -0.025621136171108467 1.0339732500761805 0.856617525569415 0.5410462370904553
Ni 1.4444614141013563 4.794678679495001 10.431689899571241 0.8794563778408014 -0.6568793196023913 0.4777809013729062
Ni 8.2883805582981 3.575422566432675 13.257241965526399 0.22887934630735424 -1.4300133826351695 1.297224131884869
Ni 8.746623109291841 0.12312062698585514 10.882602408234744 -0.20147164371836265 0.2680048515539062 1.0632748272537753
Ni 0.5996285330212131 7.602910372038274 9.013445290995145 0.9071037072444249 1.3793145707287213 1.4354702919846825
Ni 1.3140760110262262 0.8314339975830825 12.314113529340315 1.377646438997679 0.8871437191827302 0.10529798730856703
Ni 8.996215922623477 5.439647026643925 11.993893450857321 0.42369543238241225 -0.5640239289325513 -0.7493169060085224
Ni 8.845055631579525 5.509141784628132 9.222266007823718 0.19518015428269608 -1.3145484820959297 -0.38044047834851896
Ni 0.36038271698944735 8.903997481869833 2.935363895241338 0.06358749494365823 -0.5519662264370687 1.4729137815431212
Ni 5.40629689675415 6.861044638128566 11.594214022107732 0.12407526791607018 -0.39706034629338716 0.39187828787181544
Ni 4.94663871180147 4.484801921340556 2.049871984526282 -1.5259813507920623 -0.16666662022403553 -0.8100425060233534
Ni 4.849722940184078 4.48311970696078 5.566759925242551 -0.6770506523439436 0.1504828113753215 -1.0653692478889587
Ni 4.719236420397596 7.437419085267154 2.442649738104637 0.1184113847620735 -1.0923231507699833 -0.32759839484682296
Ni 7.106445704153218 4.214893841455336 1.9780276418673715 1.9269073506884427 -1.092122347613087 -1.3345174690186887
Ni 7.70922080538316 6.89295155677449 10.695174310557075 -0.2652990225869689 1.3249478230523828 -1.4289664294278939
Ni 1.4887321488172212 1.9511756395462516 6.42646063986286 -0.8103808631993785 0.606896302816045 -1.8464318217401943
P 0.4592362524934895 7.523322327775408 4.8090822954057755 1.583505927371092 1.5414833030824031 1.3909215588400303
Ni 3.0780846178586647 5.9051148262852315 6.741809650587145 0.040904194413529556 0.35061516745697036 -0.6797472253395003
P 2.711417037637233 3.1327244117023314 4.806081886807092 -0.383017752157392 0.6694584418189825 0.5793703294816344
Ni 0.8162159325245039 4.329550999700971 6.962267981649583 -0.36737721740665763 -0.6692062165988604 1.2412782126468687
P 0.8092728914258966 2.403893541128815 1.0596838308766594 -1.521900495854469 0.9451277518966819 -1.5398488528027738
P 3.7868024553013027 0.7603130990317588 7.483047541643635 0.04677042338631945 0.1303418176510723 0.1812352620668298
P 6.681130431347231 5.419975230071677 9.005937834798623 -1.3440462344447304 1.4739573923162874 1.254035255202221
Ni 6.54945808830943 5.572275382225424 3.637503630989069 -1.391442721450823 -2.059336904106479 1.8732607690075802
Ni 6.816571669989996 7.7508165434623315 3.6435044481864356 -0.11253307160442555 2.8625335908525926 0.09970532371213796
Ni 6.500416483303381 5.108103714975093 13.435643098608764 -0.5504662448527745 0.7098746408525 -0.46854575592788344
Ni 4.912415301222741 0.18231802678303666 3.698813450810691 0.3087383247175264 0.27444469364197893 -0.580951043705193
Ni 7.778209979810603 1.6656863936844133 2.018955090408784 0.7265019649965359 0.026230651561754824 0.6530913133148688
Ni 6.916079706389339 1.744447119399847 11.457427011961146 -0.5859101874826812 0.7030054245364924 0.1978826408155237
Ni 2.541035379007965 7.272084069777215 4.092264090140956 -1.0407794743647365 2.4178499862542875 1.3069117914862782
Ni 8.856978211090835 6.292906606751069 3.3165169039854567 1.0085424687079019 0.01459872374978131 -0.2131115419501362
Ni 6.651218269643447 4.651497416219604 11.089700463999002 0.7487088401108782 0.4553583107033319 0.15049078179512146
Ni 6.678142892148174 3.1138615488209043 5.696054187077902 0.39522766396002257 0.5145903568917718 -0.1273336269523678
Ni 0.7232768053917631 8.2181320211929 0.6278924923299485 0.5985561583814659 -0.343606340239305 -0.37672703405267377
Ni 3.0752717347973992 7.774946667762403 8.126661844103264 0.5733781164539415 -0.911007156063889 2.9618573628555955
Ni 2.76256370872508 0.045610990762703064 2.3048129526456447 0.9365646928180192 0.9029326065858707 -0.7711748824238782
Ni 9.091238054010084 2.7348393449578356 11.278353912369699 0.5283334175094772 -0.19836575109952934 -0.3291428565158073
Ni 2.291074868544137 4.327473510904089 1.9509173323108868 -0.34597586891274607 -0.013624275651653956 -0.4707291367324474
Ni 0.8421992503708211 7.73845272739239 11.64824527719762 0.12261153888635012 -1.27245283847746 0.09372905152404502
Ni 2.3635663581557047 2.3817030192010535 10.796052938016661 0.2674001280903717 -0.20456802325549933 1.3244672838715383
Ni 6.2984864107320755 8.674977323084315 5.789397781056054 -1.3756481776207277 0.21010823634743814 0.5328963542898113
Ni 4.29822320403825 6.248718603889947 0.26119733482360236 -1.1433559489770824 -0.7362042798859643 -0.023658777069520544
Ni 7.182604972658396 3.2989694775944445 9.060238428037843 0.6500671817765643 -1.4362177116736683 1.7709442329248404
Ni 7.6692888968271555 4.874763114886324 7.253749771523313 0.6616543723935314 -0.2297414371973334 -2.2356253636909953
Ni 6.099599031929657 2.284272471598593 0.2886027213286704 0.2782265292819144 0.06311621173419453 0.58532783261665
Ni 8.434576938057466 0.13642942468552896 6.076252102521153 1.49650031061381 -0.08780445850949395 -0.1369698644905512
Ni 2.1725109282689656 2.1063714066160077 8.552092941505892 -0.1860062010929119 -1.4639511730331949 0.5479676468006369
Ni 2.9075742652331296 2.279308560314007 0.7711767108023587 0.7338846306138522 -1.536700022761147 -0.214232800038773
P 1.7402002175230344 6.277205939206489 13.084707440188147 0.7731883133094813 -0.06288635511157557 0.06700217705216203
Ni 7.8068995485498505 6.761113750027202 5.520639673951762 -1.1186525326931314 -0.8605520847371307 0.3727546796684871
P 6.589445151435264 8.713466020396467 11.560848265089836 -0.13283861593099705 -0.18796538170181176 1.0286438674434673
Ni 7.2776362964733075 6.671744962048041 1.7225489166921781 -1.2715102720585327 -0.014410004777742926 -1.6625722346766398
P 2.5778786316535602 5.554837345731239 8.78032714767135 -0.7861232762035946 1.9644043191926361 -0.5493632415965829
P 8.008848005977764 8.656169614772717 1.4560107810234932 -0.692521237175717 0.02961396621169093 -0.28352171624258266
P 8.570376681404118 4.430106972927061 5.116991873902994 -0.04835936513999413 -0.15112712982753973 -0.11495453656172461
Ni 3.684886002686105 2.2083797835142533 3.1160116578013946 0.39045698204425655 1.0340069315275935 -0.8221724565176679
