# total energy = -381167.35872207984 ev
CRYSTAL
PRIMVEC
9.24877987420357 0.00000000000000 0.00000000000000
0.00000000000000 9.24877987420357 0.00000000000000
0.00000000000000 0.00000000000000 13.53652422689120
PRIMCOORD
 96 1
Ni 5.943515652862024 5.062254913012461 9.311043567401708 0.9863888154289981 0.037435776248954875 -0.7682816200364833
Ni -0.09641113098043548 0.8547000938575814 4.150745113764133 -0.894411713599053 0.028080560286300026 0.12202507025526081
Ni 7.092454579319266 8.223256648477854 8.926633755590812 0.7967424464803375 1.1631822396743903 -3.9889876218680134
Ni 8.566007181180982 7.116945348379356 4.936174621130265 -1.8979351318258086 0.6676481280831211 0.3564675124726893
Ni 9.53549203208198 5.133128313053048 6.168620780912112 -2.4931398572365384 -1.0774899424118927 0.6212469151107624
Ni 4.172402056676182 8.777684005757374 5.442346469508342 -0.6438512827738395 -0.09531027996823585 0.5950568869789559
Ni 8.822318617344987 4.773535752231178 1.3711279142185655 -1.1597798988610606 -0.3894424247368132 0.325383132363059
Ni 9.217731702551195 4.7957328238868495 3.798659787551808 0.18297949845144615 -0.31863732899879316 -0.01923185164641849
Ni 2.4561337250395607 1.300905628279879 4.756599386557902 -1.2862943723462428 0.11892046318800809 -1.5268773802437703
Ni 0.22935494239416276 3.416360547304173 8.184886235487069 2.5434486327934196 0.2342850907039578 -0.2403441524138441
Ni 3.360673643788009 1.4494687791153134 6.737724102067975 1.1919613686896116 -2.3234388210615537 0.9885824806462072
Ni 6.684870099821865 5.0046165169465695 5.650889807469342 -0.8179401636038751 -1.8656253639495097 -0.1784417584820927
Ni 5.578281336327672 3.3436096449527115 10.928414696032458 -0.5067189245634951 0.7750582766386845 0.8802544482620648
Ni 7.701708703588294 0.6193214211428609 13.31096512853347 -0.7359890785513646 -0.6613838923409642 -0.24487777861813953
Ni 3.075117565717658 3.340909001234605 11.755497008360457 0.8042318128788472 -1.3750323984135995 -0.7467787129677009
Ni 0.9316295949482231 1.6418249025714153 6.723076809409188 -0.03912139148149391 -0.713917700573622 -0.2657168268506779
Ni 6.581866438559695 1.8215656903032107 1.6212694893402781 -1.0681663510181216 -0.39542563890344157 0.014137982063278877
Ni 5.037828885411367 6.573588780588102 13.056492349804945 -0.40755353251522713 -1.42487169053323 -1.0004740898774707
Ni 5.561883249642045 8.143125219800881 1.1305911969778584 -1.7188745088127946 1.303962479049967 -0.12173942069404196
Ni 2.1228446941296615 9.58053358998328 10.663369637049934 -0.2868386964309576 -1.4711520616570084 1.0726665528813204
Ni 0.5749929441685004 1.2373572618856643 12.75005252681855 1.4799467771305026 2.217200581326904 0.005931534993086559
Ni 4.622114728420076 3.257152050853873 7.645929312273565 3.3196230253144186 -1.7655806546200816 2.0098333980597127
Ni 6.067412307820095 0.6768257099008335 6.252385130316728 0.5167112598895165 0.44230816238759313 1.300830875399521
Ni 3.1888313140536892 1.079314111697287 12.647810965016559 -1.1848350420574754 0.16788712289469795 -0.26045429290015787
P 4.222049506946033 0.8965304753926933 0.8813615515499992 1.2713259239618686 -0.02518318413384695 1.5343680321938609
Ni 4.863988819228037 9.299278194546217 3.253246291120461 -0.3882710301365313 -0.6736488257512464 -2.0350831737654373
P 4.121293299189 4.98164254778295 1.0682821670844187 -0.9370452319988636 -0.056812895223986026 0.08224907590890351
Ni 8.033425441922583 4.12355925025385 10.967197604604845 0.24805000569853405 -0.7551239996086028 -2.425072986365288
P 2.072485087810858 7.471303099802429 12.432606655802886 0.07165613088440563 0.643346318112963 -0.07440669704634928
P 3.1743662223580773 7.699895942736415 3.756967212836559 -0.28877448000108974 -0.22082613698557454 0.641538832590579
P 6.135871776318127 8.420283405761502 12.62165819021625 -0.4704663699893639 -0.6518340438689999 -0.1516889158682807
Ni 4.193683499126057 8.4117097868345 11.340182398658968 -0.36552062381389305 -0.3987385053267584 0.9217564241605932
Ni 6.180561880584877 1.542603992270566 9.603852538635548 0.6732970988387824 -0.7864037835584908 -0.2869716224643961
Ni 0.5966156665950808 8.074730492761846 0.824080158386569 0.5997841172512961 -2.4136328628491466 -2.7135618168051585
Ni 4.93457550709307 4.007903258147947 2.960369803793667 0.8314610809084455 -0.05567569629574927 0.1485061472649249
Ni 7.15357976539107 9.028381432548464 10.897606085452372 0.9519339761852379 0.7562784249280201 1.0576312558147527
Ni 2.58008587267677 3.408619318564258 7.133640320898378 -3.2125828585037643 2.431799249345528 -0.5378498416403448
Ni 2.2735720594515234 5.809223369345215 6.055685779840001 2.5723645444968213 0.152641252479221 -1.4733670670304562
Ni 6.325971197489235 5.091777018314504 1.1558597884238828 0.14469731504179598 -0.4071686383719827 0.00970462888227361
Ni 5.534025924714178 1.1680654032005446 12.211068782143462 -0.3120275369917594 0.8978155970742796 0.06704382892337486
Ni 8.25836501681324 1.2493436805797267 8.468869096103823 1.7669651936724344 -2.421148197389585 -0.025910292107858602
Ni 4.6912123627282085 6.557190693902474 2.639148580840568 0.7626020531532027 -1.0935606227215102 0.9278411969020924
Ni 7.516159682106598 7.021534935379397 0.20807165018831691 0.9039363652600367 0.13181865930691491 -0.30881211537825526
Ni 3.1135369972416824 7.493222708062405 7.488296807910818 0.09147470827222955 2.1487315899212285 0.05398648151878445
Ni 8.378118218395583 2.7527050999190377 5.607518579210133 -0.8012249077317233 0.6723414197937324 0.11509234769116954
Ni 1.1723475882741181 6.732519813642705 4.2248981311418445 3.9170949494927707 -2.4792438159807366 -0.9721991541921773
Ni 7.402862128864111 3.197349440301553 8.46200650145028 -3.22613462904627 2.281291498269542 -0.5547728426479285
Ni 2.783226073445585 4.071035429448618 9.350543256412974 0.9687849863043059 -0.5470168528515934 1.394256022529902
Ni 2.6638798181769276 4.997291483300198 3.0251695301024704 0.050942038265505814 0.3983893495174558 -0.47398029667989344
Ni 7.370907594459802 8.770405216010285 2.109030716535949 0.25571446422232735 -0.5200338965048463 1.867687902905493
Ni 1.8027999159743124 5.798161828636806 8.180541158710472 -1.8131409208975486 -1.1022609787089857 1.0183214024715366
Ni 7.425493893173039 3.2636261967534437 13.227675241535492 0.43745289117782077 -0.7296649361055498 0.2412820908470812
Ni 8.347624991208606 -0.006943983916282397 6.062170099397414 -0.3330321642678845 0.44844255742010514 0.5608218770554857
Ni 9.18514825111664 0.6281299590782197 1.618386644658998 -1.4879375086454634 4.230480028953689 0.46655623630168036
Ni 4.7458726516802985 1.8217136707809154 4.676408765689847 0.6923759698471044 1.5816423917997922 -0.02689116796388917
Ni 4.271234518223057 4.264205445532095 5.375001478983023 0.5452381636846158 -1.193547482229809 0.05877001895035685
P 8.56897603951493 6.939072814178579 2.4273154518846 0.724130636550882 -0.865969141987644 0.18835207561726916
Ni 4.117519797007536 5.385860471412574 7.783366180941594 -0.03775922102664465 1.2262310885057592 -0.06328719009442003
P 6.840934011120945 0.8023409013337962 3.8511549371394844 0.5106069467639915 0.4405487564943251 0.5355703015775486
Ni 0.024793204161398803 7.540372987770993 7.3863669299899914 0.5242715887352778 -0.9786310258604503 -0.649294565276598
P 7.537820324530591 6.492782190981601 6.684647204227322 -0.04278855592043598 1.3908482823999337 1.7427078637869662
P 8.23064642358322 1.775025830065154 10.763634734596584 -0.8041474806951572 -0.11890812189283394 0.1442136905371581
P 1.172976505304362 -0.12182585314819308 8.073603066497334 0.8448354453328224 1.0111634512705168 0.4280164283552693
Ni 5.545688636113261 7.334994582276898 7.2866974538661 0.9167869959704599 0.41788036836253195 -0.9165897923579892
Ni 9.424876624997887 8.528697603239742 11.936236664316757 -0.22621619765289427 -1.3162672645592493 0.050805769797957666
Ni 3.139609307657239 7.83552929933242 1.4946620170062594 -0.9133131784892465 0.897702468535183 -0.9098815270998781
Ni 3.2215997410853734 2.3609452827561586 2.9200044289878297 1.6999301064998078 1.234200479864481 0.09197993004342223
Ni 0.25675537759711725 7.7495803881256915 9.776063894686143 0.648522977217896 1.2360156786963488 -0.8785400366741193
Ni 2.035129265970335 1.7552796850714634 9.036698860273443 0.8554132208486687 -0.2891719725498246 -3.3840893233186042
Ni 7.008577394800399 5.753906417023312 3.5598895872636986 -0.5149389984804422 0.40695420836833135 -1.8198882669237109
Ni 2.1301697277760328 0.9941328492186499 1.5918685430543564 0.7327929402115703 -0.5895405851464169 -1.2382273416356868
Ni 2.4507509351630605 7.003573804898017 10.002828253842491 1.1304621237335497 0.12879735598208783 1.3010756444204754
Ni 8.723319677760694 5.597861003283945 8.626095579030869 -0.7323352838488614 -0.7849451967350933 0.00043271666204441607
Ni 0.5395321973205804 3.789132619421597 12.562381835237767 0.9279581820959308 0.5020240901909869 1.8954493892894775
Ni 9.370401311642928 6.139922741895286 12.118749311371555 0.371936811752882 -0.4497851874909286 -0.3810428878192083
Ni 1.4235074540580348 5.887902739584712 0.9164578964715719 1.0923542611182349 0.3608003355200883 0.06026074456327041
Ni 5.076359302293669 3.1537784383974423 0.06028447198284535 -1.367592911416419 -0.19777645425496262 0.41665395215459855
Ni 1.1261221865511832 8.500007888124788 2.9586920751276926 1.0206953020203517 0.4285069948384427 0.9845671888392269
Ni 2.7370006717226505 5.375964276966087 12.554638756741879 -0.03421341265691527 1.1110076145533638 1.1205680045482898
Ni 5.168930339877673 7.379592198745083 9.558261603210772 -0.7889404339374155 -1.5969062599373982 0.547289904007322
Ni 4.37002073587065 0.12077796639044829 8.719890230189892 -0.5229047902947381 0.06610486204887324 -0.6947056464215454
Ni 1.7037084885914546 8.612103099985926 5.614543952389153 -0.8513894444012563 -0.565739111851445 0.8913932384877036
Ni 2.087329379480588 3.6558299553494367 4.869954282235499 -1.1408943748104674 -0.1347962538780001 0.063347096798078
Ni 0.8850138947153428 2.599119861621508 3.114876220564908 -0.5408960846658362 0.7857098428152597 -0.6039873566993663
Ni 4.435946038687993 6.473073041107337 5.378954407493703 0.11415132393413889 0.3003195045262118 -0.9427782778278988
Ni 6.4296962635802135 7.916409879177771 4.84914822707025 -0.66065164216063 0.41625954492965733 -0.17155788687806584
Ni 4.316544290740196 5.5185157208947775 10.798464714658289 -0.3854793263240071 -0.09242395955937631 0.4746205013670535
Ni 7.368382677558969 3.284445200210492 3.235919626937238 0.21553352112806753 -0.1858858734649637 0.5136717017322444
P 9.439674672768335 2.6684487154260537 0.9748167724882878 -0.923497575221416 0.05742301800415917 -0.3213390442006724
Ni 2.163345101121404 3.471825480103781 1.0559248723181094 0.9245609834889238 0.5938260998956483 -1.0036874546084456
P 7.128108625666187 5.265709572296399 12.39220058636568 -1.0741485367434855 1.2545096237354783 1.3678142833986056
Ni 0.9073533975808042 2.7319045940217026 10.62866266576032 -0.41964234535896117 -0.8154886167395892 0.06673426810275604
P 4.115207602043403 1.943316628334566 9.808592778319543 -1.0940488752118385 1.2668234081058247 0.810306044097385
P 6.059763566878744 2.9084083088037134 6.111402279451705 0.845544555584705 0.18040839529016028 -0.10424897721876239
P 0.9862806351204562 4.847211532568292 10.31542683933535 -0.4446432382786729 1.3565266262999283 -0.3044978042736175
Ni 7.629743947524638 6.667510140031158 10.317011155324773 -1.3816223929262916 -1.6105109952050265 2.654755802410544
