# total energy = -340869.23457773944 ev
CRYSTAL
PRIMVEC
9.21339712560736 0.00000000000000 0.00000000000000

0.00000000000000 9.21339712560736 0.00000000000000

0.00000000000000 0.00000000000000 13.48473799778301

PRIMCOORD
 96 1
Ni 3.0525181842487132 4.779633936617955 9.767413251809266 0.1606785209614007 -0.0802292172653973 -0.42105413810482323
Ni 2.173716742807553 2.137268544466746 6.5633052048353315 0.08278386536645098 0.2156343083719899 -0.5157334693572796
Ni 4.899104054890264 1.1375412680349144 7.580755371643396 -1.0558021730258138 2.0297113679305623 -0.563771703712429
Ni 2.037192626777704 7.924018901871773 9.458465018527384 -0.049697110114811184 0.16707825384015743 -0.812145154188653
Ni 0.7440223427939571 3.551331495212138 10.836686012451388 1.3448265642541808 -0.024747382148008992 -1.7715960075762263
Ni 0.9916839808930232 0.6897075250844708 10.719395783897847 0.23993560412151582 -0.2871726827316087 -2.1424719821647615
Ni 0.6355106388559659 3.6644812231756 3.069908470994991 0.4626527874822161 0.39411257651897286 0.36058410574422417
Ni 2.5382079396125783 2.855876653109216 0.8847118355856562 0.6900486072655083 -1.801291734868446 0.7475580143358868
Ni 1.746703434288494 8.172264669337574 12.285620749319158 1.2574152274180472 0.13698811932299634 -0.38723076179747506
Ni 6.955460547327442 7.440509043245072 0.21692390318890414 0.07236858357039794 0.06149847362511345 -0.06711864802536827
Ni 0.6671531293467821 1.291322076555242 2.3118909782314465 0.09800479608126346 0.2776750276538186 1.6787581004078829
Ni 2.557040122981792 4.923860452499402 4.532732403767403 -3.1797709541800656 -0.5518322719623657 -2.128394163915457
Ni 3.3707120613715955 0.830854002364973 2.3633349014507923 0.07978647330102388 0.6646419942669456 0.3120717599661335
Ni 5.042169682755799 8.827770222258057 1.309083663198672 -0.2621368228089033 -1.0419956061600248 -1.134011531647705
Ni 8.021293946887507 1.610170104861693 4.134662981772015 0.6825222169814762 -1.1231198244358656 -0.7747795690560011
Ni 4.8235726266804715 4.901665379242828 3.4829597977734887 1.0779211164120401 -0.04539616874661214 0.007622292431948163
Ni 8.137557803020632 4.958502825037682 0.9313085906687284 0.08118875296518921 0.2899744138464619 -0.9913353608009957
Ni 0.5971690874415904 8.423431083637057 6.97313276402044 0.44965560389159975 0.22652241603940343 -0.08659372603084442
Ni 5.318976980771779 1.8556979202267525 10.33065769033511 -0.30330326974488414 1.015810977344857 -0.30493437759040387
Ni 7.508771101259997 3.203359919141458 2.2728528940075248 -0.5288710351805022 0.2454681039039708 0.601433479929261
Ni 8.085695591579682 2.18754605163201 10.421854657381827 -0.5295492921944494 0.38395697614220975 0.5832771207352083
Ni 3.770988091936908 0.2738175507051629 9.364543650002059 0.12192942521766097 -0.7404152326435185 1.0108348642865042
Ni 3.116136690199996 4.312671338916455 7.2388498961256955 1.2920590427441618 -0.1849628474300621 0.4396344722101719
Ni 4.318374431629539 1.3673141746126178 5.049723746916473 -0.4969027098040217 -0.05614260862983879 0.31540802342821805
P 2.796477882961798 3.387968753862074 11.631152624895435 0.8337946141376285 -0.5735213269000251 -0.6654367222540992
P 3.520015158973411 7.561499372014405 10.913548776520699 0.704386106934103 0.3812760868759369 0.7790442578696261
P 1.8732125878318775 6.774675272341769 3.623295496122244 -0.4151809671534979 0.8945842346211754 1.001950931533313
P 1.2971173032378425 6.025156216926445 0.9796826100237777 1.0156932208200702 0.1507399216914501 -1.2571146654584928
P 6.702138198141269 1.582032390571292 12.000553640936005 0.9886452155633426 -1.9108929775380576 -1.5905939445661252
P 0.23418796639694378 1.9854041225123655 8.324196349089702 0.23256322291684461 -0.5503227772963748 0.8428119871448904
P 1.9893843099954873 1.2445180200407573 4.353291363396979 -1.2474938545392775 -0.7641177184667809 -0.09194239193726746
P 7.470498650322758 2.5580996636312343 6.132629571027983 -0.47322182124731405 -0.5482602383403913 0.28638746782615193
Ni 1.2230231649525107 6.115779189343074 6.088359198675208 -0.08035854375441 -0.10601455375961741 -0.48937246286524755
Ni 6.191448818507141 6.3945581543067105 5.477163635714394 0.9233340530603583 -0.5300172329698033 -0.41574018209107755
Ni 6.111568666936161 2.8362705443960614 4.369728984898453 -2.283825320434989 0.6743666777538773 0.7997213266030033
Ni 1.4649853956972738 4.3234878669377155 13.049261178242306 -3.0042597390812067 0.16225177898579152 0.7373890442226849
Ni 3.704835901823916 6.157092061274363 5.911560560550523 1.2595191611349277 2.4524601201289893 0.0034370507060069843
Ni 0.24840700191245643 8.935502472813935 0.48280595509959345 -0.8868565269596146 0.6183806493065608 -0.5955245706439938
Ni 8.917020398528885 6.9549538104951 1.9158171780157909 -0.7751230684383489 1.36973464034977 -1.1952734637819804
Ni 8.048491894688837 4.839521016803813 6.842466525772463 0.038152599810321396 -0.2109970667102947 0.9863847016639399
Ni 9.115725730585556 6.663626198883287 12.503817022627087 -0.6265534149253402 0.2822443921920559 3.1953911772158263
Ni 2.8512423144425254 5.690405865481412 12.037002760616508 3.2968996155749735 1.2783383507239596 0.6013226653830095
Ni 3.3835647501191755 7.145984382891029 0.6489152100809509 -1.3964864545223175 0.7539155811227983 -0.9743475679937478
Ni 7.248068821115536 8.762041848404841 5.380477326763873 0.4172653604863524 -0.5942773285004539 -0.07380300202407934
Ni 4.406463719884457 4.131351686907585 13.134377303300921 -1.7241406423077406 -0.08518913237383394 0.8023351100767665
Ni 1.1156318100838427 6.051377544650899 10.841392215614302 -0.9198548362625062 -0.0680846114830634 -2.676403976807939
Ni 7.285816108426529 6.3336576004561715 10.73933910293943 -0.3488678457485605 3.1821836773866163 0.26491284289214373
Ni 5.202731551432556 5.900333115025217 1.3483069367013223 2.888119666851813 0.8794900592922144 -0.07715906298050583
Ni 4.996802916165774 6.12320518728612 10.229347177454546 -0.8514354671478432 1.8964500626398502 0.2960080216350515
Ni 6.541299927555962 9.078116644228839 10.559816984675834 -1.8198844102689689 -1.1474095502211659 -0.6073416178835799
Ni 2.6987882350832386 8.570522965970472 5.179299118965372 -0.15350025804540662 -0.6537934815882159 -0.18797875143825046
Ni 4.8935207363375515 6.395682188734814 7.927097097793325 0.7345706009372832 0.30325647566734865 0.034038834752263956
Ni 3.2470867010740845 5.119000199935776 1.8638333497350774 -3.305449304917198 -1.326700029856799 0.00524607889028774
Ni 6.57333490875692 4.728195541436781 9.108940063730651 0.4785650878370984 -0.07144581464581244 -1.4950414666800964
Ni 9.319995954401037 8.501910798871384 3.8554344030371364 -0.38917554422867173 0.7788210861152264 1.285902793334779
Ni 1.6250958079233988 8.461740388162102 2.1626422396716456 2.652743914186838 -2.085282420327647 0.10819870589512978
P 9.14807396728287 7.92654337263653 10.093784940066449 -0.8540932164856646 0.50630086318947 0.7861533581105815
P 4.910233838407882 3.3128150749273 8.627804497498396 -2.8225557649080746 0.41298781615692104 1.2778773519271411
P 2.713944273068736 0.41193558440765105 0.2723590699677135 0.21099115317302372 -0.5616770259669294 -0.10482387588562592
P 4.236439692538336 3.9856418141169203 5.2587508475781 0.9884343851041172 -1.9466930179558024 1.4082633925525876
P 7.9352776729467145 9.208559918270586 2.0765144836277374 0.7893422973615245 0.519483423318015 0.45083574024263
P 8.36001527241871 6.849230080474684 6.303279188027124 -0.5406677707051141 1.9514400457224843 -0.9916559773652082
P 0.8638960078527479 3.7693665340734137 5.598782318155831 -0.05391706173342973 0.8869220900902273 -0.33987052734595663
P 5.062706344561072 8.74317281144782 4.225509839734569 0.9066118552096709 -0.24508166709882953 -0.6436178266067948
Ni 3.071046325518522 2.8703785399111443 3.61866944951281 0.7573829708461085 0.7289900215257122 -1.3238347924938618
Ni 8.1726792722004 8.799485093616427 12.068812934931845 0.6303671322444756 0.5792343181244024 -0.6412639816626375
Ni 8.161862744179139 4.644086440664984 11.777354493083317 0.2799921058227694 -2.0399230183562413 1.1703746436577713
Ni 3.4175898250616936 1.1270011419222037 11.630693797727242 -1.5304406721149966 0.6644525039639588 0.2808200010407034
Ni 7.373315739276541 6.917013041848122 8.328673138668519 -0.8311558909632007 0.9358910637897624 -0.06244026871309246
Ni 7.909470948085086 4.105996418496589 4.618563488429467 1.1678791309294274 -0.3339001686951346 -0.025525397964614106
Ni 5.787183387061756 3.9146249504134465 6.771873478328766 -0.5233092248220084 0.7037538726667428 -0.8757467901996983
Ni 5.007748431744359 8.471193333434515 6.355316454010158 -1.1079829687944274 -1.2089170227073438 -0.2503881669134075
Ni 6.518515196894482 3.3230511589406055 13.066036931411906 1.6948310947103455 2.078377465677698 1.8567738270961505
Ni 0.49874236780689746 6.49677158008854 8.33513172993164 0.47305264265930136 0.08676393306012153 -0.2622550935543225
Ni 8.904444111689855 6.037087565978859 3.9013502880854802 0.8374437808544416 0.3473328971612728 1.738654519653199
Ni 6.557552359778708 7.7683954139611116 2.6979719281133208 -0.06076956587888888 -1.352685398176967 1.521505831519212
Ni 5.973727035142223 1.2749130165843172 2.6567493474721577 0.20395044427615844 -0.7339671630253295 0.16978845368246887
Ni 4.803275513195942 8.545665220994865 12.437701686101901 -0.03979167807564115 -0.591840179813871 -0.5122905051140016
Ni 0.05349574672048276 1.2470424908055149 6.102558886057122 -0.5278418225850393 0.1811923246440363 -0.0016599042009261735
Ni 7.531113588867797 1.596285515655526 0.5246550467334699 1.5068410304181854 -2.421193963025856 0.9226061737553981
Ni 6.7185011911274355 2.345288620841556 8.32810651475599 2.9350505270753966 -0.5863791566992999 -0.43265572689949355
Ni 8.067287224470245 0.36583266740118847 8.964222473791683 1.1914384063066061 -1.1279725245424768 -1.7604975836702197
Ni 0.3457271925732537 1.8436560104109196 12.462244332901761 -0.42777165933431494 0.8047576034753303 2.0094492752474165
Ni 5.763348329147784 4.299357980321291 11.188867189589288 -0.37893612588885056 -0.545656739279273 -0.060304710427328406
Ni 5.062568143606797 1.5981926888245217 13.34247385087043 -1.7233412863348967 -0.9145982158492572 0.6424096652313065
Ni 4.023066632534605 7.247506803901484 3.0081344871134323 -0.749080364517684 0.31749524497454995 1.0566760909903352
Ni 2.5359782975502743 2.5848369415849817 8.971193329925315 0.1348384199698452 -1.1369179066612225 0.3321268788447958
Ni 0.8030700825175162 4.02750748986531 7.944600709322109 0.271101745311675 -0.04569158849984389 0.42556256749813803
P 6.204375214430335 5.529217485811941 13.01890764198503 1.0290123065264793 -0.020212213281816806 -1.1692515857969217
P 2.7938336380366686 0.2225357832721665 7.389838124029971 -0.2128076375564722 -0.5917733311316776 0.064868675648927
P 5.921791116525657 8.657589567163756 8.325314855479634 0.7172722188681518 -0.4590619848071642 1.108132092777782
P 4.745433807133356 2.787282912804031 1.6597824047670466 -0.6832094728564879 1.1740538922815715 0.5230793681993894
P 8.709258297268722 5.178067287792935 9.551873200842502 -0.5889284054837147 -2.417604960123017 0.6664571930988135
P 6.877902171788282 5.5018536968654805 3.3164230411735742 0.13480576695969687 0.29693747542785637 -1.1898733758123314
P 2.694006482065322 6.442513885440154 7.911752185170319 0.07649109037920375 -0.8109380212544293 -0.25919110991701816
P 0.23217760318208935 2.8528270187182128 1.015335692207656 -0.830858157217124 1.912382160489074 -1.0986892021973271
