# total energy = -340868.0294756177 ev
CRYSTAL
PRIMVEC
9.26456961923560 0.00000000000000 0.00000000000000

0.00000000000000 9.26456961923560 0.00000000000000

0.00000000000000 0.00000000000000 13.55963411479477

PRIMCOORD
 96 1
Ni 1.3403237909021886 2.957315419172438 0.8973198736993439 -1.500432041568048 0.367272059287361 0.047632000055666354
Ni 6.433150261102657 8.115003140064859 11.502908879839348 -0.318907037720412 -0.02611495191949696 0.2547073631140517
Ni 9.008191015791255 5.242754997546258 0.6859357513899772 2.2210942599543557 0.6462082130417903 0.6007439100614042
Ni 1.6590157152776337 7.153563181229248 4.123294836410657 -1.0745167187161817 0.3600886541650444 -0.8874869614547619
Ni 6.2434767308332155 3.9389150811227025 0.8214699171874044 -0.4877225859666503 -1.240241029631606 0.648625050013399
Ni 4.016459527386329 2.1278492520961283 2.9339788951947257 -0.19511304849018657 0.9442499772774189 -0.3864326913762119
Ni 8.676445313066292 1.5971098622389777 6.769823788315984 -0.7547977266174356 -1.6757313977664172 0.48678233354056805
Ni 8.985335322967794 6.448223715591416 2.920731487343787 -0.23957719234083252 0.335052537132023 -1.1660940140045464
Ni 0.40323667931252344 9.237164849650934 4.944520168964685 -0.7086623657119537 -0.669929210807814 -0.1279388646365345
Ni 5.530679286791297 4.23162915277136 9.77861130241691 1.3467847164218159 0.06493835254459784 -0.010585231715014028
Ni 2.3165592671431776 5.462677347057125 1.2386043771259811 -0.9388758574496993 0.32972675404373536 -0.055006695253182684
Ni 6.843505835577542 2.3188661449352495 8.638964570915263 0.7265161060639229 -0.26746234878687486 1.1862730600555829
Ni 3.9680058291833697 6.150414130747419 10.620284466195365 -0.9283073379052335 0.08583576481889733 0.20507915856396294
Ni 8.504365200174945 1.5916900891130255 13.052530412011649 0.5554516138825079 -0.06647972888978873 -0.6347688608565971
Ni 6.949436922623934 2.9137904719147896 4.828260013442867 1.7467308689034304 -0.08581879553803284 0.22100688553781295
Ni 3.9906669660484626 0.8362997134997325 7.541596702080766 0.661405746717835 1.3980658831942956 -0.18114758744902998
Ni 4.15124048368779 0.1553659031536898 13.3948432826468 0.6138076852238977 -0.30358943352673523 0.11940563035454275
Ni 5.995547587886872 1.8230263881814537 13.59041463782561 -0.3780858620734134 -1.243322239660091 -0.6636680603894506
Ni 5.606528316846291 3.55381472295781 7.263313123801311 -0.030445203863734664 2.418338752965248 0.2340691180384098
Ni 5.163524399643446 8.427395157216974 5.955160550300608 0.356182891352735 0.5681893731641504 0.7582211504766877
Ni 8.508043234245035 3.7945823537223404 2.7488088721330213 0.09499017762465577 -0.4327300317808548 -0.3130876028251576
Ni 1.6907746593387698 8.113919185439668 10.673194422301885 0.4658640953306622 -1.2230418921445 1.1859951238038478
Ni 6.4835587834587365 5.76280307426264 2.000602243668213 0.4395789363818881 1.3990416168440034 1.039220614518049
Ni 4.376693781157962 3.971359603322848 11.887934194991727 1.5978231153247129 1.901514621646951 0.7950874273754178
P 0.7802842737148895 7.1520715855484305 13.54295595438116 0.9655878195232467 -0.9336174372642373 -0.9720032361312871
P 1.4654695949797347 6.257614463807922 6.844306294377683 -0.46815212003389056 0.4807469259797656 -1.4151526634732532
P 1.2075069233232945 4.682961917906224 3.0289101589377965 0.21055509407686965 1.2213387934104645 -0.1243334066734633
P 0.40263262938463956 8.699754969792611 2.604303823740962 0.4597304716290986 -1.8025901419648955 1.2749210975122947
P 5.846675221457934 4.0174971591642885 3.2647119804792313 -1.5334925715674428 -0.4708296668660536 -0.8308082778157951
P 2.804431494173351 2.5811738996618976 4.648229047052898 0.1857578325275317 -0.7744774644345501 0.24587793774787975
P 5.309969448877513 2.126542947804232 11.383136526040525 0.2748370439843912 -0.5819972255815203 -0.21900091085137768
P 3.8575073094000643 4.706799655090968 8.62551334253651 -0.8353696719342322 0.6737611829593945 -1.352090959126078
Ni 6.858273559274581 5.5359878850838955 11.07331264753886 0.3290366699552462 0.6707432220686771 2.023558460955289
Ni 8.746476193509155 7.999835277280733 6.871114252526837 1.0287827070141766 -0.2261274945938299 1.3605637724837796
Ni 2.1643423911442072 4.505814085527874 5.082869837416775 -1.2495221978232158 2.2937847456405462 -1.2619038593170204
Ni 4.904459244222924 2.353061670760703 5.5503377766989175 -2.769566871415869 -0.4281740369790561 -0.012074671776346947
Ni 3.555991896777637 6.527482107202566 12.912120303314754 -1.7371301125888727 0.46585381091801703 -1.0569943935617023
Ni 8.880182459754872 8.763699028109404 0.6171342793126096 -0.6981303558323783 -0.36906154708761596 0.07529681296078646
Ni 0.18299006987104394 2.4546013518896563 8.965480424187916 -0.5388150337670914 1.0677588311670578 0.19621013820910727
Ni 0.25818038903842305 0.17325949258183407 8.959772522952191 -0.07037726417198203 -1.2466808717196787 -0.03445303947154712
Ni 8.780041728612275 6.62772474860907 11.54013021404589 2.3760397350867204 -0.12844922861404975 -0.7443729317396859
Ni 1.278705139516361 4.675689230891058 8.376952355953943 2.008289707721677 -0.3890027660962333 1.6317956156154154
Ni 2.515627070830935 8.103515073951728 1.28264628735872 -0.10563814425680516 -0.6583749303113113 1.2238921559599374
Ni 7.472987006590932 1.4280407344176023 10.821103273508431 -0.5452515334210545 -0.24099387018270108 -1.1073031691185833
Ni 6.898676346628903 9.184653270030596 8.474622226425273 0.30746202910826403 -0.7585674780725129 0.31357739797738254
Ni 5.045345551789347 0.441840287280418 9.98218168685546 0.2299970048515652 0.12489390716262362 -0.33337103566454196
Ni 5.886244197562109 7.206315639655184 3.9692982366210967 -1.0382145418510376 0.3717324090515598 -0.50857217572215
Ni 1.9314125861310547 3.369690669786567 10.268765392901651 0.2685627809399052 0.23482270837498267 0.7011228628017989
Ni 7.489718819010539 6.60880649780019 13.478940558879634 -2.1435554450369274 1.8582239292791158 -0.47443563904975716
Ni 3.535998955913013 3.5212127030770812 0.6970643522085993 1.867667848300835 -0.4412267563979563 -0.2760529186693633
Ni 0.6609362371966955 6.735860803183627 8.879946213233996 -1.3572380505446562 2.283927650340808 0.8678846138428021
Ni 2.770578757417402 0.3748102008811395 4.5570406693660415 2.27762896181629 -1.7937799998724333 2.277720493088832
Ni 6.372383950105867 1.8995146735282273 2.4754327362891497 0.5797192281806209 1.3449018975768061 -0.2207569743105359
Ni 3.665424991074645 5.480196647879648 3.2666918189698566 0.39888043022126146 -0.13632451759706846 -0.2389174472696466
Ni 4.592104285348592 4.836105250849801 5.448585936929649 0.8264638848041702 -0.5642046774847895 -0.502635755633057
Ni 7.081308804119328 3.420238160684338 12.00164566745893 -2.376671712243765 -0.2818206743910759 1.5272543039672148
P 2.8434168024024236 1.3834225679653176 1.128134577507958 0.38634270276556687 -0.03716478197575535 0.027191729923443493
P 7.813487727442432 3.842906347953054 10.018983336066093 0.9216823763895482 -0.4201629937491215 -0.8887388315839919
P 6.208336218924264 1.1736449219978997 6.888362101464591 0.057876560601810005 0.8872344791243236 -1.5133891159493484
P 4.633229709119708 8.204332118663888 8.11062748391548 0.4652154060030697 -1.480568984095534 0.5366218827705146
P 7.55659048127229 4.564523662107635 6.198258220280826 -0.5500042176146914 0.03470423625040475 1.1658567011827599
P 5.363546453984149 5.5518395634061255 13.382382436741832 0.7789635252303616 -0.6715670035215531 -1.6319180001258924
P 8.281329955330197 3.3795111133994036 0.5338810053563137 0.09415688309008301 -1.910290825177684 -0.43096599790189655
P 1.8437604946017636 1.10306743195772 7.36857623539064 -1.9726462474864541 1.8566758680657056 0.7378757540511163
Ni 9.134559743035682 5.847240360194145 5.266425972480972 1.5169683486601746 0.8475011650904437 1.4818082558192738
Ni 8.818591602077381 1.5034635942780779 1.9268914762413716 -1.0026908950231312 0.43298097144939623 0.2982600508940218
Ni 5.450003416054898 0.6537589752468231 4.23357563881198 1.599873570095838 -0.825347768921856 0.9227552977387526
Ni 3.1443485471497477 2.0763104522676277 11.912829946007214 -0.7341124303539421 -1.3945660975711531 0.7941595162445098
Ni 4.890154748998188 7.19026014080514 0.9953445771804578 0.8436617367396954 1.584349249207994 1.8057891085181672
Ni 7.863942572645742 5.352475293496093 8.347446555182092 -0.1518390682928998 -0.4048903838607672 -0.1093130220052311
Ni 2.661423600203777 0.7353001567694849 9.869379068650916 -0.510719561082456 0.6827240485796371 -0.870203748894282
Ni 3.039899791214727 6.734498911475054 8.381793093489517 1.3246639732633767 -1.59123517769455 1.054464428050997
Ni 7.3408464525816015 8.83178434896859 2.5715572765768746 -0.35952635390367116 -0.5882267514309998 -0.1864844262809111
Ni 5.8238102640650276 6.365296554479621 7.08016277687885 0.08745761669303648 -0.5722062076330273 -0.7846459203271197
Ni 9.196947353685534 4.007713773829236 11.879852711063918 1.2043047207463131 0.2864211492775648 -0.4177996357232676
Ni 4.047412453905657 2.7050967805725623 9.094635933921722 -0.8976811283789443 -2.0556260309137953 0.6069436111142128
Ni 2.7651497197220034 3.266992917476854 6.819465204321929 1.0266576902513738 -1.7195152277205867 1.6164337884473647
Ni 7.314896393563153 5.288596087165424 4.152678344865821 -1.34217010046794 0.33831860947780446 0.7532280681374706
Ni 0.33983830413610533 3.7284889152940597 6.720127711350307 -1.7606104550990003 0.47282869957395346 -1.0418009736507154
Ni 1.6550041567074842 0.20842409237134654 13.131094887371288 -0.5859245856603845 0.789037364526596 -1.447558076387152
Ni 0.567217705594116 2.3872757257250483 4.844749094142987 -0.3221152602450646 0.5800982087865945 -0.9371046244818894
Ni 4.780777242117857 9.187932927614506 2.264811088045195 -0.8473366144881213 -0.6002913959050178 -1.071376116204671
Ni 8.705202536626901 8.92790425697159 11.676403692485112 0.6900936015708309 -0.9583414223734785 0.0554574096373561
Ni 5.909081361246678 6.654656851988802 9.430887923225253 -0.5893094429722174 1.9820361733417866 -1.4205692065031341
Ni 2.17412577647926 4.48293986356552 12.448937227401418 -0.4436945012121584 0.4111055115325436 0.2438046001586188
Ni 2.4032200497417384 8.411710241144773 7.069803135324252 -1.611003875681045 0.06730119634981957 -0.8955995632595674
Ni 3.3537278166309843 6.855373749037961 5.603898105580551 1.077498427052325 -0.6863289923220761 0.6428554945194734
Ni 1.5489711593971855 1.1821497967493941 3.014821528181154 0.47705353628857844 1.2836967868223956 -2.1467238154625803
P 7.913526548321122 1.0823703838151943 4.114073810440981 0.21633776219691775 0.6644699874654556 -0.3133616824221507
P 0.7084264201772625 1.254913725178847 11.028890889958832 0.852376490904874 0.7778327540600282 -0.27092099675943665
P 7.3708636575868764 7.761985985891715 5.386347485847878 -0.800290568842912 -0.8674148732952351 -0.6234842890817134
P 7.887085467122031 7.530343956031566 9.423538340283685 1.3293868326603426 -0.5043997895120151 0.8154906736221182
P 4.127550979614183 8.411793622269789 11.509159684844613 -0.9009862814927773 -0.856287653033822 -0.9142405753995223
P 1.6789530687255814 5.814480842632833 10.699920852239913 -0.3144844831726842 -0.7476181781498609 -0.012607147241049256
P 6.762403794646625 8.990208486496428 0.2265242816981382 -0.9610845323362545 -0.34100232695755467 -0.24572469999946714
P 3.6405866803897244 7.666329306361018 3.5404070380554544 1.3089979845913455 0.803485678741442 -0.7755406155917417
