# total energy = -340895.4833673363 ev
CRYSTAL
PRIMVEC
9.01661550609169 0.00000000000000 0.00000000000000

0.00000000000000 9.01661550609169 0.00000000000000

0.00000000000000 0.00000000000000 13.19672820663344

PRIMCOORD
 96 1
Ni 6.450207233249397 1.9880915908763535 11.31681455981428 0.010730499043626681 0.0769970834813448 0.8788488261637897
Ni 4.654638417114948 0.398885152656876 6.203096064781264 -0.029717324558774627 -0.7775450476162803 -0.39901078515153865
Ni 2.9451151629588606 1.4720346177788386 4.729839695598458 -0.8553520285934302 1.4955081219038695 0.8752073727564604
Ni 3.1658869941482353 4.2941180618657775 4.54137710282856 0.3208621045642539 -2.4134192041764435 0.8852809549423787
Ni 5.14770302061749 4.6228638639962485 2.6621755710308914 -0.04982335128003033 -0.14209612997352303 0.06378212745296757
Ni 7.251117124089804 6.080498946777766 2.516840351990293 0.3789888335036569 -0.00563045881289998 0.5601454198137514
Ni 5.132735438841939 4.444434059323734 11.56573175637256 -0.44805534928401547 0.506630992835379 0.24570181718133172
Ni 5.81009966372536 7.803817622690836 12.480858722745262 -1.5242646252112715 -0.2568997427796802 -1.1489216159903182
Ni 1.8334566345807535 6.489889358185662 0.4118672756932845 -0.24690072258543927 0.48513759884829355 -0.6204534726751895
Ni 2.6507857822966288 1.4775798363282144 0.35706428651750277 0.18034231793891523 -0.2604350096264483 0.20863319446380843
Ni 0.6561923099634382 0.02706697815182286 4.716615927265914 0.021645860404549817 -0.08417791750050019 0.34790805293845245
Ni 8.682044991679044 2.4216194820512076 1.488617075395354 -0.1948813920953547 0.12647770670997574 0.01976561266270144
Ni 6.71691872055108 0.7757562385035067 4.860843004258189 0.28875211140358653 0.2290346409382959 -1.1171823759055084
Ni 1.006542824559209 7.562433808405733 2.726800359500714 -1.5791345377762738 -1.4341649429096976 0.43614394255841016
Ni 7.540370150210087 3.8683715098911042 3.80228061973652 0.15446724994436623 -0.12155070172200358 0.21170283452806765
Ni 7.558069766490453 4.0199137670607925 12.673728637184974 0.23234725025129663 -0.613162081220099 -0.46141711530290214
Ni 7.9567304054206955 8.68744594437998 6.615572863684204 0.5462779178030399 0.9824964223531274 1.5140280350849278
Ni 6.905203685995088 0.5876651302933397 0.316851082926672 -0.34523950496735384 1.493163790041409 0.5456536539554796
Ni 1.7387280718494662 6.549696568979173 9.156088143064897 0.6028900098701294 0.007795327674702704 -0.4280128288108435
Ni 0.12376296639119748 4.870514226072922 1.29046883422588 -0.6655699053978538 -0.25378536552041453 1.0407473355752206
Ni 6.45889925061785 2.0170078768728543 7.0394782227681745 0.46086407101290955 0.22246058726520396 -0.6134783269089371
Ni 3.561247551795435 4.408106115363677 0.5504905261352563 -0.45043747636294684 -1.4574344549605998 0.14616515783657408
Ni 6.08608023178925 5.585937585097668 4.7808052132057615 -0.7480920324624858 1.0670474069223301 -0.4950962527229022
Ni 5.1330510203854 2.834769822134047 9.379073553366258 0.204581392991938 0.6496174958336554 -0.14588413626104554
P 0.25030124704174106 5.590454909476916 12.419902795133556 -0.1280129124075795 0.18233826532302147 -1.0760933191746822
P 3.9464103172810994 6.065846946545675 12.565713189812449 0.6384751060635907 1.650801210183641 -0.4751989995783429
P 2.3274860159447317 8.462039572809502 1.4533693219754846 1.0152702743500386 1.0404742844194919 -1.763376962100544
P 6.3064643485109455 7.755082815765022 5.663059402688523 -1.1410933781951509 -0.4665109848860417 1.3479334853142786
P 4.7298369906138 0.9100650384155983 12.730936357721921 0.11980132313106465 0.5309651987053694 -1.3123895267713976
P 3.876071699551538 6.248460460822922 8.134265761832888 -1.751350627063629 -0.22433646413167815 1.7503121584967856
P 4.787011349673298 1.0962671656727667 3.768049038886593 0.04198997127854059 -0.598578269868653 0.035927824244860705
P 0.2497854966335715 5.607081548509515 3.547398932006839 -0.03807829492896023 -0.21102123508001078 0.24129366081130704
Ni 1.5253498653925928 1.1603843186883944 2.721442686554309 0.21505195350595868 0.3146883716533742 -1.075461084907322
Ni 2.0320385749570975 6.278774322226176 4.861978196153094 -1.477343792290017 1.3984950003119139 -0.6863467329338889
Ni 5.5244352505849985 5.299524792868529 9.170710388465748 1.5040894358149774 -0.10236744392533338 0.8264805969747185
Ni 8.650937668109373 2.2165004954174696 10.092158002323186 0.35126359967424664 0.9936179861875856 -0.07811011403986547
Ni 2.450950532361971 5.065155905463775 6.967595058798762 -0.9787580383566176 0.04335317017465437 0.21595286805367325
Ni 0.5751031815405099 0.0025309639785524754 8.876871511688208 -0.13314354876592555 -0.43036590242405237 0.6719336428323525
Ni 1.3369567005622565 0.8881925324691339 11.333350131030054 0.19626618825802328 1.9111773415476956 0.5984563995788079
Ni 3.9345083847848787 6.76739373427369 1.5819047829653563 0.910024994656278 1.0944851914183087 0.5213667563836569
Ni 5.582204706269308 7.526926376458674 8.08541103392056 0.5533373957529826 1.5842206940499297 -0.05736953905840443
Ni 5.137649494304394 2.914584902782948 5.033865544598899 0.1153376309327562 0.07057163957097523 -0.5125131626477689
Ni 0.8745377699143784 7.395761670381001 6.838676391648974 0.06127915852545575 -0.6599294192826247 0.17259198456953503
Ni 5.000876453368654 4.871190472237481 6.927556777549164 0.21248316433751796 -1.9812000505937364 -0.43282207727402877
Ni 8.063712548653774 7.076970211792824 9.136372411552596 0.3041033970486763 0.1795812714031746 -0.3954816889523576
Ni 4.661175463372342 0.3015643129614498 10.449512623860672 0.11269505110358656 -0.5002112053519644 0.3407120494106455
Ni 8.118623737215884 7.265985523094553 4.618525068604445 0.3998805893510017 -0.8823961771954159 -0.17594007510616153
Ni 7.228422302807237 6.108757019840763 6.927569400810903 0.5350203426113496 0.35271704429132156 -0.047259704317912155
Ni 2.220152224706083 5.282618638754578 2.432684672626482 0.03928362809097106 -0.6553338294921423 1.3282797156390929
Ni 2.414090608085795 5.1362879853597505 11.326131428638783 -1.0045045511931023 0.4838021678663216 1.3583631652880348
Ni 0.8610750612703574 3.3588064999733462 3.858881522048473 1.3057187996194415 0.21165038402357744 -0.7142450020060538
Ni 3.757954036142071 2.806042885063622 2.5927873045779224 -0.0949824643151719 -1.1150727857616731 0.04964260272779192
Ni 0.9229948650819476 3.40201412158084 8.12225653161189 0.640543044336213 -0.4595651496958279 0.08056937421363543
Ni 3.7989075038677047 2.6337353623342397 7.148641485297341 -0.3762166700751585 0.49891948312373435 -0.24032924001550868
Ni 3.9748667558857007 6.772984035900704 6.106905007011426 0.9257408627296378 2.1828717261380466 -1.680840951078841
Ni 0.8164626509636885 7.431124836479621 11.230613912048845 -1.0289991939003569 -0.8410734071872289 0.7288704652287125
P 0.19232080255408937 5.511857071924219 7.996649667345332 -0.14038223260620983 0.5121097565617632 -0.8062724974579598
P 8.577001420784365 1.636849333004919 7.84453124844344 -1.0480163584328082 -0.33200577988589913 0.3839991422340548
P 1.725960544262611 3.181846403631804 10.439245403759575 0.3459118484440301 -1.2328442229469025 -0.034080229513160656
P 4.016000555921884 6.017788385784418 3.834190422088131 -0.13638005342535223 1.803848439852029 -0.6048209083442552
P 6.814803098716971 3.954390022022884 10.397583230053485 1.4718066645218715 0.20103069952620217 -0.7589449160165898
P 6.385909747923222 7.916579416477004 10.205650141967075 -0.41734480757403614 -0.962937269274277 0.5419736340007312
P 2.5218842467163434 8.520214776192546 5.772922354582618 -0.01908478454559294 -0.7665870059428798 0.4093695026780433
P 6.928682952828541 3.965083728038428 1.6438236851153938 0.6658599258344468 0.26207665899492927 -0.4553580535930158
Ni 5.472490528531415 2.8861555140249293 0.3844603711360772 -0.5740463461655597 -0.5157401542254989 0.01103311788571003
Ni 1.515152073231058 1.071651805282855 6.862510011472657 0.3917484471621705 0.772536024437463 0.5345228341496407
Ni 6.899036320974318 0.7676917775757642 9.120825963060183 0.05910014859626596 -0.5109319342035781 -0.13964124067512726
Ni 2.922735923219754 1.458708060029282 9.204216131765714 -1.1547035127794176 1.1353860433977285 0.5753036156114286
Ni 6.3691839261198195 2.0290811250640965 2.663785938564092 0.6021536459247372 -0.2289600789466186 -0.6315351844106478
Ni 4.048325122587757 6.768259329364324 10.349467864614406 0.16558315735186965 0.8356740905485285 0.33775245256168934
Ni 8.047185092391976 7.061533766009846 0.3797122213993271 0.9113285439590498 0.4865028546269364 -0.3940642397795407
Ni 7.501733952675006 3.996723031924216 8.139253753542668 -0.024226476647532472 -0.3288685198084982 0.5648847342709498
Ni 2.9679091670122295 8.158332911998732 12.204861924773422 1.1378872125530275 0.36317912016491 1.1710824683580736
Ni 0.0833459872894466 4.802637144382352 10.13152454571599 -0.19369765619989868 -0.2669159893651016 0.5087115295134917
Ni 8.747541686870369 2.291554803067882 5.7412235410343495 -0.7279960330435592 0.4543445247268369 -0.003531667302342305
Ni 3.8182932272517007 2.505510072918512 11.448544607685525 -1.2194264068790999 -0.1300803364595695 0.2189669722896487
Ni 1.0098970055354168 3.495841022759383 12.654144548259373 0.7893996329620211 -0.9094778639035562 -0.4964931330704288
Ni 3.0599237284697574 8.426613290402189 7.979612772306234 0.6787087567726569 -0.6571783389000488 -0.039010319824926365
Ni 5.474483200562979 7.709675139968833 3.651521906456166 -0.1052941306538251 0.7431205473898234 -0.6857314679473933
Ni 2.990153157518425 8.349268762407807 3.6678059140987234 1.6107040850524388 -0.5423721549907304 -0.5219581101107527
Ni 3.1282065578590625 4.385943274397229 9.308193938705049 0.9889375499927806 -0.7701508120347381 -1.3838893345835974
Ni 7.373490630028224 6.098496111370536 11.324231627747153 -0.8117024102242795 0.14361282372836556 -0.07427865610891725
Ni 0.28472127515619144 0.25719354795091637 0.3973523280172112 1.4101886345997583 -1.0450850437186259 0.2108489711682046
Ni 4.634846946032217 0.3245557808948697 1.6420690517337542 -0.397248036824161 -0.3961015819245436 0.2838140506720209
Ni 5.887615507414764 5.608037309755424 0.4721776136332268 -0.02485331159825397 0.3404305136144847 -0.3114878624382055
Ni 7.984276165857025 9.003577501387563 11.26129565136562 0.13285558521186153 -0.776736692782372 0.03507807465005572
Ni 0.05302851923998154 4.882876005961043 5.7096302218877515 -0.12642859863959519 -0.08234472094650336 0.4816288143640866
Ni 7.959543589465256 8.635952053102768 2.491225950599941 0.1017362380992377 1.2646667667741383 0.7194625416512512
P 8.529862554806906 1.5339426999902435 3.5590123328061822 -1.0344872135981213 0.35513542392482705 0.5006012417015315
P 1.89771805344482 3.213197175820714 1.6482715815550801 -0.9266903711271008 -0.010530981438310895 -0.5251933292185987
P 4.920096594858316 1.0440158786912506 8.25938392553786 -0.9229522442409072 -0.8344448461271179 -0.30778444544468925
P 8.477908816137797 1.8414543725535928 12.38663418882196 -0.5173501790250961 -0.007267737306006839 0.2795676166908411
P 6.321738495214429 7.83494297949156 1.4630946434833818 -1.2964818544022059 -1.3796056196065787 0.23298205562181812
P 1.8977090368292924 3.1770315309401513 6.081158061372821 -0.19320554705482856 -0.7370342319864274 -1.2360645296564132
P 6.779196483999109 4.011528314620273 5.9856666929679125 1.4509439621402496 -0.9546488040132397 0.35339144465052685
P 2.375806058556284 8.511964572984937 10.15608310142808 0.7866907186712903 -0.41363727681546186 -1.0400017156584476
