# total energy = -340858.7362429836 ev
CRYSTAL
PRIMVEC
9.35065828391172 0.00000000000000 0.00000000000000
0.00000000000000 9.35065828391172 0.00000000000000
0.00000000000000 0.00000000000000 13.68563357752989
PRIMCOORD
 96 1
Ni 3.2763303422354206 4.73855820566493 3.9520958584593293 0.3385582362924363 2.1337759970526604 2.0947772471919603
Ni 0.6636349074564615 0.39032452152898434 1.8466296781109628 -1.2822109463054885 1.085112234843841 1.0265844138112772
Ni 0.013154505830605732 3.1938949403285255 4.642563414431221 -2.2095795744465367 0.23728299699001715 0.36439319507766926
Ni 4.065927965105651 3.0567020845234025 2.7867504549894093 -0.28223153667624945 -1.2315602140281565 -0.47426491779984775
Ni 3.9453699300800613 6.319698388292486 2.454860066127912 2.207883931911668 -1.522345810922004 -2.0923784079424803
Ni 4.184363400740036 3.6528345910762936 10.26206301685566 -0.1844825653595339 1.1802438231423673 2.971893149825043
Ni 1.0185204347446186 2.200733490381037 9.084208302964795 0.11966479755320036 1.1295252137415772 2.5162571599802925
Ni 3.689554625478333 5.819484932642604 11.406468556551724 0.3135092637436085 -0.6266560019414756 0.4659304297922233
Ni 5.065186044141535 7.737987509258235 10.934848478339582 -0.08823511828900933 -0.3550521201824014 -0.5358358965341095
Ni 1.3990735185475702 7.533497967027984 7.266044833341261 -0.047529413039531045 1.0005123993145737 -0.3193325552936049
Ni 2.0043509687330547 8.39550708631008 4.6798846961497995 -2.3516548784844535 -0.36877641174702935 -0.022763004728128537
Ni 8.462308187855323 8.565146725760497 7.423676357645486 1.0201592270112236 -0.8583725605873088 -0.44436350225472504
Ni 1.819469756561647 3.9748151524717144 11.48642042366433 -2.758643025414514 -0.8592562487438427 -2.668607877802288
Ni 1.51241284551144 1.470596702438886 4.224617983908047 3.821129552439038 0.7246474282863004 -1.4660684764865137
Ni 9.333480952086232 0.9272439855937388 12.792796193028142 -0.4175384116420809 -1.1758513505016266 1.4198225581450967
Ni 4.750265229619947 2.5826143676357556 0.3190079871819223 0.33612443003996306 1.1372907166196091 0.3133750521585893
Ni 1.6724680603980466 6.217355435267194 1.8020419999742976 1.02283523118149 1.2606296205902872 0.8750261099835897
Ni 4.15787298631147 7.561241369643429 4.4404676406773955 1.5409318014543076 0.7544002340687007 -3.1320553932716573
Ni 7.924804307658627 1.8557503100324673 0.8668892277502445 -0.003116691252110761 -1.503184921722837 0.8969933582833004
Ni 1.8394801649192645 8.507256801395073 0.39650156627713484 0.12391688796133499 0.16295214748692582 1.0713151810597485
Ni 5.078211510890208 8.137559831659035 6.258467473783987 1.0104713102994984 -0.5530854276431764 2.730385573230717
Ni 1.7476286502945557 4.289913629497413 5.715955381103022 -0.5876665080521556 -1.7894091244982473 -3.9256400108493037
Ni 6.982145762168845 5.813631420665096 1.8501604866136898 -0.8617548467959804 1.7390191020814696 -0.6775515032397621
Ni 4.886177045263858 2.5988097074840706 8.612793004165283 3.2585446699458593 -2.492779388573326 -0.400079078515053
P 4.486595372204948 0.19245150497810276 8.211298186456855 -0.2572219020057893 0.061572264285842344 -0.4608324464440257
P 3.241125114447369 4.1308495843705755 8.500940431841068 -0.9535301170277642 0.726608151557097 -0.7717250985003935
P 5.574123663809014 6.02302070774553 7.321937457134167 -0.7015242120052757 -0.595763169017361 -0.26292358037625685
P 3.475471308026159 6.0977885700013745 -0.09539260885135804 0.7653461915572431 3.121942216097055 0.09769523526064464
P 2.6295827233274904 7.625676754686579 10.709446189243998 0.7732939856494102 0.01945476629050198 0.031631510862351976
P 9.240086578873202 6.101968314177007 8.212160317134693 -2.1352430685164903 2.2372549288746177 1.5546661203212644
P 6.539448204559948 2.631798829299806 10.423347843283867 -1.099900706006925 0.7174545100822869 -1.117236111961579
P 1.3298786485259022 1.6489231032744576 11.447347763681554 1.4407449101200607 1.5906204269286865 -1.3213706472240856
Ni 8.48330976597271 1.7604764545391194 10.50049357789735 0.704553742860219 -0.6540040549371253 -0.3438649932173304
Ni 7.8900666127761285 5.623738255746172 3.922535622972911 0.5851013184281407 -0.24109208632346218 1.7329199311622674
Ni 7.756857137326306 4.295149998039593 0.3839997363826794 -0.18165563743370006 -0.9323784226508135 -2.0151671515678005
Ni 7.384485879370511 6.697717443747346 6.156578027677081 -1.3808325500351444 0.8559217850539711 0.39963067812372466
Ni 6.9395815664474085 0.18803612421807145 6.0953209313258725 3.1533752377953563 -0.39455789158650756 0.25744095999513084
Ni 2.966393428487015 0.16569085653012827 6.4361888870397745 0.3344123324448628 -0.6328521034498584 -0.164799999328942
Ni 6.494957773267637 7.257569396829417 8.894087917053774 0.45186495283809275 -0.3371004207999872 -0.030054139072903076
Ni 5.86619146990723 1.5611204236118275 2.386664781458314 -0.3222291601151096 0.48711709117216745 -1.5516710422486824
Ni 2.698347463076051 4.466238989497222 0.7427620465236721 0.10302564633462256 -3.170631967993275 0.3597932344118126
Ni 0.7622749998697824 2.3534203866761474 6.919524404799236 -0.08484409032958937 0.2691772745954526 -1.6649386780262874
Ni 3.843522561934655 4.23836345133127 6.369129707330668 0.6676591838267147 0.22869679798290293 -0.6014936437432351
Ni 5.729054718050772 3.8669927137933557 12.288918214464545 -0.5890515613251405 2.659805191908993 -1.0359031201090418
Ni 5.087524766368801 8.5648101020685 1.7417975798965135 -0.05471487504437674 -0.2049346625662987 0.8865688205158666
Ni 1.4978164682001125 5.196955518242257 7.477528667838566 2.6521024239480973 -0.18932755215666106 3.377697303749331
Ni 8.069262624816027 4.388759436389177 11.339025999860066 0.12474246918642388 0.34892595268000554 0.8740220941991076
Ni 9.32183003207988 0.6680605739404151 5.315020667815445 -2.9540430090174996 -1.8114432214801512 0.9680331957399458
Ni 9.12908491643709 6.349938416623576 0.7304743466999595 -1.3303779929290185 -0.9169160653491563 -0.762116628876352
Ni 1.092250373950139 6.002888740832468 10.411153650041264 0.9190660218126235 0.24833694081133362 -0.9183602539948507
Ni 8.664908897147143 4.806462684867275 6.619111136336921 -0.32385126909956485 -1.7206192594180432 -0.8448475295176804
Ni 9.256384775960738 4.294738569082707 9.34037612737731 -0.430351247136033 -0.7474875661092675 -0.48143726717857094
Ni 3.4185164494718374 0.7226534562558887 0.37193551728782054 1.3571915135774368 -1.7725367742229408 0.39044052698402437
Ni 1.386337922200339 6.911323877635857 12.716143238097112 1.2645438680430288 -2.4296708901486155 -2.316623855022249
Ni 7.359734687350598 8.287796855529054 1.1455407095907455 0.5765544572993941 0.46725017704491145 -0.441544287638375
Ni 6.828738865199186 3.0445088263466116 4.862149594181739 -0.3568081836415597 -0.7847158543331066 0.14337988178195307
P 8.26718800505233 9.108345156746813 9.404904083935758 -1.000726829318225 -0.15379284958516096 1.8911085958222784
P 9.208191484056458 7.530702120252784 5.395698145997465 0.5533625925639631 1.5842608032592458 -0.25444742458444564
P 5.906922936638904 3.973655670865946 1.8634225250125727 -2.5026871346053414 -0.6630674506909742 -1.1169023827712443
P 0.09713089619419969 4.903457061453053 2.531062319337991 -1.2290330767309285 -0.5146775172889394 -0.225801735823295
P 3.5988812937756145 2.2047262213944494 4.99354504195802 -0.3423896942233845 -0.04405456711705316 0.12083850614632738
P 8.071114055122012 2.5120075482393216 6.540487062676084 -0.8674580678283447 0.25830099400258094 -0.6532450652839136
P 1.5084388158142494 0.44218794674184664 8.02702102679942 -0.24711155304466478 -1.0349734092059208 -0.6679666877648044
P 2.241530411719488 1.908852697445042 1.4335559404636382 -1.1906292801417493 1.8438524910487921 1.9428289070147056
Ni 7.2374467805744676 9.250101133710121 11.917682126403431 -0.08451498912494478 -1.1883122019727987 0.053657894534772106
Ni 8.629030421975097 7.283956954018761 10.899717120750607 -0.9724932883938283 0.8327445756065592 0.0018414240841129574
Ni 5.658270236150228 4.99493454975332 3.8956150782712373 -0.7703896675184216 0.1514228066910876 -0.12152833312450038
Ni 5.8836772005748665 0.17341169493241085 4.210891217801045 -0.7418105703291482 -1.3097220072415638 -1.082611065688542
Ni 7.629744290964879 3.3338368896182935 2.680618615297526 2.626147651755548 -0.13736838548055053 0.8654852603726901
Ni 0.5266318700109923 3.224116267343395 0.8869959478864057 0.09903246601482944 -0.7174493678759644 0.6896948234705154
Ni 3.2343645886330905 6.443379543127161 5.962242365089605 -1.2235501992394862 -0.9292244504028642 2.0387601083963918
Ni 7.1251266753447 6.727471237856664 12.92996754231961 0.9568296137146425 -1.9972069675449542 -0.7250289799954353
Ni 5.1791144625664 1.23528739107466 6.445071077179448 -1.8914148142087877 2.398480323478424 -0.3426971981614743
Ni 1.6687277971536323 3.5647607423284433 3.128741424742447 -0.35063265095846713 -0.7120873322331027 -1.6149505190336189
Ni 1.1157766297575062 9.158791957255854 10.263663849524269 -0.4547337897454556 -0.21917240343223543 -0.25911577659439244
Ni 3.6029675313701377 0.4522810471068991 3.042918279401924 -0.54863356251941 2.0347910964463147 0.6457508137893976
Ni 5.877664727409471 3.746696497194875 6.94960547194244 2.985049998921975 0.8895003923403648 -0.1571890197509035
Ni 5.2995228870622135 7.836094614159228 13.25281116945868 -2.3061833764152153 -0.018564907486380927 0.3378483547096052
Ni 7.1105583500077065 2.181125160322194 12.477288157177181 0.24807803072299212 -0.7921314300708874 0.5164852599216395
Ni 0.8548063073391635 6.086951157250684 4.21635200213789 2.035734177085875 -0.5349280400078593 0.7308520144351155
Ni 9.01104220844337 7.642835212320331 2.765305655677559 0.1717059824201559 0.6047178071074876 0.7074966275386266
Ni 3.048005972480139 2.251844187615961 7.459422988538167 -1.098023286478554 -0.0013685982127524816 -1.0473021059746026
Ni 7.213593251733214 1.4587961719027585 8.188853801792934 0.4108242328466989 0.5666600810038176 -0.10528487468244448
Ni 6.6560228592302355 4.668886452079598 9.333136847867745 -0.32399216555280325 -0.7211144754323775 -1.441517526620027
Ni 3.097153031511745 1.2584209192413636 9.691276404178545 0.3210055721206536 -0.768156921533161 0.8254488132760945
Ni 3.521009013026905 6.284474459188212 8.964473125852978 0.1389742965150897 0.24418872297091493 -0.4496404343829482
Ni 6.002421207926916 0.1815121700540015 9.65859491901466 0.004726201831075732 0.46671281648420265 1.5017767285214005
Ni 3.9204878288465936 0.4082628240491962 11.911318068493058 -1.0398929579947251 -0.6031494341791032 -2.088104206047159
P 2.7650644086982945 7.930526910422582 2.761938483691775 -1.7240048880608243 0.5245911768582255 -1.290831340984648
P 5.534944406323772 0.6110178191998497 13.211850611603285 1.2996409688564778 0.5935414787756939 0.8204349050012709
P 8.920574591219095 7.991016317742875 13.072777338452033 -0.7429364564034753 1.967012960460077 -0.5283724982775287
P 6.205265034329625 5.773872422376969 11.006943922507293 -0.2158397395145767 1.6911438756667456 1.3131456882111319
P 0.39103797674285634 4.531787102855586 12.887733424829493 -1.3661551505286278 1.1937259167892023 0.5913470422275364
P 3.5383918864553214 3.715138026070128 12.300988979020083 3.3969250416306913 -0.8173243843967473 3.4010431775641234
P 7.719519959488939 1.041569806988323 3.2308637022363182 1.5483736024443335 -0.2586367800754449 0.21860778917801704
P 6.161064473438756 7.222251961144034 3.296745634089246 -0.3176585100252916 0.577665688085702 0.4032626184493571
