# total energy = -381174.2741984131 ev
CRYSTAL
PRIMVEC
9.19032992978928 0.00000000000000 0.00000000000000

0.00000000000000 9.19032992978928 0.00000000000000

0.00000000000000 0.00000000000000 13.45097682503610

PRIMCOORD
 96 1
Ni 2.4432768326368275 5.220098316215673 5.883605227420041 -0.015566744090005448 -0.11868957812412465 0.7748633870190591
Ni 4.317130001544657 5.353514338526457 7.601415781268645 1.9200227077534673 0.1742133222230419 -1.2551292595973482
Ni 7.7096760319827435 2.792022289592625 0.5198978937606444 -0.8058271823904251 -1.8010654777902528 -1.3597068238001229
Ni 4.537973634259966 3.595744229328451 11.036593915054203 0.8696051960783345 -0.17567499437023293 1.2263737847312104
Ni 2.485175547640951 1.2840361626488586 7.11438342703997 -0.6128913440572155 -1.059820807266904 -0.3073131622352256
Ni 1.5662895812070174 5.382463878395505 0.09025823208060953 1.4507187335033207 -0.6603096854401789 2.3916563585780555
Ni 6.771591465934067 0.5473631953157714 3.004302372704766 -1.4143180833870996 -0.34027290499069784 1.009478607368926
Ni 1.1712340507908603 6.65302701709261 7.904103898842305 0.23029653836985503 0.5231217914015507 0.5247858093675348
Ni 3.1388285868937027 8.677840548504879 5.506870620092439 0.22588375401414001 0.33272208922663343 -0.6160327178996745
Ni 0.8050968131213526 2.486544906828408 13.093114085370669 0.7777612773921444 -0.40176752196106935 0.9483961382353087
Ni 2.544820790101307 2.5982166080819957 1.921283543609471 -1.172423041546368 0.7904792391794451 0.9080663282680104
Ni 2.5769777551812436 4.8905055072240335 8.729118914426573 -2.7216823890297643 -0.3658672085200344 0.9259180117374506
Ni 5.334628210135698 4.100026833187032 0.28187569599034384 1.7896976022729436 0.3409452484673741 0.9856069429576509
Ni 0.6720658656424776 9.030335660148477 13.354439284186034 0.25406947241973665 0.2530076068141256 -0.013250951472635242
Ni 0.172131206962324 6.1466490179673166 5.883645664872557 0.19127259169817382 -0.47914204338649097 -0.6443822155766451
Ni 4.679550669714787 7.141134639944993 9.041410926972663 1.2239973140792342 -0.42075434747621726 0.940584869721006
Ni 7.076508238561137 7.416155268700948 2.319244137375662 -1.571990727642641 -0.39027057706506335 -0.10313980331498367
Ni 2.2848539220772563 3.6361081592030096 11.109700234037161 -0.2571972194154409 -2.2163870842866733 0.5841335551982327
Ni 6.96745578139094 5.063109097154379 6.396841050878758 -0.36747363377520587 0.7472543670525389 0.9538080532794992
Ni 0.5274201789615383 9.22222056266462 5.31886587495176 -0.6674624944348763 -0.9414019663056626 1.07874001276891
Ni 3.626063128384956 7.74247632017088 3.235645957578928 0.5270956884476341 0.21292076609556881 0.22883897998772199
Ni 0.47999256135893226 7.599989442034461 10.18086941138345 -0.8723171956928589 0.926338644214637 0.23431697238315777
Ni 2.3890355042853604 7.731392782049588 11.982641902149398 -0.7783575162152466 0.1967636967197321 0.6602482360746241
Ni 8.074587279614622 5.60409787950089 10.72492133075801 0.6084320227342812 0.6359302281545499 0.004870954939056127
P 5.831788308153481 0.23659402047009423 10.29747631990995 2.1605314107696336 -0.726682199328142 -0.5711479415718421
Ni 7.972547044323815 0.910861889208643 12.235735322278826 0.8526659971208347 1.2337065709471977 -0.6813811613984975
P 3.9854509876164226 0.8037127494057086 13.010188817690539 -0.8489872627176668 -1.569277442476536 0.5436613061157992
Ni 7.9279463722652475 3.5107244854146216 8.71116192841066 0.32464522575576993 -0.13397710041081443 -1.1228190053659954
P 5.551014532744185 8.236520896278947 4.3985232411942565 0.4749447174756918 0.7749081242140655 -0.14530666649102073
P 7.501827526053097 2.8755164387070065 6.4753540410696395 0.2747120883707527 -0.38302109459150163 0.372382641041049
P 3.0431388697138524 3.2561063895187567 6.884169333737206 0.38292622088485023 1.662977954755491 -0.39805716298901767
Ni 9.195292895421346 6.987453939725875 1.1405447814306342 -0.729351261519873 -0.4148271833585049 -0.19222132876468828
Ni 8.528948010276801 1.975075464818209 3.617599753380065 1.8670631248373009 -1.4705262551475513 -0.8691693940924966
Ni 6.015457055544885 4.684761586891215 9.39955625357229 -0.37280198796665476 1.2793212834625194 -1.108680251971768
Ni 4.742044914511462 7.821494778518205 12.288906896204654 -0.17351706748696566 1.0205713748479777 0.43618148066456486
Ni 5.210650656855234 8.651170210504885 1.1351721144441438 -0.008257869133418036 -1.7844931752538684 -0.000809126164856671
Ni 0.7038910598051844 2.423012154728494 5.470754460798031 0.28716651208402155 0.7557804022456791 -0.4844994510436624
Ni 7.272712596232346 0.8484227863926709 5.422371048863241 0.9387053933101059 -1.2389050844290017 0.6123413850910164
Ni 2.9532942024885154 2.695257303789068 4.55733857884983 0.8590261350109075 2.191415244832684 1.6435825809480147
Ni 9.04254960887418 8.481002058055587 3.0272230560169584 0.9372781739452761 1.2305392289628097 0.34716500412484086
Ni 3.6623006000369096 5.463053883192865 12.473521328565115 0.5895374998226234 0.2752003408610809 -0.40727353938096317
Ni 1.7428817744082101 6.319565079121646 2.5566946966126753 -0.6659614844093176 0.7127601899304112 0.19863623115209664
Ni 1.5106053710271565 0.7706110183897286 10.860426315104423 -0.499568686671959 -0.09313512669378798 0.357798572579287
Ni 9.17367723898579 1.5124066757301196 7.458607241578125 -1.4546784894820173 0.5859603239943263 -0.5586276976176443
Ni 7.17768458282093 8.002103145980596 11.950385681504196 0.6971952456126186 0.5004801427426349 -0.5070858209846105
Ni 8.126880257981252 1.1790917830410304 9.777098690917192 1.2977928599041455 -1.751148538355152 -0.10259138701068139
Ni 6.892609732916804 3.0977202402796546 2.5760366653772464 -1.3997011048048735 0.6421096174923845 -0.39054491377237255
Ni 8.548302845503535 6.151299325006598 3.532226181756725 0.6888178201822008 -0.6990580098529702 0.05656092711418001
Ni 3.1800380271390396 7.020189895603192 0.8506238704557303 -0.4440683396118094 1.7092364715023984 -0.8969496495295585
Ni 5.918756402052148 5.481149643193549 3.746971111406287 1.3071606742722905 -0.41703833207721075 0.922392000862063
Ni 6.100807651342932 2.6452527176216103 4.666587709084535 0.8176462865125401 -0.8479991877727847 -0.2984991634880214
Ni 4.256161351547431 0.42741192565963576 8.509087706893622 0.9348389683761643 -0.7876710803066886 -0.2956413823242521
Ni 5.8639912248840025 6.258826187377349 11.023708153196937 -1.3568966080448372 -0.10060109605352999 0.36426618258150173
Ni 7.19269239190225 7.8202357032921554 9.483113815964481 -0.7298760236750914 0.6120161405411138 0.6410076426774574
Ni 6.69891433536758 4.0245190809444615 11.812729240877356 0.1823351799992279 0.12164634675960341 0.4384440514464965
Ni 4.956859690669914 0.9785587798846411 6.234716275347996 -0.5444994857463784 0.22646790865238417 -1.013917616976886
P 7.687196484516174 6.328139657120954 8.104011959550727 0.15414714760078616 -0.3275030069195392 -1.1449065812936539
Ni 8.706045671634437 4.660388831420512 13.22925136442914 -0.8139045600819208 0.720180136543566 -1.1623042079448112
P 1.062154022630311 0.2750022480957213 8.702875926777029 0.37117910765125106 -1.2463589696038857 1.7119710968247421
Ni 1.9627236611407486 0.9601689293202077 3.8165400723271503 -1.0697570925440092 -1.3026265338473628 -1.8946402631246209
P 3.809437785212611 5.428103057757313 10.285262371184249 0.9628382818025676 1.3311336401481204 0.575826063773802
P 3.3698826763691736 4.901662567986262 1.619188202328368 -2.117920775187959 -1.968837158153009 -1.3544100941775576
P 0.42452616200284815 4.470323614267565 9.692289405563045 1.1819695475842225 -0.49712613866873734 -0.9997950615325748
Ni 6.333626284200898 2.4913514494796813 9.979455055568824 -1.3576748809717587 -1.4191036777012014 0.8652844572157935
Ni 2.7954043310757393 0.28650118913830946 1.495910033169821 -0.358738310784737 -0.3845928099539957 -0.6253563092934455
Ni 1.6091808518637942 2.5401337217415567 9.158864264902956 -3.3262811540608843 -1.168469970435891 0.4287671904783648
Ni 8.984668909796317 4.096856169296612 2.0957968841381622 0.8395443721372122 -0.008689557354197937 -0.32620562826435434
Ni 4.844425192016602 4.018756743961003 5.681181773358553 -2.0559335348518855 1.3001737014314965 -0.039934117190776386
Ni 0.8304336342213456 3.8714725135034276 7.406283016089097 -0.332341308848447 0.9834261332562484 -0.9513117692202068
Ni 6.659101825300052 0.7233267699369503 7.76867887036791 -0.09086509971268868 0.8208519379340314 1.2651118247313566
Ni 6.7821327745784465 6.198482479828088 13.291717119202453 -0.29034799513579673 -0.11790821987340985 0.4127880414412891
Ni 4.887628933897363 1.6359339028348414 1.4005695485344232 1.3678518215047604 1.4094784959066113 -0.39546137723738345
Ni 7.578254311307383 7.504198631223323 5.361101875071183 -1.2514153010808708 0.5641427138986026 -1.2957174654323556
Ni 4.625814809519763 6.564505757404143 5.4991360382658385 -0.6466062198111574 -0.11686897997561808 -0.8218724087787459
Ni 4.6323950858836485 3.364598236551808 2.9790684833020853 -0.4105902624590219 0.7557269232999242 -0.6424605730739
Ni 5.798785832702767 7.61984974541764 7.114073712915021 1.3390883762188228 0.6297073871732897 0.1631778903444867
Ni 5.776159239954323 1.8216704745026064 12.4009673484222 0.6763466842983836 0.14113839404594403 0.4716611616284135
Ni 3.436687185990796 5.174054762328711 3.7484507545551495 0.8132576705265413 0.4605858776508584 0.8134569310215408
Ni 1.2171673207164164 4.459699592652131 3.7892071115257107 -0.06688647740990417 -1.0078518703987804 1.7429135520398695
Ni 1.3431207949720678 5.5485055726222 11.354991982930134 -0.8855406363616685 2.174130746720623 -1.4297642427388408
Ni 5.433203690972335 2.9975548323327486 7.783501953813874 1.7529673367314456 -0.09642922406402747 -1.7048787087543347
Ni 3.5530459556041345 2.925217743980597 13.335123967378804 -1.9372329009841667 -0.3261966294032898 -1.6557870934340064
Ni 5.0286453592150355 6.046171138796428 1.6915951371894093 1.7677468090334651 1.2856600811963537 -0.009467058950170791
Ni 4.080433049377251 1.142734837097553 10.775994752318091 -1.9141742193924902 -0.16459302552445848 1.1888305363701137
Ni 7.581921253024128 0.16981524377280016 0.9446960895349604 0.7235107435786958 -0.020944720572467154 -0.6305494234586109
Ni 3.6908365750506857 2.711882610971007 9.057484814347573 1.3712929859758256 0.3814738047090398 -0.16725874528207968
Ni 2.750518758783539 7.9766735025464195 9.671575320511984 -1.4812012183628942 1.0669273364046978 -0.573747069757586
Ni 8.093326362723507 4.043460351315924 4.56678164304521 0.3818615270657617 0.295755025083981 0.31099703884471597
P 0.5045224714746389 1.2725942016529967 1.7593747408364622 0.40182228645840473 0.09581498751879627 -0.25976832257672683
Ni 8.75858678891423 3.0528622389778057 11.179107445147961 0.46918467506346295 0.2166007860503173 -0.3745516236679097
P 3.193216960527044 7.671499400676069 7.346465914455551 0.5725682189581365 -0.9535949088274287 1.337738804169464
Ni 8.380211707660713 8.405503496143133 7.36564705244307 1.026092561776523 -0.9291997678125158 0.42274875219842684
P 1.6358052382132013 7.401211791930449 4.5549987208020015 -0.9781443160320187 -0.5603593355967704 -0.5172555624287607
P -0.016755809869602616 6.984926598943657 12.451072109187933 0.08251724196862563 0.17501370663715018 -0.8083363219655241
P 7.131438841671391 5.084559327647827 1.657805969480666 -0.23739638263942986 0.5411498525478552 0.27420249572418587
Ni 4.409033302716238 1.073265131741955 3.5809726117311427 -0.09100393928339812 -1.6108264695629162 0.8293334930424813
