# total energy = -381174.34347764397 ev
CRYSTAL
PRIMVEC
9.16449380649466 0.00000000000000 0.00000000000000

0.00000000000000 9.16449380649466 0.00000000000000

0.00000000000000 0.00000000000000 13.41316304703105

PRIMCOORD
 96 1
Ni 9.404878235455904 0.4558868161473845 0.399772622023556 -1.613770125572272 -0.020309915201945666 0.31128371684719935
Ni 1.636265339808073 5.649131303419849 7.577001664104305 -0.5977051232350803 -0.4828922544575426 -1.0603895352861803
Ni 1.1318882717370256 7.0835395078741 9.295509169201818 1.2200043908697569 0.37646452441990647 -1.0416359088277607
Ni 6.916461625615156 6.723860628766163 11.033171382308183 0.7894227728904727 -1.9210544914520915 -1.5250868640022508
Ni 6.259202475823758 4.5414831171731915 8.92230166468712 2.432207797637856 1.5613641011667303 0.2918631462287425
Ni 0.6113358725164505 2.710573098450208 12.629256832961088 -1.7136114606416422 -1.0333407586985042 1.153609765494607
Ni 7.571264691130025 3.998303583330416 4.403540992869249 0.3939577961086634 1.255827314105637 0.42811747270950784
Ni 2.9498763545275244 6.27182198346846 11.052700918104016 0.4403242991883449 -0.6549301662958205 -0.06624344450926656
Ni 5.125123890123708 8.09817724888758 6.809446917758981 0.4012898109937024 0.844644412367939 0.24725502060106452
Ni 1.3942219001535845 0.2430212911183156 8.101684500576491 -0.6341391976923982 0.2031264057129663 1.0457244770748377
Ni 8.684558205415271 5.221845955252385 0.21894433361347773 0.4476794540018355 -0.7507554382272618 -0.020973516927873557
Ni 1.225082006841584 8.047415119008129 6.283490216680685 -0.7310792999545732 0.3677986212147924 1.0569591694483926
Ni 8.646140648373446 3.205758179471411 1.8466701983138287 1.0193513863979478 -0.47492671975356265 -1.0293439788342853
Ni 8.705480744233611 7.225937408951358 1.4800886226496175 0.29288978772104396 0.3032485052475487 0.8121945193693496
Ni 5.630976441659388 3.4760099303317045 5.758350988428757 1.270089480451606 0.4530988252451939 0.3298005447044643
Ni 1.909797979366118 6.453086501772429 2.0352324028469018 0.4689663884050698 1.8503866926228842 -0.7079470848124839
Ni 1.8776031134577382 4.530586534319487 0.7179244314216602 0.7481285421273761 -0.7642987241293353 -1.0627449228922343
Ni 1.510491830065231 2.083767560789054 1.7371654975549193 0.7442477190157312 0.01925602001613458 0.26399778727704215
Ni 8.324970971243026 8.537119832874987 8.694706965593733 0.7318478026894815 -0.07862510600307104 1.9209724732612468
Ni 1.5108400808208584 4.333439948660202 11.54910854256734 1.268827583020047 1.548553065444991 -0.4190083113193881
Ni 2.920485823651301 8.54189453402451 10.689646756014564 -0.6289252575916265 0.8947009627046979 -0.37662907502222875
Ni 4.817847585244099 7.737306985615657 11.921954049586057 0.37114311220699303 -0.31619915187094577 -0.46741986985355627
Ni 4.776937285951471 7.2659495878742115 4.6421880712070145 0.887169430214343 1.0844054385848032 -1.2685846137713055
Ni 5.293154879713843 5.657122741812136 6.5205005164670045 1.3622105640585829 0.4838345637661538 -0.013055033411745258
P 7.818192805856864 5.354043774987192 6.252706682781953 -0.1517483083513064 -0.6171035823663502 -0.07823609809476849
Ni 6.922693481242169 1.163065878859231 13.23747677766403 0.3198082093784428 -1.1997829216165594 -0.7126522035976371
P 0.16252312895508317 5.9289691145534595 10.728062480157677 -0.45909720892047384 -1.202722720971174 0.3503143483870999
Ni 7.109887426885371 1.7155657026618194 4.775635927864652 0.4920078436055655 0.006885157155607498 -0.971219049667095
P 3.7029319555971165 4.46765395698022 12.652864568395186 -0.4968870260747377 0.4771152427644493 0.4289278844259451
P 7.76946519354976 3.144346908064621 13.11602066084161 -1.1976329651530921 0.5408585465596815 0.4848910300551261
P 8.418467134635366 1.0919310797755863 2.2812568985078236 0.38170468977292327 -1.511978351644751 1.3871186401541724
Ni 4.901785181843829 1.1691419380955692 11.16483491206791 -0.5421633814140341 -0.9625145799145618 0.10359308880231835
Ni 9.25393902637221 8.04496819922517 11.057301493875723 -2.0248812935317706 1.6016270624518354 -0.9981151027269907
Ni 1.5442813178546406 4.253653867647292 5.172303619466985 0.560714404943344 0.5738015771446053 -0.040601318461130076
Ni 1.0313079548157422 4.723700742808351 2.9613979558426444 -0.14898797199734987 -1.7474404933759453 0.8560590819627838
Ni 0.1313830962565111 2.47596206308029 4.007343439787013 -1.9771649612924145 0.5889554020669082 -0.39494432839164884
Ni 8.09967106133935 0.570106648847615 6.801479307049973 0.3194685666508369 2.5875227402944985 -0.487995894232695
Ni 1.0818867948238118 1.5125355121311486 6.047713457728774 -2.032333121824126 0.23723466025058496 1.968716830525061
Ni 3.0469649993989667 3.392942960621043 3.4087141376041714 0.2035786627590365 1.3503732051040227 -0.4710834347480725
Ni 8.559884434900725 5.56411229657896 8.370886916923117 -0.69509851098459 -0.11401248436342945 0.06895441568252642
Ni 3.162611743747912 0.6945650537632859 6.360937518934752 1.3061844264019504 -0.45124017476990025 0.26347122534961076
Ni 7.967629037995219 7.580584981089839 6.503277683702524 -0.35564398813012943 -2.8893501968248043 -0.17898091881501435
Ni 5.570197520308867 3.1323322569954817 13.01284679224026 -0.6749860565054311 0.04014803297379537 -0.47173932316451667
Ni 4.050926105404403 2.5236357586269427 1.515634027406874 0.5994727566584644 0.31265385772184867 -0.7592691321252278
Ni 7.227293753999589 2.748889846062772 7.600850425719271 1.3307893694348243 0.9966835124867867 1.4479031184313966
Ni 8.627500068453822 8.823867672159729 4.4698158610131795 -0.6645116393366685 0.8797867645970268 0.16120765399199333
Ni 3.2940764039971886 6.778059443734043 13.403022356598218 1.367723523457012 -1.9612719442112418 -0.18221330970938296
Ni 8.147005670623946 4.149361930830508 11.23721241647953 -0.028613035751002335 1.5266819764035127 0.5608481023077309
Ni 4.407342424801726 0.4802588703451486 0.07690659713348748 0.6572912103288293 -0.6387993221722289 0.7125796984884889
Ni 3.475194290404051 2.9832809335870305 5.6922245850806465 -0.5234969153527823 -0.8430708972332319 0.3385037289054171
Ni 9.471779038510608 3.5567857766500817 6.880080419044393 -2.1476285866650366 0.7183515679752596 0.6332933047523351
Ni 3.7428341605971407 3.0079884082494255 11.005057465386141 0.7424901128946761 1.8353994751854328 -0.4399664016282939
Ni 6.6540821747307515 2.708052862718695 10.50783145164709 -1.3919885666519638 -1.2143932153305665 -0.6111514785479734
Ni 5.112944278170325 4.988838706257066 10.915792548674672 0.07121672935414187 0.1355848112175665 0.7520947258639756
Ni 4.732599466063983 3.12895055886847 8.429609325916722 -1.185085981726017 -1.3261377295954258 -0.39751131778787674
Ni 1.9820141886909208 1.8196101981522366 10.491279459811873 -0.8278463669739936 -0.706839453570602 -0.469118854822534
P 8.22759822707094 5.276768765212225 2.6443779614003287 0.5302080088243708 1.0393237157548165 -0.5055968951439098
Ni 6.537665612921999 7.0557802568531836 8.442861183617696 -0.3903914189136438 -0.3193122435786307 0.8987378517782328
P 4.6993415189015835 8.152339405881184 9.273404410713058 0.525917608979133 0.6258067665673028 0.27106420720552027
Ni 2.182872394245706 8.49884890773027 0.6969294931041232 0.24624843371342112 1.4890973332815194 0.18774683793310248
P 5.792308186450482 7.745912445077077 0.4826333906289121 -0.5866840895342283 0.1829861833196655 0.9341437420813525
P 3.228522781497148 5.7660244188941965 3.6383204430359837 0.0498536902973335 -0.496569494834319 -0.5020387454790063
P 5.173796515469398 2.8089722659020366 3.586491566105084 0.42287345070174914 0.3815835908140267 -0.21143364002708104
Ni 8.802587718092191 1.3027327608528856 10.93942686114012 -1.1862951715427699 0.05734228536489479 -0.8929675249533588
Ni 6.222003796426629 0.6661835336290242 8.774569111903268 -0.4283375591401139 -0.365792389418041 0.9263260458091466
Ni 0.6903127287472061 6.716501540430146 4.59615390355988 -0.04406382308843379 -1.411713041664085 -1.1666588853690811
Ni 3.0084008104600364 7.699512614136534 7.785254699520028 0.1500629502290835 0.13592625371738526 0.6120577924123266
Ni 0.4546294476296988 3.464361859005331 9.52739651708299 -0.34149572165420544 0.1284443435180433 -0.8954995473465933
Ni 3.0014999468024763 6.323097324987784 5.727205457034044 -0.7650158048010179 0.02864723142304744 0.11403768117441006
Ni 4.094466614351375 7.461162465390409 2.2704996159563704 0.8049776899059362 -0.08882184403041476 -0.6502510156525962
Ni 1.0617524024524168 8.560874200206193 2.9117025730146397 0.9410931768159921 0.6942734439801334 -0.7557665182886081
Ni 6.655905908951009 8.53453544568849 2.7411678437814166 -0.16278374022986158 0.8975690282811122 0.15339407148484552
Ni 7.667381899683139 7.873647156443715 12.856489534558493 0.31968119688227525 0.05172031119242706 1.2426689223468081
Ni 6.34916114469841 1.764632401230981 2.0557150459739244 -0.16337637950853798 -0.02454195100542225 0.3213776107480917
Ni 4.412914436891762 5.964426540172453 8.762805567957923 -0.1953940700657151 0.614447889911058 0.3436197099757437
Ni 3.393227059921686 0.5480770392061225 2.5387223479404573 0.07997750626590742 -0.4577900600732761 -0.2291835078113343
Ni 2.7033331485305894 2.1092723463919634 12.959113533545693 1.3357618829487512 -0.5316151735845426 0.25029792119244637
Ni 6.3401432830263795 6.291974704826993 2.1411427892279957 -0.3706839131823874 2.313240026151681 -1.1036905120666605
Ni 4.569352342116939 5.045539427969318 1.3365277473384367 -2.1274863073892067 -0.43851835632785763 -0.2870803801281185
Ni 6.677772390606972 4.184892672398054 1.7139069293258054 -1.6785274724543158 -2.1826562676931314 -0.35847040183533097
Ni 5.720339418452046 1.4751810363433444 6.708150853889948 -2.2569747759010483 -2.240000095719923 -0.23261464498007034
Ni 7.412838090800346 6.519428270719415 4.151575156027454 0.1810768821120946 0.8327456040478238 2.1119280479396334
Ni 1.93580681211533 1.5089980176134616 4.141743487326484 3.3722139120372567 -1.2533361722526672 -1.6287578572303563
Ni 2.3028264505721454 2.790854062115852 7.825802084867319 -0.17417064191056456 -0.28679035969152544 0.16932411245154064
Ni 2.6871944753553385 4.595370339359719 9.400346393385965 0.07120335961770319 -0.9218620965005221 0.19590777647734
Ni 3.4332667323252477 0.8504558387223843 8.725235726571244 2.4669829963355125 0.10504833319160618 0.9494857717550617
Ni 5.349204922382688 4.947497675766686 3.9564135996752454 -1.0814281011240343 0.5435980569780315 -0.9431402891530078
Ni 1.0886226975971278 6.852511789489715 12.645192054379105 -0.19412368799372373 -1.0491556142435738 1.412556620611303
P 3.488757740886375 4.641385261570359 7.100539643444851 -0.06847567627389498 -0.8562624562228416 0.658480345540924
Ni 6.639547287930099 8.930835641098701 11.06426284319084 1.507431612814333 1.2335777586788175 -1.1189099001195764
P 9.060513225101996 1.6351197781119309 8.554042986699757 -1.0637571662068324 0.49307510852781533 0.2750658721657457
Ni 4.822915550187832 0.9058891109740258 4.4764555366040195 -0.7063486299771126 -0.9248412337335039 -0.08991224888111611
P 6.572050792793402 8.855402694531131 5.33992770554265 -0.829312667106875 -0.7671688465882788 -0.5162759721243109
P 1.345576768288603 0.28122073321319424 11.981535171627092 1.4674905536450211 0.9231486765224295 0.4850661221804098
P 2.4766677290851136 8.678427159217518 4.7318012386741115 0.7592488204102537 -0.929405970286051 -1.5423016852186406
Ni 6.397219748974967 5.476004855405273 13.089556352762012 -0.6143579013004129 1.0021694753020225 -0.5391315365662457
