# total energy = -340891.0833226203 ev
CRYSTAL
PRIMVEC
9.07501083040729 0.00000000000000 0.00000000000000
0.00000000000000 9.07501083040729 0.00000000000000
0.00000000000000 0.00000000000000 13.28219566645694
PRIMCOORD
 96 1
Ni 6.501364934613339 1.8003823099749803 11.251506892547065 0.15083685228063057 0.7914153778404692 1.0465963381568297
Ni 4.499971136269822 0.314674183154915 6.141461805323889 0.998625723814822 -0.897988375206718 -0.08789547556140347
Ni 2.7313785889925835 1.4179159814290652 4.771921076260392 0.4412236710741627 0.5375896460004225 0.23560020997095554
Ni 3.429564541933145 4.716827593428041 5.068366285298563 -0.4881630159381786 -0.4548780286328037 -0.8347798608690332
Ni 4.8012614935535884 4.583987585900337 2.701306725832004 0.6790170320416951 0.6176070043653299 -0.5104328830799726
Ni 7.450456785089491 6.2103111894686105 2.6196343514811993 -0.44217575057478686 -0.9068543102377802 0.7033941753344789
Ni 5.062113602883848 4.401008143915018 11.482975932033547 0.94233656230479 0.37814216923264554 0.043435445475815515
Ni 5.869199684963121 7.9020474706062025 12.521152625650545 0.3237491963040618 0.44503533151076907 -0.035079617311952485
Ni 1.812551899406231 6.764140946225049 0.26809669042121215 -0.27902845635791945 -1.0769795784343774 -0.6604968617503205
Ni 2.959361009344475 1.4357665275970521 0.5359111480077399 -1.3151460064706124 0.8816937518117525 0.01766476426961474
Ni 0.7941133541956239 9.085447023935053 4.858879644379805 -1.3038017851023869 0.6062270446631624 -0.49951263662304296
Ni 8.600160823460673 2.600163008391198 1.365237358960366 0.36355475833677386 0.30141042359754544 1.173774927588572
Ni 6.850181123255392 1.1035576086486525 4.8663973832946805 -1.9341612040373788 -1.1468426219741024 -0.5631027026698625
Ni 0.43637007746742473 7.516994763993244 2.7226239261109066 1.7517879717113638 0.2839567468974723 -0.9183872505780442
Ni 7.651922023996107 3.723549515553857 3.7652500975042984 1.0571985391527083 -0.02446713190342883 1.1274253937897551
Ni 7.590375301011212 3.847695662771988 12.795403080869171 0.7717338402511419 -0.08202204749976197 -1.0064619320297894
Ni 8.04415306412146 8.935927146627604 6.773640667490249 -0.7316346582374108 -0.5233490769210084 0.08150242755086609
Ni 7.0008353769080385 0.8931162765977785 0.688717994213027 -0.9564853430013462 -0.3124983059805908 -0.8613897501470777
Ni 1.844550387351489 6.317605041702526 9.129437231100637 0.5206851569356001 0.8082712730555434 1.0169767155181841
Ni 9.41087690984457 5.150404382583058 1.3507990168387254 -0.3027247715335948 -1.518762721556436 0.02607689959270993
Ni 6.208922712822091 1.934429293933972 7.0992275510859395 0.6760504932142035 0.435459772007192 0.12097734571703682
Ni 3.4964927462996447 4.271616640476705 0.332716212049971 -1.0285610779216736 0.07805689220442687 0.3142098893550589
Ni 5.9412552704099015 5.539676969200142 4.6748946912021045 0.4412506676573562 0.5330796739452109 0.54449074399563
Ni 5.3743665731675785 3.032805071437774 9.390180440301757 -0.17365899238146867 -0.3103835736304332 -0.2253710760437796
P 0.10043042159494787 5.5545236868060535 12.444780057584492 0.42256954630808513 0.2474864198855802 0.18902673308679058
P 4.142488312350479 6.101048059899437 12.608947909762175 0.6008755505432619 0.42647736600292363 0.34042408585658146
P 2.2202013828154734 8.442727536769143 1.3873250276529252 0.5134243616081287 1.3178796033516915 0.06644116234236945
P 6.237055246182925 7.847670006122939 5.675442760197374 0.842029086232279 0.046620785182332605 0.9542600532152533
P 4.794682110751459 1.1953694925233473 12.63617657205116 0.8923370904582115 -0.5830233528531894 0.6205545170294281
P 4.057981812138839 6.0090728258310335 8.35051635242094 0.7215916721791121 1.8322740421825734 -0.028342555698435058
P 4.6906915624347505 1.0959708996519888 3.764573101701486 -0.2701005577406703 -0.756613953890568 0.4283630130614106
P 0.28180903168192817 5.481978050778149 3.651368694958567 -1.0214563485560926 -0.457333946372464 -0.06998002873356335
Ni 1.34344644311971 1.1944529164364297 2.6196470564962655 0.5279228123346198 -0.28092078828462586 -0.816878040887948
Ni 1.5616278518491178 6.718702367341922 4.74501094684914 1.948344694626612 -0.1353647247869604 0.9871997413660675
Ni 6.13697602750445 5.522298323591756 9.253559783290786 -0.7440641422500153 -0.3209235539298086 0.1197758692097679
Ni 8.77393820453377 2.275404673278038 10.04386344796871 0.2182547767139725 -0.08253678235265141 0.6382604189496234
Ni 2.398715919506105 5.631516078107122 6.978439157849586 -0.724882684225558 -1.0488794777640515 -0.7797407697160184
Ni 0.7024140004543722 -0.26502661428057667 9.036037220342669 -0.15724815512361306 0.5891844873585789 1.0303947886963027
Ni 1.355616032550961 0.7882690472651797 11.635202885051172 0.4006154106344972 0.2646886426964796 -0.813870878630508
Ni 4.04564887251388 6.767888925669573 1.4752001718592556 0.2699851152087286 0.5662962699064957 -0.01476276013147135
Ni 5.6733246526856265 7.585810570598148 8.197851076383532 -0.24973227849696342 0.9808200630919689 -0.8955386281146448
Ni 5.147935979655914 3.051191043240693 4.931001477405144 -0.5660450731276381 -0.9639932213426171 -0.5184824928573264
Ni 0.9895482484511834 7.593315604497957 7.053695499591968 -0.4304939433614844 0.3636228925705479 -0.3613785766210615
Ni 5.0570860469219445 4.4712124271664395 7.016744778274127 0.030483256190521692 0.4268877140674648 0.26444258812394456
Ni 8.076305827249664 7.148413201912515 8.959584792181913 0.5031661742152302 -0.19683157384319006 -0.4722756552839608
Ni 4.768010654123235 0.105558710176305 10.650102299374229 -0.7294829020017308 1.2001032810704557 -0.9818567318865993
Ni 8.293915510301094 7.440319998068829 4.849222925428429 -1.7823542745339946 -1.2053246773703952 0.013158134648512823
Ni 7.242493838477599 6.032776753940227 6.90625016974461 -0.32170516929083953 0.14056323826876438 -0.9290953810241676
Ni 2.3090548131818998 5.286937919490717 2.7788082252367965 0.3336428012686899 -0.04728130158446696 -0.6238930944843577
Ni 2.4822967686200665 5.397035950049954 11.421506346640125 -0.6777965293710326 -0.6139876624451878 -0.3842184573337125
Ni 1.2668170522491033 3.2804984151637724 3.8466565740397893 -0.9553180621661226 0.583130567855015 -0.2003591273804743
Ni 3.4074396656964634 2.7224760034354936 2.8096623543250216 0.13038578351513028 0.24756303875978655 -0.630133933187747
Ni 0.910033004158401 3.3809406342727106 8.08015726181687 0.08893574390045973 0.24675648369809117 -0.7052152877036177
Ni 3.710109424615988 2.4082083807626966 6.906197534682193 -0.767449096832859 0.8049283247252395 0.45965976629216315
Ni 4.274983469469244 6.827566196437587 6.104403998879061 0.27792442466046324 0.845644571497679 -0.2524111108807072
Ni 0.40074158521754305 7.183125118075479 10.999902219182834 2.597415573928178 -1.0492893116079607 -0.23233156652201278
P 0.19733973901441076 5.74959104312577 7.7437720229160005 -0.02357187378266908 -1.5724694670512724 0.6519026923234064
P 8.435857753622642 1.5788340722530338 7.941650817569648 0.44766402738286776 0.573545238159425 0.6112216696642764
P 1.870332492925079 3.3812491846386035 10.193035752363992 -0.33561638005529293 1.1086637969115358 1.0850762393995828
P 3.934434615630971 6.504196337970946 3.752486094868165 -1.411217332974589 -2.647414274443808 0.39991889878810477
P 7.166172997972886 3.9597720456772447 10.464231558960275 -0.8807599271435734 -0.06682451382371717 0.27368056178244476
P 6.62446745559389 7.979920137951144 10.215655216687178 -1.053582539666676 -1.9668502096299674 2.4899961694012345
P 2.529078449095904 8.487603464985053 5.868911099620904 1.3990524154772808 -0.29218761944769683 0.630721944480733
P 6.920575981732807 4.217547726359336 1.8236188750299527 -0.44411950456471905 -0.04572732683378577 -1.426825471825491
Ni 5.463873404308838 3.0734248196065135 0.48967306067651917 -0.11323678253966951 -0.5159550984497824 -0.7872568755874054
Ni 1.5338583189187462 1.0058923428327515 7.100913688085437 -0.2052930743469819 0.6640095028892693 -0.35272295782859253
Ni 6.852676751214821 0.6121621109295892 9.182127651083325 0.1759724710059937 1.5846793788539033 -1.1869803705352526
Ni 2.228196467296407 1.5400021012043217 9.371758168455791 1.5364848214265474 -0.9820210253786055 -0.3822731606818836
Ni 5.999571289563681 2.3212607026561973 2.6576214390280106 0.7636055547170526 -0.5583034815090062 -0.1410337501472797
Ni 4.440439065673993 6.7794686394013235 10.49434244466713 -0.38080917454184743 0.3921464539315375 -0.08484229055737647
Ni 8.376107882768535 7.22719337033361 0.5573172833921058 -0.17079606901137684 0.4071719808060923 -1.239644790808504
Ni 7.538348264315193 3.991280483041378 8.240141534033475 1.0082488487268828 -1.115674423901414 -0.9010163633997644
Ni 3.518163871998248 8.352766955089805 12.704765503387023 -0.9108356634830312 -0.14461452552000256 -0.5360827224375928
Ni 0.22624274078890083 4.863788317700733 10.222176519420433 -0.7654559776622301 -0.7227126731574327 -0.07778152705585313
Ni 8.754762706794596 2.2136220000133426 5.6888973711524615 0.1485136034640926 0.7308203898662317 1.2164524118524405
Ni 3.4975998976125546 2.5555593304981343 11.53888072082798 -0.2654466039084267 0.2111898994473911 -0.4144366327883056
Ni 1.2446377259478525 3.4398919041797997 12.403843591540173 -1.01738474958988 -0.13455405596020698 0.18411284072494097
Ni 3.270661103498242 8.313417708427684 8.424418702557697 -0.0067152072366465 0.39730640086592217 0.08684106615496011
Ni 5.581984669370533 7.705446437467783 3.478314592243165 0.44208113397845156 1.4266148984765818 0.32778428560538386
Ni 2.8806534410094717 8.435131752761718 3.4486157120248864 1.0757616468668763 -0.07350655382958309 -0.214940624739075
Ni 3.293802380940219 4.140110659530951 8.689464374360872 -0.5468373898509356 -1.6388571504478873 1.040562216147608
Ni 7.23370922806041 6.1470129894067345 11.371923210342196 0.22527903055060555 -0.6044915500292944 -0.225185956616167
Ni 0.49825802085695425 0.38940326677205095 0.4750604783482565 -0.4960763572479843 -0.6055688422538733 0.7133736551446941
Ni 4.796478962882247 0.25595069601794124 1.5031058299510505 -0.15822851675901137 -0.22761693465516283 0.7731497467620619
Ni 6.31466473821578 5.735679051628299 0.24291262805680905 -1.2255358622109473 0.10705379365740918 1.3932293810376006
Ni 8.216124518053007 -0.3774079175474219 11.71026139155895 -2.110685176671468 2.0858110391376075 0.42191468633290563
Ni 0.21995375833114028 4.678948498509293 5.80791885979354 -0.5168202746635551 0.18339627427389057 -0.08207861176931026
Ni 7.621874663364585 8.900280504356198 2.753585140326119 0.3680475040008048 0.20044294534353221 0.808816346925736
P 8.592555964442486 1.444442237885103 3.6551938119945646 0.05438140296435796 1.723350285195961 -0.28725495803276985
P 1.7289619752815089 3.233598759548034 1.346363151578475 0.3779480509439685 -0.013381306402912437 0.7753884062845936
P 4.5472428673267835 1.181439351004354 8.53624098516163 0.0818739519576719 -0.6487219806025796 -0.36979765392269215
P 8.300213567769616 1.730069126594419 12.508467575608037 1.8048218595088918 0.25820277786181983 -0.8196327208149498
P 6.443729541266676 7.836453292821653 1.4083509200863817 -0.8649227030010007 -1.0327617462665828 -1.358875071927447
P 1.7935669768930493 3.081583254281155 5.963293934044348 0.9481164022113607 0.23209013993516803 0.5768475630597807
P 6.828137922115565 3.8679057117379805 5.942335196690527 1.4905939724317039 0.4200784044551153 0.23802604580362882
P 2.4535289845059234 8.193663866418149 10.585630700420882 -0.5287838747833344 0.07209784640751454 -0.4607661119824646
