# total energy = -340869.9954156515 ev
CRYSTAL
PRIMVEC
9.22276324923727 0.00000000000000 0.00000000000000
0.00000000000000 9.22276324923727 0.00000000000000
0.00000000000000 0.00000000000000 13.49844626645060
PRIMCOORD
 96 1
Ni 4.78946403239291 4.676051711007501 4.96385080936711 0.22311981811575768 -1.3319916172730415 -0.33517440742186794
Ni 5.883671126302624 3.5084683115808053 2.65172892939196 -1.6978727097501467 -0.7394752373277523 -0.29034053893662903
Ni 6.711856833041422 5.2456495778663195 6.86777963771233 0.3491663508255858 -0.09022438080489623 -0.03623224285915695
Ni 2.451235276094618 4.21272774667158 0.4438519439942914 -0.931581380670815 0.5894310561517461 1.9225184775921278
Ni 8.828462585119873 6.07810542405388 0.7006339668028503 1.5821766670367075 1.464928963565432 -0.6028049063554908
Ni 5.796193215564996 3.797786399070461 10.850064651535877 0.23286018533197317 -0.898988020115826 -0.26493701126185987
Ni 2.711160416665895 5.0678900363210335 6.341840488180847 -1.1743889070234872 0.7120837326886769 0.3432926656536281
Ni 4.1925575631414596 1.9671139803181754 11.532168242139038 0.05902841481806608 0.7826427738541618 -1.2828457516760101
Ni 7.968624354432573 6.861680624283674 4.563136496568718 0.16442873203245228 -0.5005536762930477 -0.004132791221450947
Ni 7.432339108932142 2.5495222655232843 12.08209487696704 1.067003441058272 1.1733586659867599 0.28552434849490826
Ni 2.157969845874788 1.1628152307549657 12.713930717998842 0.04997556058717845 -1.0626441356483116 0.35387506915516476
Ni 2.4230966249970427 3.338068535219349 2.8569059019378598 0.01860527380601312 0.39973069403669864 -0.1891177501387001
Ni 7.216240539981867 5.628680164144065 12.513302412356031 -1.3968548936053298 0.057388308111481816 -0.45646542772458165
Ni 7.079476181697388 1.6863730627795999 9.698444933257917 0.7820758456070983 0.2489141534710423 1.9329419869182969
Ni 0.6165269760836307 4.29214496220787 10.301906020449403 0.8956484142196317 0.3686481136992812 -1.3777469691312851
Ni 1.7733898353478148 2.9619089076658556 7.625002636112853 -0.6428760633447638 -0.4738437711020291 -1.9664725145755746
Ni 1.2072781730497577 7.995508709709346 5.1779498832148105 1.2376123337595073 -0.31347789628504075 0.5495007956157117
Ni 0.167493683617816 4.5735499187104 12.434768737552336 -0.260446579590674 1.5805409312054974 0.32155141732179454
Ni 8.038929479741263 3.7336881935220676 3.2677311302387992 1.6695813190046216 -0.3127369043539582 0.5311243499910531
Ni 2.566630491608503 0.6537869401721934 10.422690096611047 0.7994161366577587 -0.06171753161445499 -1.7441970467379833
Ni 8.538830923675016 7.674657994195234 2.305238009382154 -0.008481812218766038 0.8444538936236876 0.4537814531345153
Ni 3.4692346761271553 5.883200765369823 12.845418733348898 -0.7840921047061786 2.999005432660803 -0.41280783893563106
Ni 6.497741158219623 3.0483169778504458 5.953044752509101 0.5754110877235703 -0.568864287743988 -1.9295656142468962
Ni 5.900696347517348 0.9063578492176736 12.505676109310281 0.03643356023668564 -1.6008917269477072 0.8902167016810992
P 0.5604581083410546 5.990572176735923 5.781303986350991 -0.35449161969324106 0.0067275485318206716 1.8074186737017903
P 4.503364689325756 1.4771270070268008 9.273055117014241 -0.31307834685377695 -0.43762541219994305 0.4949149899500315
P 6.948254704209252 4.963276231208022 4.776965343449143 0.21446805597803065 -0.4795014836084387 -1.5552880701759795
P 1.1439823479161426 6.787538829405468 12.336594265837006 -0.7933460192042788 -1.573864033405954 -0.5179222494784822
P 3.9695234761232143 9.107146826422866 12.506188894954668 -0.6589138335339169 -0.4330488485728542 -0.7615363308928498
P 4.0670449761906555 4.8760288895551005 2.6745146886189906 -0.10221857705229491 -0.4038323749098981 0.3637797298633864
P 2.113719027137926 5.348898413997868 9.235096989737189 0.14548458682978171 -0.5719917776293761 -0.03831792174359207
P 0.6643783616472689 0.5776059923088428 0.6918714193076662 0.851318996174637 -0.6956559261499567 -0.00855585998981107
Ni 5.42449740549142 6.923288683717238 5.133404858325863 0.9414695863188044 0.3255947341532328 1.12648334159146
Ni 0.46424347384572995 0.08447128987305566 11.086692169512075 0.5845544447857353 1.4048967900731997 -0.1467811941540182
Ni 0.7976943287008781 5.873018834589186 3.6785831045535646 0.05012519879116529 -0.681555996413465 -1.2062597875901548
Ni 5.195588418194854 0.785470478106081 6.452203763990099 1.3032171162435104 0.7493986670890513 0.11017228468173283
Ni 5.529987373126315 4.951876895660135 0.5770895175591004 -1.1737864975527978 -0.525397731919921 0.12656718109998846
Ni 4.335224489994424 1.498219466895747 2.9790263565144626 0.6101865435315427 0.9092346375444986 1.1341017773686664
Ni 7.897811977137527 1.100469350250341 0.5609201687868064 0.5432861821645676 -0.8811113969457212 -1.2156594836374999
Ni 8.499182263868894 6.587598541911421 10.820651414538045 1.0343751135002897 -0.9302888871116366 -1.1638201303687052
Ni 7.104396088372462 5.612217531496024 2.471633261880428 -0.7870288187369994 2.5562588971842106 1.0645526655249342
Ni 2.412269100779228 7.893652510849423 0.09425664182799748 0.06140668524225554 2.0114619348020715 0.7523104414192077
Ni 0.31951618165182905 2.0996727584976087 9.188068274667781 -0.10372010129848588 -1.602778402447459 -0.3507306099889121
Ni 5.179310240814579 6.595502450135158 8.147972978109655 -0.2258243615311143 0.48315682097283885 -0.00038335148134772685
Ni 3.2758333278753837 6.297256727685669 4.284244743089488 -0.9692359577987953 1.111263696428228 -0.8364099402732885
Ni 2.273291279281567 6.2424366221058625 1.7689177173808484 -1.2709685406224498 -0.6650975937471256 0.5955384546010647
Ni 2.031608764692264 0.8680584796952543 4.070618797003605 -0.6294448775405225 0.10190515957693418 0.5102135679803148
Ni 6.149194484250574 7.725964226924114 3.048070730067979 -0.25030332050908505 0.20538074896478176 -0.36255022833165945
Ni 9.253567417974851 3.9096677417334194 5.29104033015797 0.7133451158996037 -0.4975863661346076 0.5838309363561494
Ni 2.3058753023322827 3.3413426162221804 11.830902771048105 -0.550755236848103 0.34710766852434416 -0.6217513655510066
Ni 5.886594742296701 2.7379525443087847 8.109272418379847 -2.099972418239654 0.8582923421686766 0.1889999936139132
Ni 4.021613643740096 5.252492868300406 10.208969156062265 0.42401990560136654 1.117272364516153 0.427123998447987
Ni 4.733850769161714 7.790228442213497 10.357128238512937 -0.026364091815825566 -1.3247256797392477 2.6929006889113816
Ni 4.499343564488476 6.74723535339878 1.662873461666318 0.3772371409198729 0.1205428292827795 0.18154687976997766
Ni 4.5865079012709025 9.100229753881672 1.3237035712341112 0.05617706141220002 -0.049633603866727424 -1.1016914793587607
Ni 7.67855000034508 0.6487448554278326 7.438264734409099 -0.36290221235443954 0.7290152183366928 -0.3848648326684598
P 6.2475921468398985 8.148191557601958 6.767459951232891 1.017898456001505 -0.894375203934163 1.2193834694563064
P 6.003889847068567 1.450196537933087 4.457321887662555 -1.0676531588271292 1.3110787783797742 -0.6038176638907213
P 3.076686198032727 8.151096728069259 2.773458338800901 -0.16407700511998838 0.40308855476533806 -0.6140288000957683
P 0.5006457209391846 4.414899942905585 1.8328591359516415 0.6328747291576778 -0.41267671267440537 0.3250445180767176
P 1.210893496297955 9.158499172968687 8.343133107339568 1.4488865653905885 0.8446402986028807 0.3246652803604279
P 7.1299984795382665 7.824555567544594 0.6629709679542207 -0.7837606895086889 0.0040062929459156816 0.6949838397835966
P 6.066337177970463 2.2152155382257055 0.6885669031856534 1.1657533428356763 1.413251075575166 1.6287105489321887
P 9.11877673105546 8.99265544172103 3.880857673461179 0.5054644833311036 1.4226569422700983 -0.31885175900244445
Ni 8.48919401111941 7.766904073604592 6.78908456454934 0.6852303599412586 -0.27755984223219293 -0.5365154390996373
Ni 0.2816069350207331 1.9408844412419695 2.5395303236684454 0.21479484318983005 -0.4291603121517254 -0.5516337827983144
Ni 0.6516509481714728 0.9121331436514006 6.503956378466969 -0.44678033922633376 0.46111423935050266 -0.44397706544958376
Ni 0.6973174610884326 2.788050595033803 0.14204807942961195 -1.3751822937279026 -1.2875097328105827 1.0861530174035292
Ni 8.666852102267427 8.513892571473166 9.265307073491766 -0.8708053870340229 0.04873834574596767 -0.3263220992375606
Ni 5.356986777489371 7.407511429890952 12.975354557620712 0.46736613379748543 0.2862838523687521 -0.4042126410674522
Ni 6.6224790330458125 0.7005297495765629 2.3726896116985183 -0.1371830089426218 0.9044768111445392 1.391894978496893
Ni 7.829794097149124 4.151949735942959 9.465650395745879 -2.180508625222509 0.044340988009220414 -0.5178096351600179
Ni 2.141064520584111 7.249322592255549 10.434150302397295 0.13692024219953838 0.12919356297924203 0.2293056352114954
Ni 7.6647250780260805 6.564855207395977 8.528480216324374 -0.5535610817280144 -1.0237495154656433 1.4200853248881802
Ni 1.3452414905747103 6.92629530458181 8.08573131483132 -0.46531516480572765 0.417120607378372 -1.1543517858669539
Ni 8.316248752062796 1.7701065315815947 4.560490485752626 0.36567591844483477 0.9151731145161206 0.1577466920265864
Ni 3.484175552816134 8.416352625878949 8.52893950994111 -0.6926101973450975 0.7949411316055407 -0.19114635053295467
Ni 0.1605544764444906 4.606512075060035 7.660138597793101 -0.07782754980244017 0.8836089665565945 0.06395876224014792
Ni 7.281104234891487 9.090066268627814 4.945142433834029 -1.745218803134278 -2.164859862941659 1.1258948160778415
Ni 8.560181620918835 8.077167056748982 12.480231427398415 -1.1971398275667575 0.3934633729707482 2.4213983657271783
Ni 2.4730471115078485 1.059686290547464 1.7521931582525812 -0.5522451911300683 -0.7628262533488669 -1.0277745774646365
Ni 6.074287200011141 8.96233099570044 8.965695459784474 -0.531246220280898 -0.7844800841732168 -1.2642949852570162
Ni 2.8791991655999576 3.268630349669154 9.507212778955065 1.0122016627270438 -0.8758699460411238 0.3523648031582254
Ni 4.0176570782465335 2.5849837907511364 0.4370058867311874 0.2715164642515905 -1.0081434334972703 0.35267770641295393
Ni 7.657485208766299 4.175015867176993 0.9408454506317258 0.4499088575529865 -3.7080796890991947 -1.9064506254959876
Ni 3.7632379274180465 2.9293709984320815 6.524474260176828 0.6823877482861409 -2.658852598187737 -1.024668684845803
Ni 2.9560524529143115 0.6091653663471231 6.624160342811493 -1.3630901384500589 0.033816434328812726 -0.31450916576303256
Ni 3.9943419324010168 8.79983512756272 4.627402556410779 0.5402363395946501 -0.17031321583768733 -0.1529847518615688
P 2.173805330612427 2.823078650382407 5.0002429114208375 -0.7973523121501944 0.260488488572203 1.1768437963218827
P 3.4900320075676774 7.583693878896845 6.50117571530541 0.014459627068755742 -0.7061087460521646 -0.7110599194098528
P 4.666792056565689 4.5289486349647845 7.304576167714604 1.1560883089420864 2.0689294328909207 1.1852693013814166
P 0.222408783660521 2.352348807045715 11.317475222329135 0.5489981449476803 -0.1503012914921347 1.0548413517744415
P 8.016195367989209 2.73469690883273 7.623719749725546 1.1534274742804718 1.516899443095452 -0.004738028905617646
P 6.289122250377225 5.819314683379359 10.406762384239526 0.3964098571935818 0.971242703816179 -0.41877434093171106
P 7.00153460830322 9.078915947691408 11.027852783647667 0.9916204961415827 -0.6275952259262934 -1.1787325287041635
P 4.301220161381916 4.1646402583652025 12.372217189424154 1.0591710894980468 -2.135624620225625 -1.1239878288631158
