# total energy = -340866.30463198246 ev
CRYSTAL
PRIMVEC
9.27541328727553 0.00000000000000 0.00000000000000
0.00000000000000 9.27541328727553 0.00000000000000
0.00000000000000 0.00000000000000 13.57550491906614
PRIMCOORD
 96 1
Ni 6.388561522035647 0.7807161789911788 1.0035014045936315 1.2438639710961739 0.8461428512903364 -0.5826862812287449
Ni 5.316333014717746 3.108979422186613 1.5097451171149716 -1.1020640322068311 0.9359661400020719 -0.6745906208392253
Ni 9.289975744378317 6.443295736187005 10.920461699634702 -1.7779353195306928 0.11062736994128045 -1.3124504619163204
Ni 3.047715317040074 7.174077727433083 1.1962630447382747 0.17535026404096252 -0.05526431978994353 -0.6714914130886113
Ni 0.21262679290654196 2.3912479375175493 6.532790489391682 -1.0416564776530512 -1.580854605791174 1.083526892634592
Ni 0.7860569619954751 2.4958282229872273 2.041484158298884 -1.0393296292920875 0.10139119605499312 0.6688637456577771
Ni 5.032969137014983 2.3357253132318294 7.087350757570682 -0.47956010476051597 0.24219303269712483 0.3490079708708505
Ni 2.8844494913338856 2.4468818667634147 9.288930405294288 -0.3868880337460756 0.4348848733403285 -0.9144951146124896
Ni 5.573688633399937 7.707506748928532 10.320682863855417 0.9076238414139529 0.1371567836903767 0.4302656294007622
Ni 0.3278459774834237 5.147186576950558 12.717600861551025 -0.5383296094902406 -0.8687274214590716 2.141098498856003
Ni 6.341590828854408 5.693647554196331 0.9547656002527596 -0.5194263448278345 -2.2241633857979823 2.5514105679529737
Ni 6.363462253522924 6.031764196877145 12.455566724377402 0.3422392846884493 0.8695833417014638 -2.7098023497627266
Ni 2.8758419077493302 5.23040558548572 5.072691094666769 0.4951792993550117 -2.304566409637083 -0.7002564010364456
Ni 1.8134453385775822 6.933473505252733 12.139501449384003 0.9226015457697078 1.3679847475381988 1.4995915479446238
Ni 1.7802671850409932 6.9658446978282695 3.9160711665668453 -0.8558294824504808 0.8932423758813003 -0.2644389885795188
Ni 3.0247030165300726 1.6618016057932123 3.286942140338629 0.322265926890316 1.7339458013236202 -1.0889658042619763
Ni 4.762637215062541 2.6740367395928972 10.965573599981514 -1.4658720442049915 -0.8227833506287894 1.4040943487765625
Ni 2.681457070269238 3.396693468748382 1.0869495158384255 0.6234662913595843 -1.3557187856866522 -1.2265704741230488
Ni 0.4860205288043078 2.8910628610491744 11.632443355570935 0.5866429518836477 -0.512981103423123 -0.46592837290969435
Ni 4.051667506722294 6.198730912508158 11.663096741594899 0.5559244397538683 1.7091853065494886 -1.764650686606645
Ni 8.706811956524692 1.2846911254082276 12.972290726437738 -0.4331105550487251 -1.5434183153215872 0.3696721840884214
Ni 7.129704149988565 9.088495215688972 3.7504373278335694 -0.7425230230151405 3.787055236463149 -1.3784558222728516
Ni 7.112795071459853 6.95528000202783 7.282267076235466 0.7375728780987169 -2.1079765194910536 -1.6494850624753787
Ni 7.876597534215649 4.094937309978706 7.528010804950518 -0.34474996692544496 1.7221354389522536 -0.7985365622662829
P 3.0781572236397623 4.008796546239735 3.237445752103432 -0.38090764779292463 -1.084360444279481 0.6677507150992564
P 7.190216946654124 2.0969483474805277 6.578364305323099 -0.7940828973703035 0.5032985860280365 -0.6099245481194077
P 4.982362481802338 8.36512427970589 6.013378472543842 0.7471432953959712 0.42535893612776415 0.7371262774796015
P 7.800483492303083 7.8559226378686935 9.646998462081113 -0.20365296764039767 0.6179263353779616 -0.11050884208554516
P 9.047386583742044 8.253197866866634 3.9893385841236997 -0.17190421447389104 -0.8100034252553017 -0.8309070081771884
P 1.6608833398720153 6.657242420412601 7.1212755818815765 1.9489625307162692 -0.8643688873800598 3.2066214987140067
P 1.070206467208597 1.2589518533746706 8.535245563415684 1.0962499966282153 1.0564390352788644 1.0857791790038784
P 5.749327860508923 5.298394365307693 7.559927502272128 -0.35583862063943883 -0.6562679112706375 0.8228959649472538
Ni 8.110375052173765 2.0744183684644883 8.486645180109655 -0.34463195329034196 -0.2547467009924193 1.6885519465698533
Ni 8.716449110990592 0.46737231027332876 1.9333282009845443 0.1276267327127544 -0.3468230474043898 0.11257369503437387
Ni 7.466188319920584 2.7754170074584033 2.1179413905052304 1.8667088268216754 -0.8578519121971484 1.1858352011872157
Ni 6.386140639152489 7.655156316006948 2.198172788401831 -0.48715642905053524 0.004689435055869343 -0.12743235731376118
Ni 2.4008758165701014 9.182677762798429 0.22126313027246808 -2.499229000853412 0.3020436863061701 -0.31507686534104445
Ni 5.642623505383143 1.0665797805905355 5.183371819493734 -0.45739462440707035 -0.6302480901681081 -0.09313821201758153
Ni 1.664166836196296 8.982338109950572 6.938657533771491 1.692174116703473 0.7085911461543861 0.2940840651394613
Ni 3.2931520295733914 9.020784698267363 4.38249923976161 1.0460499787350566 0.32008820251270687 -0.40485747374030273
Ni 8.632701403894739 6.199806860456228 2.7570628195304745 -1.9058556722244662 1.26748186762543 -0.5806962473819095
Ni 8.759264418993077 0.6865438348364034 10.367219467692088 0.46491921491888966 -0.511457724800061 0.487671935234373
Ni 7.589486389521332 3.498509681041123 13.512297871077765 0.9422987670883192 1.0448004225986718 -1.272344852144686
Ni 5.373274777245316 3.4598497582173873 4.561980343078272 -0.9712085081441338 -1.555865025725372 -0.9945361271264808
Ni 7.951913890580507 0.2270352199973267 5.890343824682104 0.12080688157744354 -0.0211951460203764 -0.7701808939417252
Ni 3.9322465598999337 8.562440147803137 12.348523816664514 1.3925796632687437 -0.9849757371315553 -0.24378583110554145
Ni 4.109648115544551 7.1785206504255425 3.3966999615377236 1.1355639637364896 -1.6400992503851044 -0.23203974631320684
Ni 5.796057392943179 3.4402879114718843 9.157085042295728 0.5992637259714517 0.2112148391480556 -3.202146236551472
Ni 7.620225109348074 8.10505096491349 11.873557725485284 -0.12864797488841714 0.5918610057494774 -0.18735834424543216
Ni 6.343714898510512 8.795206645706603 8.007267702343341 -0.2846846262024323 1.9958468539726337 0.8364310233192109
Ni 3.1583988244910426 7.283815142722818 5.749620036029303 0.9483894533670892 0.30865373542352004 2.083577264711083
Ni 1.3205034963349176 8.466569475464814 10.255262445988793 -0.7295723763917435 1.6096920988481571 -0.3427460491215387
Ni 3.184008240737764 4.803884978209651 8.164037028542392 0.5827256191071126 0.740196431764493 1.1328262530903521
Ni 4.48009884914752 9.209595012326854 1.7845542810892492 -1.8069453336097976 -0.552362690544539 0.8187564888575836
Ni 3.8738856591305133 1.6387614790431744 13.390634129308479 -0.06608455033389908 0.49598816840955223 -0.1084848696769809
Ni 0.8485546971169556 7.6434043672982925 1.8800307483603917 -2.0986310737204117 -0.5094514930033097 -1.8431390099215357
P 0.2911190508008749 8.2768965479642 12.999441716382469 0.10308812414144182 0.6456939924095331 -0.008500324161527297
P 8.112480571003177 5.468310662382551 5.726405531508372 0.4597348425044727 -0.042427315926275314 0.24507961021630048
P 2.128243592107995 9.049195289344404 2.32920377010866 2.8950860708673174 2.3092926114681585 2.1396723079324373
P 5.8979663593693745 1.255037628942901 9.327023600362617 -0.2848795158220577 0.23372150489100396 0.25910060708574084
P 2.534376840850818 5.316314463891055 13.45933897104072 -1.0008479282771217 0.4872273914977867 0.2940796942640871
P 1.4916719742114088 1.8781969991420011 13.384904706485012 0.5499435395800851 0.7479570495465182 0.08548532345801407
P 3.507627412359677 8.441451656125402 10.230758659012846 -0.5425485326675946 0.07637487651631363 -0.4888374162973839
P 8.364298767918147 4.357848901254806 10.927983132316507 1.0749615195630844 -0.08637441093118672 0.7582388910885006
Ni 0.7738301121235347 4.012849901871686 9.37780927105283 -0.4716449636784974 0.14326726746348875 -0.4324551808529133
Ni 8.120448151066897 7.132403295272084 0.49671693547425305 0.6759324795791005 -0.16118734227701917 -0.14173309020714947
Ni 7.468776160243958 4.331042956686525 3.881318047844203 -0.0953447327505971 0.6980169701829656 0.4871983380320642
Ni 4.436467304770637 4.5944554202832775 13.066776579563589 1.792677510836874 -2.76866955641258 0.039803248039866936
Ni 4.093054401069584 0.2280480951346472 8.189518444084948 -0.6958986382883822 1.37116648770029 0.2574676994680082
Ni 2.920271137673921 1.4412137256122914 5.894388832442044 1.0158354028248893 -0.10446263589146526 0.656244771342186
Ni 1.5455992274017156 5.16062665088808 2.043873504776666 0.45809396446694006 1.255983380067527 0.29544135049830406
Ni 1.5029323260127563 3.0767195345712213 4.926889944748684 1.7154037766553747 -0.2942360173362933 -2.8574939715461563
Ni 2.2472656961565014 6.493661230652668 9.78740966930417 0.6580206322956861 -1.2573915732689636 -1.2628644234580766
Ni 5.738494177721464 0.7436432793908457 12.11426490475377 1.4455027365200201 -1.150884910364276 -0.6855872290600451
Ni 1.2588034467611438 4.570228040625024 6.661120470732324 -2.1211791342242567 1.0839724648124427 1.2746953546547337
Ni 2.488194557803942 1.2762226730238537 11.258424370453982 -0.18297127092133003 -0.4896578553161503 0.5805661495619485
Ni 1.1150901923871133 0.5612784500650907 4.497713786631818 -1.2341521431250486 0.7842893083186493 -0.3626481873621045
Ni 7.010023491592533 7.062438852407536 4.3704170863378575 0.36845450963123644 -1.959539020680535 2.7894744089730734
Ni 4.017227896970727 5.183722430118191 1.7021106971097648 1.6111553136572445 0.583382535964821 1.3865571112237476
Ni 0.45176178961297686 4.997332998941856 4.198930461783618 0.6751395513641598 -0.8688076398777037 1.9992075429147507
Ni 8.872174025646947 -0.06394562714470137 7.909551222749278 -1.1245164476730762 -2.405866845750482 1.5892664840039532
Ni 6.979321873419173 5.272525237487299 9.705277739213093 -0.2681161803207898 2.4764315433429225 -0.4165395380639213
Ni 0.17486380255330905 7.512982780248258 6.0731919030431545 -2.8724868454105628 -0.4520341314261053 -1.6511017721431953
Ni 9.08483142741753 6.476622296337121 8.572469652253547 1.0751525525279677 -0.14946208342029096 -1.0331759509858658
Ni 4.171913965332396 7.227040337635466 8.371416720119427 0.02787744313655844 -1.3364586519054595 -0.9783260930255215
Ni 7.251490327214008 2.4750698479201643 10.771742504678144 -0.033256705170600795 -0.15175679299173866 1.555386800537373
Ni 2.2961935015536237 4.575385170445082 11.28048408601341 0.550265184585562 -0.8371745863534549 -0.21653907957444643
Ni 5.273035385221298 5.4895606343569225 5.430948369885841 0.12049320699176669 2.0020393559365908 0.6584430645450854
P 6.0767406761891145 7.988867137348685 0.13452131974871323 -0.7695229486427522 0.3148032999646837 -1.81212867758295
P 8.937723371759073 4.634617960068971 1.406408664574915 -1.916584628606196 -1.6819879201990904 -1.3359233482272799
P 8.75944065184664 2.420289256702078 4.174739256237412 0.2247730374484645 -0.00883688156533962 -0.591606209426194
P 5.3563842495432965 1.6809367835248263 3.038632832292233 0.4451505169323946 -1.5045990284615443 0.7949789268220115
P 5.747593358213328 2.671801364976649 12.99107993125157 -0.09795928755530871 0.12046492485699252 -0.4093833866351143
P 5.80739194805129 5.6620925979951915 3.2343644597900814 -0.8101440645982241 -0.42898187759233214 -1.0705489923176852
P 3.0349801745168046 3.3889299477782604 6.636833728428661 0.9120965324733259 -0.5105310992207336 -0.3039177634004314
P 4.454331750873926 4.688081442592007 10.131820607481192 -1.5432751048755033 0.8781091197842876 0.7270177282906899
