# total energy = -381167.7356732171 ev
CRYSTAL
PRIMVEC
9.30242884517961 0.00000000000000 0.00000000000000

0.00000000000000 9.30242884517961 0.00000000000000

0.00000000000000 0.00000000000000 13.61504491883506

PRIMCOORD
 96 1
Ni 2.9512699880408637 5.7829293452820965 2.0194512665584723 0.6244037155721891 -1.3455076494816054 -0.1722726535569033
Ni 4.36991830261826 2.6605969921942254 10.066583433979513 -0.441732235279465 0.6305509661205075 -0.6285419061102788
Ni 5.476274776584799 2.7663097942168577 7.406339003840608 0.4683251552766451 1.1640584716317566 1.4980555709160714
Ni 3.0125357847780214 7.789137674058149 2.7675163192452223 0.5700050862166506 0.8087237872119297 -0.2564819385159712
Ni 7.621182320263831 1.5581940505103002 13.211358827032166 -0.314820012135232 -0.6594445092264062 -0.15566692667942222
Ni 3.6953619733443097 0.21572518668296856 9.961025982519514 -0.07477667879125832 0.5248781119710251 1.1537262364678131
Ni 0.2978609826578748 2.278890427129575 6.801912755802878 -0.37649023545151933 0.43904209004181166 -0.6543349559139828
Ni 0.07721295060088502 6.886504393007455 8.038893936386964 -1.3984343222773077 -0.6519500006215739 0.005826119763473837
Ni 2.6610900209259394 1.6851629025700428 4.189621416401958 -0.19294766540775157 0.9813168002227293 -1.409793713154185
Ni 7.5982332281668725 3.752134696922638 6.8551886963575965 0.2567187371171256 -0.3731434304664735 -0.7292281056784473
Ni 0.49625574429964625 0.44063187069050047 4.377890484185789 -0.1985863517507677 0.4623913062907133 0.5318437446555808
Ni 3.2333940517281574 1.7726150366614515 8.19840826619718 0.9939352603176883 -0.23045286144206115 -0.49024098151312984
Ni 8.673714940613424 4.425630549301959 10.932567935891825 -0.04942020230434069 -0.29148802227751086 1.0264489166746775
Ni 8.369972032161911 6.5310399798704575 1.5173963880824 -1.9415801222092692 -0.26785778445308067 0.35962482715474836
Ni 1.8477693597467075 4.937375767963439 12.112243363721596 -0.7321468219871391 -0.5227250701837644 1.0832836662755343
Ni 3.1285556780221495 3.2901946825931865 0.16132458247420794 0.4554634688226285 0.318455037784658 -0.2219311971242952
Ni 3.6971759469798617 5.3886738036309865 10.714836215295069 0.8783842278225452 -0.9661344360553361 -0.4421883489802772
Ni 2.68028093174719 3.8664057335335165 8.801418684556289 -0.8132376159218833 0.48991239452911756 0.9179486203787288
Ni 3.6742640645985047 6.780419493828811 6.571981829946312 1.0882050148365516 0.8400920171105661 0.8320984573821283
Ni 2.523581516922195 8.809883894855531 7.982350982802472 0.6976657574911339 -0.8404023492621333 1.7001674193215945
Ni 8.219812224853804 4.234688893695082 1.6647933740071283 0.8139264144587919 -0.9916343800986536 -0.5083320346868858
Ni 2.1676705871979847 3.4040657147613533 2.4236818027193388 2.1129405483645485 0.4472277111763975 -1.2283301371266329
Ni 1.9763940441506973 2.461608735588617 11.15445226074966 1.8719695609999825 -0.27920843357920944 -0.9031825178131477
Ni 6.651022707826099 3.888433885169348 9.38355724319187 0.5799825091443367 -0.8992777834421029 -0.8104919348559462
P 4.832072272812418 5.485214410757956 13.128525348889742 0.054494274393138406 -0.46392239822325915 -0.6559532082436962
Ni 6.4280993016601045 0.6525393405527996 6.337844345741046 -0.08894397143057585 -0.4330326506229381 -0.33606272356409217
P 4.072380114243225 3.4338893018156087 4.916910424382852 -0.5909104689107502 1.7288874129641065 -1.3003901883176765
Ni 1.0732026173659872 1.7401030476550188 9.006883292162263 -0.91174094890612 -0.3896293439366386 0.27884796491599717
P 2.1179584071549584 0.37813257188116756 12.040478845727597 -0.03585403358413179 -0.007980447102315288 -0.3198534607940814
P 9.174036776585378 8.423060993895733 2.3453544211362014 -0.10291611733995179 0.17469386140388624 0.8806349715299349
P 8.360604486259342 2.257001811927247 10.232918304659405 0.6097157745427113 0.5436525643650508 1.6959379546212792
Ni 0.4082343015595411 2.8460595171788454 3.4445656994644454 -2.280203921632318 -1.1496638934729813 1.3627916333730337
Ni 1.5456171666371394 0.43329411477397 2.237428571278196 0.7092372643788172 0.7695072649134682 2.1594705736052875
Ni 6.153705556388933 5.378906253285706 11.048758993827718 0.22048906536112994 0.6919239699113503 1.2153064711734554
Ni 5.710482029006818 0.5600694763125869 8.602979271255796 -1.127295038859478 1.4036811724985438 0.6633261036689996
Ni 0.3070164331815175 2.601535871106431 12.548701234564549 -0.42239599684469836 1.1113002060931185 0.5451011238861193
Ni 7.874124664490987 7.802830849399341 12.643175772232768 -0.29540509794372993 -0.7529835562268322 -1.0413307188825163
Ni 3.2862411503105733 6.8965603186486435 12.717596133677793 0.47323236277027536 -0.7735492961933258 0.7170721870422037
Ni 4.749308562886744 5.158550317496184 8.230076524902358 0.7028637567523056 0.08708532095528228 0.6549530491139559
Ni 5.010130064392427 3.4389963352818556 2.9537025731982838 -0.7684389715499541 0.07057009690907845 -0.9248566603524718
Ni 7.3887239244750615 0.13061819491731708 4.120756465496173 -0.1032310774772093 -0.4854538445371317 -1.3686979715551395
Ni 3.7048969629670836 5.847144011980639 4.62959188439765 1.209241495926298 0.7695993104066424 -2.8219975784117595
Ni 5.202439177047643 7.669536345687418 10.918380801576028 -0.03498911448067523 -0.012864771777810102 0.9032917896975022
Ni 9.083179953516472 5.899572501262543 5.4939289261517255 -0.6085117269322811 -0.2715120933762163 1.1741675350413006
Ni 0.2972107428777462 5.356459492349362 3.3303625705845388 -0.4138403939652034 0.09611374970613769 -2.7202626258641023
Ni 6.198450239399216 1.6560556025411075 10.946741116564272 1.0858938502048718 -0.2869142868638994 0.18144249298162943
Ni 2.769667971049854 7.4647340710191425 10.611443439040164 0.13179191983403754 1.0944471390915216 -1.678434141409561
Ni 5.047860716011909 0.6288432634151498 4.037119257496764 -0.11840212879069287 -0.9873820325802027 -0.8658953513269153
Ni 1.449662612530887 7.570437570612875 6.394714744822827 -0.482877084948891 0.27178437320099647 -1.467504180491776
Ni 3.211998465257543 4.546720266296733 6.541103347454767 0.4196744841484772 -1.491564306764773 1.3831496282040951
Ni 5.408571699048657 7.758700126696476 0.3218910169930442 -0.6814729497813554 -0.49074851727716773 0.0002067166941673859
Ni 8.250240469786576 8.248500915582227 6.05181977361587 1.271806720253029 -0.42580965051193764 -1.0017352159780812
Ni 5.950307948484598 4.897924166997408 1.2368658304657223 -0.39015179209901196 0.24624277728646626 0.020563425973648457
Ni 0.9446244451064987 7.393440255927497 0.6294646656656876 0.34239200821622967 -0.9534630112352547 1.3843030250822481
Ni 4.093617559422534 1.2718280792444854 12.570145193665441 -0.5313097265289818 -0.5954566935205358 -0.8630118591315331
Ni 5.871516375699337 5.034558242684528 5.539308034813008 -0.9052689680285313 -0.6884475813269756 -0.4662253353248229
P 6.004987625560367 9.217600051125327 12.368015506820214 0.29461345528037003 0.4212246022444165 -0.16361729187475046
Ni 6.163761482030122 2.6263361465545425 4.773842788868309 -0.37515274758701844 -0.2814105834368509 1.076751007363339
P 8.08543863938945 1.896979208629119 5.1245127301501086 1.6463655430097905 0.23383231943725533 -0.08495156244173112
Ni 7.633498736127784 4.22349807172806 3.9681454681728447 0.3421420969889527 -1.7520479102409696 0.6417494059394883
P 0.22506668578461655 0.012398277238275673 7.548807562933974 0.08244345130789671 -0.2989316230397496 0.35460063446727963
P 6.906979039016942 6.322107426770463 9.264711272047839 -1.0284307229913967 0.1617262454996247 -1.0795864199296052
P 1.0204113333569729 4.417556041016527 6.661787478549488 -0.6990078733413252 0.2646570181275958 0.9773097359458652
Ni 5.575764253673154 2.0592135686497732 0.5120847573163403 0.14168346791613662 0.3794112657530563 1.3242214864093194
Ni 0.668031605643304 0.5587476011658589 0.2507674363502738 -0.7578845930728754 -0.19882263613128984 -1.5672521845163911
Ni 7.230526818597124 6.043183398624862 7.050455981403099 -0.26532370517731724 0.6547000525628853 1.3473657857362666
Ni 5.963731353387684 7.4492920390447 5.32846569305979 -0.20797679182673215 0.45685315008130356 0.23449052184654454
Ni 3.6858362861504363 1.4646302206314161 2.005251108842215 0.7985643301804247 -0.34700688128042173 -0.49997492097144214
Ni 8.695240761088643 6.8539272869987204 10.320136017542525 -3.0274112374970055 0.500808472616331 1.4059959366746495
Ni 0.9353778307796334 7.403682230146691 4.112001949658132 0.45359401971405755 0.6968034094908387 -0.9446338429793989
Ni 2.070283459041091 0.8828386425938163 6.242280493648604 -1.2923158959499745 -0.10384248580896309 0.572761051695233
Ni 4.196865217786597 1.683711723661601 5.964179730460676 0.07684101751945475 -1.8411813719745325 0.723622843676528
Ni 1.230478782782799 4.911663854483102 0.8028889174104726 -1.3673455712923033 -0.4470531332717462 -0.48225050710848555
Ni 5.189164611006963 3.472140889453506 12.100180904166622 -0.30962252709469257 0.7785894297203946 0.9431796270313756
Ni 5.646155733161473 7.25933644090125 2.9130481681754476 -0.5799046047185497 0.12540427114013886 -0.5807253008476322
Ni 7.634866193176123 4.017607412878454 12.977112504408769 -1.0520650745808848 0.6085004140783714 0.558183153881058
Ni 0.9779550478561548 7.749853516812322 12.078396476167976 0.44566499467496795 -0.8343098632111502 -1.0474126634105383
Ni 2.2140990098392166 6.114449306429806 8.255754949638655 1.276689245156311 0.013947977539659848 -0.6790777100763014
Ni 7.35412819139497 8.883940531330556 10.49560680364537 -1.3489431575257154 -0.2718555927585641 -0.9785870599963922
Ni 0.774284878785042 8.556253170889756 9.662938020596473 0.465947656183404 0.6837332065704419 -0.6198898868622357
Ni 9.098435936912908 0.32497849314504273 11.602687006580348 0.7485908264757752 2.4944071539847363 -0.4782629832156472
Ni 7.326360441127673 8.258110324636203 8.093476868202169 0.14475670752482164 0.21367487065277393 1.0632727703712463
Ni 9.224511755798225 4.0044444759845765 8.80318893677601 0.873924649389295 -0.13399998322894985 -1.8009322946464983
Ni 3.026228960119214 8.678356852634659 4.760976599456349 0.4885666791345005 -0.4187314035089176 1.316078802697527
Ni 7.741816218242491 1.7437309949261228 8.335321414751308 -0.06946118011561586 -0.6319946405455696 -0.8431667993811478
Ni 7.406556680676874 2.2548343459934848 2.5661773388565168 -0.7418717625843868 -1.1195462481519944 -0.3351386690879261
Ni 1.8537973336740805 4.693782364781052 4.64772696953872 -0.3240538720286742 -1.696001460869363 0.07131905925996104
Ni 7.5085671159972005 8.76068334840202 0.9485984427326927 -0.2792637122971771 1.7955993124693592 2.2332398941779537
P 4.416700217557703 8.705343198874333 6.767698422307697 0.8182070441120167 2.0732949089484682 -1.1297771818513833
Ni 2.8394082805151544 8.576681304754741 0.6353865919035975 1.6587220076926144 1.5729659470717168 -1.0824557710576002
P 8.9029639984316 5.933498459461815 12.683054354685323 0.7520754425902659 -1.2373446819204175 0.45045316009223063
Ni 1.185445724476607 5.8036458544429905 10.172943685053603 1.449843529987219 -1.324088560375881 -0.45683232414569713
P 5.5790759183616485 0.051264755426480645 2.0140326017240673 -0.12043715694285063 0.728843468645519 -0.24241337623804704
P 7.26945748354474 6.160738192637535 3.7871062481303017 -0.03270520354250497 1.8733106484089095 0.3114055871370443
P 0.38992619124092587 2.5598609896332354 1.1172793859812316 -0.0004874811593798057 0.6975487722972954 0.9130496404152145
Ni 4.906370772438851 7.7100019114035785 8.587376307261378 -0.2939974189629259 -1.6781996568012516 0.6915277629141962
