# total energy = -381171.65455154947 ev
CRYSTAL
PRIMVEC
9.19661171718734 0.00000000000000 0.00000000000000
0.00000000000000 9.19661171718734 0.00000000000000
0.00000000000000 0.00000000000000 13.46017085585902
PRIMCOORD
 96 1
Ni 3.6922923516412167 6.6783309269319755 0.5272803602322081 0.5103392949249017 0.817040277497425 0.6627334643903232
Ni 4.847377553227793 4.711920663171593 0.420202373790335 -0.023358729330598477 -0.49175279017196594 0.5215927563515339
Ni 5.089974966683731 8.167427859793666 2.0395122888590804 -0.6654853161038475 0.4047682564606061 -0.0397561968520154
Ni 2.0615584058285097 0.2971066491849147 7.566419185222971 0.2387410695927824 1.4798917555228512 0.9656495259991177
Ni 1.9356935815153073 6.598044508968052 9.412145075900286 -1.8961309887375344 -0.9106631424609091 0.33724903056270955
Ni 1.281097171682989 4.415329943889058 3.102097972475309 -0.8949387897471167 -0.08388815417422328 2.584776287897613
Ni 4.629427058459521 8.949903151846872 6.67989251155629 0.21110839547717836 0.02095114833037037 -0.48718933917099966
Ni 6.154289613252676 2.824886352841523 1.006770529061263 -1.304997605182701 -0.7342343006437871 -0.9477217378761034
Ni 2.2991252728209575 5.0122452067030805 6.668047276007891 -0.5440472287003082 -0.5328331051520437 0.4585580485875522
Ni 7.852811782067913 8.389277717817 2.4736162605181744 -0.07724416649514439 0.5109540456907652 -0.24035855059154734
Ni 1.1754832857840545 2.8207754675230956 1.54587405297439 -0.6944981583964297 0.8171770601856055 -2.668131966607134
Ni 4.371563269995552 1.1989346449831388 0.8394013972714072 -0.2007198531540027 -0.23908405475449795 0.9600676610359659
Ni 5.154847863856413 6.299356962274776 12.14504416202926 -0.17752001799877168 -0.4196909392087094 -0.47992854384352823
Ni 5.13376923041159 4.547494447045936 8.606083234459671 -1.0470563085123836 -0.03542131692208738 0.6308942083925393
Ni 8.306379462201102 8.178960410552744 9.981174373473735 -0.5289407120761729 0.2866101253599193 -0.5455438678504927
Ni 4.523059050421636 2.8200949182757493 4.743431012984857 -0.22462854145080025 -0.8169376904812898 0.696326212744104
Ni 8.011655655043041 7.107693125727129 5.0448582302292735 1.8946693165903434 -1.7712216549559432 -0.11659232927546372
Ni 7.089713750341164 0.6594080769432835 0.8798628090095603 -0.7687865846973598 -0.2890853263732892 -0.9367639533130189
Ni 8.756369660479999 5.809195965179565 9.593144505521108 -0.5346441902188535 1.0770199447540096 0.9681928612462617
Ni 7.8207431979395965 4.558282072277515 1.1295738014225534 -2.247677923980155 -0.5139753490155923 2.6692457684966033
Ni 1.6708127785145146 7.564001396072603 -0.10303607570932516 0.3031955405224262 0.6998421963171625 1.4002258669600915
Ni 1.4752376394056033 6.159936332683357 4.780958705670262 -0.7154048266421099 1.1618966880937474 0.14040537253466143
Ni 6.7999653099778925 2.0998438992974457 4.989483593362793 -1.0373077137660522 1.8981166517089954 0.7550507231685061
Ni 6.153342362273262 3.6827094825096696 3.1080205902495086 -1.3736727990619118 0.44823609783625384 0.3446124129063162
P 2.3858033357430624 3.6211841519050134 9.007882269076168 -2.1781758633242743 -1.1829257408499048 -2.9180833030934394
Ni -0.22650334341735046 6.431107617916376 2.0082171397537616 0.7088341154031277 0.2939465111203325 0.1611379770963225
P 2.7237696099419426 7.978934111501732 5.073918602752092 -0.7474389722595193 0.5558794454485458 0.12626224826505997
Ni 1.1610354091951287 4.440694198269872 10.764407466310471 -1.1563243362122924 -0.29247789699460597 -1.8988303899465682
P 8.656669195743815 7.546766946214139 13.682801285737332 0.3799378276804876 0.501940272227929 -0.715346976820981
P 6.095587642363361 7.116071238758646 6.076500075297596 -0.6156059147749011 -0.1402369652775972 0.7419725498283093
P 7.9994241618137165 3.0270278725261774 6.711873727875826 0.2708929717349786 0.23127150068861457 0.7528349464641099
Ni 1.2611221316122396 1.2825686295150884 3.0818948564405844 1.329347494781975 0.08969679043620035 2.9903184464097663
Ni 7.396687443951451 4.011598701206786 9.08243827844521 0.8410271273303257 -1.4912568028266835 -0.20871521265465345
Ni 7.0354169563366975 8.244872524819346 7.788862224684872 -1.0646272275166115 -1.63291635948342 1.3615377063612744
Ni 6.855862314374767 3.7962692407019403 12.445085449928069 -0.6177265606623297 0.7255874236020665 -0.9187171231136371
Ni 4.423183850067889 6.6968253125591755 4.618964993273294 1.4044293635184781 0.8504399360037933 0.6151014643346567
Ni 6.717223396756653 8.68236452813685 4.429526752985383 -2.7001794819609817 0.3957776229262216 0.4872957828418769
Ni 6.356449526160232 6.546175620386548 9.389559117838706 -0.05593563482535528 0.6756072350291977 0.9902462415018751
Ni 1.5643160179163205 5.29128879133783 1.1859563869040222 1.2749966879452364 0.1577037546037929 -1.573518477141077
Ni 0.5230903840553051 8.636721745507415 5.7962857620251835 1.158205098174773 -0.5536166175562982 -0.3075931553694896
Ni 7.411457201941149 6.12429026670075 11.590189601684655 0.7830574927940772 0.4951127077831344 0.4064862675929773
Ni 8.94811900922545 5.056793592569889 5.864259756579014 -0.2823528927454621 -1.5254481039964114 -0.6642262468857657
Ni 0.010761874719516971 2.8410447991602643 4.77849493346264 0.3317918641028802 1.4809888452417719 -0.8124104920348977
Ni 6.6615103245887894 6.347795514785197 2.7919082238407404 -1.6740810066471878 0.4609448036521739 -0.08699610367558566
Ni 1.3219301265237473 8.921687947916366 10.089528849584953 0.11835096383778325 0.023310649701482434 0.2663883989964057
Ni 0.5861211999544279 6.869031861972058 11.527222242404543 -0.4275978527606119 -0.16019052558138863 -0.7106359444985567
Ni 2.7339134723719773 0.9584524521608442 5.493229824892861 -0.3216686596259492 0.36562963858793157 -1.3970299857306132
Ni -0.028127836121725053 6.707153107218223 7.488431000460558 0.35076583410222173 0.3299967198756704 -0.10991491725528812
Ni 2.2246327200709253 7.281315953303407 7.2665002122564575 0.4689671597360181 -0.027984915248700188 -1.867355459266739
Ni 3.3295044231371103 4.801449675643391 4.227476279754089 0.1618236903094374 -0.4915329608516761 -0.24918437641329347
Ni 5.787078114640821 2.5799254102427756 7.318752599535451 1.3195053118805726 -0.2407172194825467 -0.34461498400947743
Ni 7.474637922606917 1.610243895500723 8.94336803975006 0.5396902372831931 -1.313793091987144 -0.7443490204802858
Ni 7.156747851204743 5.571546328684061 7.413081323523328 -0.9347646634948031 -0.08248330340689665 -1.3723651359940816
Ni 3.5076795733814463 8.445469013780297 9.221064320807294 0.7621215139723584 0.889226826964004 -0.00332289372564589
Ni 3.995918478683477 6.330882946327505 10.070993998867372 1.17886159808286 -0.3539038655105711 1.5337568809724231
Ni 0.4329801457398281 0.5224797290549839 1.1827991901930237 -0.998025628336978 -1.0850268742188862 -1.4289972826658293
P 2.5048810608057064 9.196565467563984 1.7461072757830407 0.885271441860682 -0.8142179775572816 -0.3460398893814621
Ni 0.9113051038980892 1.8563268246964462 9.170562048687353 -0.09693238895269111 0.938777641308938 0.18350631748919363
P 2.861498063026446 7.945863096725298 11.375943502008692 0.2916464022322461 -0.02147411071337592 0.40514826550784416
Ni 8.115007174525124 4.807160771354227 3.42624633796963 2.202841998612387 -1.2142343211551991 1.4351823284306187
P 2.9602604733946674 3.2616242340200747 0.37873117411490353 -0.23178083622486534 0.2550968852429865 -0.6188912703943922
P 6.204990532179951 1.204250286401598 3.2023897793277687 -1.2485456928425593 -0.17250302440015453 -2.0062317967513836
P 2.2426672751255934 2.913863568626283 4.498482945642141 -0.024020274173997342 -0.6958256189586016 0.16925854932092785
Ni 8.441882335314554 2.575133975677002 10.83904440586028 0.19577407911295316 0.17357157487398495 0.8463855634287618
Ni 0.16707943852916132 0.42933001065507653 12.226869173088874 -0.030610782907321474 0.3436873299888855 -0.7816672973147698
Ni 2.333814891212701 5.266513120089856 12.455637641906511 1.27755133604629 0.15931275096212563 0.3953243374388869
Ni 5.910036809735627 8.981631461351515 10.241359386667842 -0.37438038819736813 -0.19932965767469543 -0.983701498404822
Ni 2.698966348859617 6.968888669102903 2.7792831156413276 0.48126603170802923 0.30052133612437276 -0.5284144072590576
Ni 4.722202474773388 8.649036008239799 12.656046519993868 -0.10039875023473675 0.06506099416539117 -0.6266775992080305
Ni 0.7309411601285056 8.13433845179433 3.492685418072353 0.5148222703969199 0.25356785019296973 -0.0868022424972247
Ni 3.5576723532270234 4.003248178009622 10.506712895497197 1.6222012870587612 0.5045460852818924 2.3694332855137965
Ni 6.446088897969437 5.13792609878727 4.965537456467665 -0.5700750202226376 -0.14827114843598335 1.089545845135162
Ni 0.4019176709042098 4.419863873334215 8.028467060774778 -0.08118129676602148 -0.3469721713877444 1.5742849229934566
Ni 2.3704357980090744 0.6518631769091937 12.980840487612024 1.2116891861358423 -0.4215603883172804 -0.027486892566359115
Ni 9.050937125243397 4.90964780935995 13.005297036442661 2.3929156849064532 0.5690159828305039 -3.0348628086790446
Ni 4.469185300543897 4.630337522993132 6.470734896995957 1.2282997981093298 0.12708345861477469 -1.186847187391498
Ni 3.2258953985344117 1.450425181711827 10.346724964057607 0.03144973386884906 0.33355846908499975 -0.19676549649194502
Ni 5.546274040417755 2.5152180520762046 10.09454927977585 -0.18752546595091577 0.17154528847257552 -0.3651123326318809
Ni 1.2152126472507385 2.7983081457492274 6.815987646447165 0.3655427353010801 -1.6410065926907225 -1.0385963506704887
Ni 7.392273070455152 8.560049595843587 12.210689574563796 -0.9813453394678197 -1.0193794114224057 -0.8893659236450298
Ni 4.415283960831805 6.764604338950254 7.842258670428325 1.2988400702217373 -0.7919164858466039 -1.4459120561432968
Ni 6.486241303562849 7.398425603515618 0.49526971475603077 0.36526608460092574 -1.6279078505252353 -0.18946433484484143
Ni 8.530454900195487 0.7869522025073692 4.432784192761193 1.6377204657402828 -1.353398879304224 -1.9135203878585756
Ni 4.492673446188783 2.7783698921242808 12.410640461400913 -0.18225701846312484 -0.6591750576151035 -0.46735224984041446
Ni 3.741760924634108 3.214353651163882 2.443990296391143 -0.19406995193765286 0.04253915891379126 -0.5053978917592264
Ni 6.466900829682193 1.3937096788958458 11.86574583125733 0.2769859720065939 0.41832182677532476 1.1668437476863776
Ni 7.6308147782613664 0.6027072887056233 6.484114127334322 0.8057621334804446 1.6600682373078637 0.5563355591493581
Ni 4.504169210502059 -0.13956685571348285 4.0455884574671375 -1.393620188718116 1.4225381573040468 0.47290711822037257
P 6.095799164426725 4.710504385008197 10.579007458110528 -1.2948070378029441 0.07975202051866266 1.0767597491140877
Ni 3.4842558040167138 2.3775723684947567 7.246067180935467 -0.23755013460847474 0.5783909962875007 0.9149250030610565
P 4.710798676574617 0.9561532992981888 8.49035215630391 0.40913013297372763 0.3579541243205448 1.1300193797691764
Ni 7.95492175900416 2.2536756190319873 2.4690391069992 1.8637772549971772 0.27792262488825037 0.5801488595188719
P 8.242012378658204 2.5845329125795367 0.1611145163422884 1.2006288145566224 -1.0230262641463737 -0.1975774508702791
P 9.301820685616343 -0.44611566587475043 7.843550794337137 -1.2012417655502732 1.463503543972815 2.364367698065431
P 4.595684691047191 5.625677583682418 2.416086857588813 -0.17987334872229666 0.09924843868037746 0.40405323267145254
Ni 1.3277975646292437 2.5781964472900585 12.218388977670255 0.24173717610662884 0.8223490913048482 0.567532456306442
