# total energy = -381169.53904278367 ev
CRYSTAL
PRIMVEC
9.21326922780272 0.00000000000000 0.00000000000000

0.00000000000000 9.21326922780272 0.00000000000000

0.00000000000000 0.00000000000000 13.48455080641126

PRIMCOORD
 96 1
Ni 0.0025944566686615803 8.76478589113804 3.108580135469065 2.180272340841987 3.0591481635889703 0.18643840353432406
Ni 5.035871718988155 6.988946636979011 5.803157402917384 -0.14005441695314588 -1.6035733875449287 -0.2177647244514314
Ni 6.699410432187254 3.629023905098645 2.2363589981542265 -0.16311541253766745 -0.9390185536751505 -0.17262232358683818
Ni 2.315165619464822 5.547549062764641 11.712343874300528 0.1668162584280224 -0.0977245458366833 -0.9793514489662423
Ni 5.872501075206735 2.2651099267061627 4.049410647500485 0.7386118608861925 -2.108787959648755 0.2838006809355822
Ni 7.853704104736739 7.289078101603726 8.373366589119504 0.5722090358465048 -0.7939587130876133 0.6617325339296346
Ni 1.1006540179864597 7.958486617849977 9.362512407316151 0.1168134441473343 -0.08927281552490432 -1.1304197005313885
Ni 2.280274968171422 1.2082834313504676 3.302757159110322 -3.1734673805595413 1.0584046436456676 -1.3615137951018745
Ni 5.948584254076789 5.718731608587553 7.824814977143502 1.1573255237832971 1.2003925301761005 -0.8429708813202579
Ni 6.1391975851064045 1.4943738733791585 0.6683968992639396 -0.43495814978042513 0.35752140765850043 -0.8750988722030542
Ni 6.2275159857661695 5.981143948206939 1.6698866558294534 -1.4211721301944555 -1.2865106021221069 -1.647386270964821
Ni 8.235041326029007 7.2295327413425055 10.856911156522745 1.0737351033551508 -0.3834298999941461 0.6928945613547357
Ni 3.8198215015166594 8.128388519223515 3.816371132118883 -0.9680020853916942 0.5060802625382316 1.7641940586852003
Ni 0.2791436368860389 2.5773292008098694 6.994004721890571 -1.1995744051501793 -1.7099329833487906 0.1903436521260012
Ni 0.4370286709551189 7.897826451988941 6.678560803489878 -1.9673801139915084 0.04974004753760466 0.9773606437884588
Ni 2.7397222876061367 7.809093454205278 6.242564940036737 1.7492736899299424 -0.6466224177610734 0.5334941357748103
Ni 1.4298625609005775 8.23922415034567 11.60005807457167 -0.2949505269048146 0.10643055825111347 0.566356947941102
Ni 5.700802586296304 0.005101387277833512 9.918966240473658 0.11385667551185555 2.051487583265389 -0.984665404979988
Ni 6.245408154979738 3.992800634876464 5.282343259857121 0.42489665177936503 2.375912208369921 2.144348116141552
Ni 6.883740313472454 8.075504352752928 0.17177588037355812 -1.358511517940441 0.24797724347906971 -0.467441210009795
Ni 6.077450253453812 7.073128279669214 9.9816689881651 -0.8808396313415733 -1.5509115383748386 0.46586949464730093
Ni 4.092469783461624 5.328208757683582 9.512136824023294 0.418908295406414 -0.5891173815660693 0.3289487382271302
Ni -0.05044817803594939 7.478337082028606 0.1059691822145304 1.1480808652565775 -1.7684178669585608 1.8143375123088108
Ni 2.875102068463073 1.807182796725742 11.841458631951888 -0.28183532967909525 -0.6572112490205133 1.0190040303608578
P 1.2593525837453223 6.014219585424605 5.969745291280561 -0.25146803024114756 1.3562736297488578 0.5543259849184968
Ni 3.8112808007643535 1.0184900812992297 4.585434977046164 2.60979080766408 0.4021961248580557 3.561075580301093
P 7.01420942172855 7.841828200454406 6.583697296234171 -0.4946907897543673 -0.5966229459144952 0.05202318714482653
Ni 5.478578527886797 3.3976142170774346 8.272327427371597 0.10819587768165237 0.5889597729422824 -0.5342317852717832
P 5.536152248492146 5.143326080233184 11.231983354609438 -0.1408810266194993 1.765168763893644 0.6437170711888204
P 0.32302736046026465 0.5778820551744551 7.894867149851249 0.7512511469167577 -0.255369936398715 0.488751541451797
P 3.1230587883625374 8.255052547209166 8.418485812122949 -1.0464338444370365 -0.5150688391900872 1.3863776482230898
Ni 8.217950711254975 5.741322545205302 5.879803512548998 0.0005689851295925685 0.12792858022388937 1.352583325381464
Ni 1.4295124566626187 0.49169284107764333 0.10794819248593847 -0.3098055896397761 0.28271824650468086 0.23043872037467406
Ni 7.987130672476643 3.7906154374553767 11.619138755540414 0.5530841420915958 -1.783749869329941 -0.6392839751181313
Ni 8.441436987575019 3.457002951758516 4.637485342634245 -0.8456314588715567 -2.099164320516062 0.3008442666814303
Ni 1.8411613343465656 5.897616447645554 8.10661572093026 0.7900210685961039 0.7983198182697864 0.37487378289401885
Ni 5.4129524098084 3.0530195142319787 10.864300198597554 1.349811933283914 1.3395619734211317 -1.0026847243755443
Ni 3.4220754473874364 7.294799541913523 10.658297022328833 0.2637170228118297 0.8685849823439363 -0.909597420200556
Ni 3.1346767211011106 5.424791461013053 4.901189382626311 0.1557160347498028 1.3909904644047526 -1.0647007610670243
Ni 2.382615964888371 3.4344304416796065 10.130323247602318 -0.7022878296441776 1.7451774083733815 -0.48038568598560494
Ni 6.0647267283848425 3.8016068678733923 13.062686706837404 1.4367288469821322 -0.5444228668721721 1.6515324319227107
Ni 8.12723686054602 1.0693657550362654 5.325035707695346 0.11356922617842377 -0.23064775106168664 1.1554930985602487
Ni 3.95911692187708 5.210767212387313 7.044788262933406 -1.063784162790026 -0.9047442058733127 0.37273076840908714
Ni 4.949635517217301 1.4278632814364456 7.076112457634339 0.2984073751051635 0.43728705502391785 -0.5945177266460342
Ni 7.065601038553103 4.822538465568911 9.623532621926183 0.22786093234516885 -0.24263320555833695 0.7070135172546211
Ni 2.6947799593755573 0.811723124995594 7.054847310486123 0.0056083473257129215 1.0198069858781276 1.6219187228213359
Ni 7.581138742216552 5.451049278859947 3.67812694579928 -0.7927047860758542 0.27388419315281864 -1.1776328678820815
Ni 0.7401599761029733 2.280035423166503 1.8154517060301587 -1.9907920651575457 0.3371495288703677 0.38088142254067947
Ni 3.923526062107763 3.85189289236755 12.405234250317438 -2.54973986511877 0.6231361617136753 -1.4628062607954744
Ni 5.528044571402579 6.895542511599427 3.6209254412784975 1.7911371629329473 -1.4377328627666144 -0.24853671552696552
Ni 7.182397654989974 5.8219294393605585 12.680952393633135 -1.8348659712794657 1.4279390166046442 -0.08640783527228345
Ni 0.016910956020342083 2.672953724119665 9.455528654053156 0.6642054209501593 1.1234846639744525 -0.3901973006249667
Ni 4.672712278261473 4.296000118218027 3.5449675628725545 0.26901195266218186 0.500550333858938 -1.4299131096118793
Ni 8.232940700601254 0.6093702460710627 1.199139261451154 0.2603049118064871 0.5404600255696821 -0.07334688832326722
Ni 1.3352238574187174 7.527904471508007 4.44291675504264 0.29404087060635165 -1.1821328126349642 -1.7058703832436428
Ni 1.272868449984408 0.4424000070269573 5.368051541290211 -0.5629592351134627 1.3314887094946941 -1.097921213683051
P 0.6271481707438232 6.753575243107217 2.1763124360365595 0.5630417675249401 -0.2918068390695103 0.44554569548828427
Ni 5.870879539788822 -0.12266454773044536 5.139434395230191 -1.1156127174255432 1.1690998907104058 0.47356094975428764
P 1.2842099846403825 3.0042721057309545 4.268103259741321 0.8670047823410101 -1.9596688613901798 -0.2075435609440555
Ni 2.1583004943205317 4.141972680055085 2.5016670683523072 1.1978201414632337 -1.6073811913267932 0.6176944218728136
P 0.2966488487839686 5.129073152440501 10.258507465042264 0.2560183686159913 -0.3496281209533527 -0.030896432468540336
P 2.8971862752627247 2.9317544621264258 7.90263485729922 0.8347142977384205 0.3738247728042143 -0.02312013095723115
P 4.9777452022176085 1.3337773741197834 11.873753905249686 -0.1736718478972751 -1.6792489240013724 1.3261894087689676
Ni 4.224615706752154 4.253176841954039 1.007709634750931 -0.21887055592110047 -0.021137810419879728 2.6281464273531316
Ni 2.0279972249139955 1.155859928350878 9.746093981039124 -1.7921692037418877 -2.1737728491605726 -1.9737824179734265
Ni 7.24800534652953 1.2690265166362833 11.672254175073443 -1.1633701873154803 -0.3081788526696306 1.4515648835537003
Ni 2.6318256894289505 7.405690452652198 13.600653193576811 -0.777690572055209 0.16756136412416303 -0.9028647294624127
Ni 4.663194970950652 6.315115751411177 13.06224170592442 0.3559404363246257 -1.0798887816613725 -0.5448509555485263
Ni 0.7005217270774666 5.013207076215046 4.055289634717363 0.10595696104880462 3.0433073399019714 -0.6961878873940268
Ni 7.272954880118791 0.6319095883800602 7.638121892252082 -0.7206902434107653 0.33211608021151834 -1.0084298543894374
Ni 4.4756865117155655 7.7987653791854985 1.4771386102752337 1.8251592855146632 -0.915112179371198 -0.10518125922504466
Ni 9.024987046096633 4.7722800808830135 8.209960964013984 -0.7692064458435979 -0.35634667062410885 -1.038644430299605
Ni 0.10316834831086166 5.477003058815984 12.359912335386758 1.6819868917578258 0.16001157680136313 -0.004065685428941385
Ni 1.0011783480591192 3.1216860112189626 12.970142179494701 0.3787543488953477 0.14453199310852527 -0.09810995420056005
Ni 3.3668787502924378 6.117518762161231 2.566447408297951 -0.4174707916289391 0.002779876737982309 -0.5184066453140684
Ni 8.273414593163153 0.10291590472875468 9.624544238908495 0.5784766140227715 -0.11305989064217302 1.2610438253095702
Ni 7.73888834122516 7.911821408237865 4.644861486131868 1.1723379380317294 -1.1600809750412473 0.07412104748513042
Ni 0.3697340297847671 1.380654488928555 11.237418262240276 0.6757938971187071 0.05972029867876812 1.8437493898120247
Ni 2.358246867272569 8.457578635598793 2.2107783556096994 -1.7854437120925963 -0.7955152589414557 -1.2931080528339667
Ni 1.6999495539467928 4.051599720314668 6.212993109179482 1.4015803241054572 -1.2094101602936784 0.5488274236977708
Ni 5.971727986859737 -0.08498411845668069 2.671168192506076 0.07328132519265444 1.6266670361395985 0.3371862956455741
Ni 4.056980269655926 1.839567438736912 9.587677341324511 1.5279479876001298 -0.6587608528958203 -1.4141041676040806
Ni 1.9311104836936646 5.184122437224779 0.4998604044184405 -0.33925603369040924 0.6195852111376232 0.29287307555049563
Ni 7.077569075529635 2.138012875057773 9.623115260821457 -0.7482025898984211 0.4047029504403095 -1.8976178576957063
Ni 5.111208623035193 8.407541369378974 11.994980261623676 -0.12377624861841265 -0.006212299458298979 0.8400534505631468
Ni 7.618645962025223 7.57700198424699 2.3806434039055566 0.09842080057275954 -1.9264175555362177 -1.586942206746151
Ni 3.838911395754822 0.4566142390880762 0.48948534172462016 0.2732427029140778 0.9389198233137572 -1.4698639389732042
Ni 8.337391536015376 4.899257360028944 1.107569498013084 1.3735370448149957 1.7632725753121958 0.6591912555650195
P 7.392146946604852 3.2113771890223024 6.985725677989793 -0.27580686409682825 0.3391231076569708 0.3154350200114116
Ni 5.038608060005884 8.355403477731404 7.592611105298291 0.7429043176139594 0.3635215911059933 1.1130285016381347
P 7.767523182582405 1.397809596588526 3.3342840457384932 -0.37760892243699484 0.15550417584931284 -1.5237277788711951
Ni 4.051857691858427 3.252320958324618 5.548798382097987 -0.8077591093058153 -0.833493537957442 0.7941698006571548
P 2.746125509853011 2.1930805863808924 1.2721700841623746 -0.8880189226988319 0.905090533469138 -2.0651841069158756
P 8.205337745419046 2.9705791794621494 0.38967891542510297 -0.9795810484785451 -1.657543671113797 -0.5494025794749506
P 8.669686524185181 9.074655781539654 12.476081528176127 -0.4356330643602626 0.8812623207012886 -0.9763298885310991
Ni 4.397548773764859 1.9138263902618138 2.3974456433467437 0.9919925347690205 0.3746801788259741 0.019548354445572787
