# total energy = -340862.9588311087 ev
CRYSTAL
PRIMVEC
9.40212275702501 0.00000000000000 0.00000000000000
0.00000000000000 9.40212275702501 0.00000000000000
0.00000000000000 0.00000000000000 13.76095703604062
PRIMCOORD
 96 1
Ni 2.733695384666228 7.373323270499582 4.476026249596119 -0.5646656762816081 1.5397298107264064 1.8093439157489613
Ni 4.396319754311435 3.2020621275275167 8.699030094485048 0.002910745888891761 1.8083242162351953 -0.38026127245817737
Ni 3.3935175522968515 4.189867943817644 1.4258695176530327 0.1651797512658639 -2.3215130647937503 -1.296614266215012
Ni 0.22550239153134022 8.084462223888249 1.1944287454172622 -0.528049053499839 0.6226815906747599 -0.18490088384387512
Ni 6.994380116745063 6.440595089052001 2.84703233267681 1.4378876431769234 0.7846600613945067 -1.385064585838621
Ni 6.630461555083134 6.019069721538197 11.974812385766992 -0.8471602368112571 -0.542343358635324 -0.5620984297750643
Ni 4.9294671226532865 7.478109928116546 3.4862281235034764 0.9373316528910309 -1.548892708172597 2.4547175487045982
Ni 2.178283789744119 5.2839741594812475 11.759054354213598 -1.2910809951016087 -0.3343765941109209 -0.7965971791517248
Ni 9.046844700367135 2.81954616714272 3.2554708855888146 0.2947921469500794 -0.9678421627750621 0.4174633354297714
Ni 6.083558881214712 4.101243535141331 4.028506833422502 -0.6917645615153505 -0.10452871324271032 -0.28421642831676214
Ni 3.880509900249141 4.9830122114938975 4.8156196393794835 0.10054247490145264 -0.1722762531013291 0.12311624643691055
Ni 5.679126572789974 9.201866899630348 2.2457882101741338 1.1738775146047074 1.312819415219965 -0.024192795196119624
Ni 0.5543839429097691 2.085005330325734 6.761143539071442 -1.3907464667147469 -1.3003878743248314 0.6505122397337829
Ni 9.150080007736742 2.6788339986460414 9.884949918848621 -1.0876805097916493 -1.0600563203164775 0.9630051463977349
Ni 8.713276190817144 8.688971703608544 3.447312737601582 -0.5228302283030608 0.3845640135985893 -0.21052526928019874
Ni 5.622149709159754 4.053697000590502 6.35500286495007 -0.784762648410642 -1.2215686500330833 1.8920807299275608
Ni 0.8189173664523522 3.1991662737324496 12.37394847846848 -0.14756229529441686 2.252548878919211 0.8250346085568112
Ni 5.5868353362562715 1.065598979603071 9.33156636179533 -0.0925507149452277 0.7717312691479805 -0.06391711036893509
Ni 8.57020408951994 6.725225549889897 8.474740576783459 0.34843384353493545 1.0112871213325747 0.37786140476743313
Ni 2.011302090392187 3.679342082719077 6.8678322461128944 0.9590790718704515 1.5058573263486774 -0.13188627932005673
Ni 4.85188080603999 7.149345903272008 6.499822820859296 0.5884854044090252 -0.6119459494248106 -0.8799328032565878
Ni 2.6428708792754816 7.3065493950042315 7.173187806043214 -1.0415425777830063 -0.8357846479844637 -0.6001957508674179
Ni 6.763642623288095 0.2143007025331481 0.013474182057503009 -2.205629074439221 0.9157089324149327 0.07024948034486611
Ni 1.4366443502801336 5.5320491672177745 0.5889320428122845 0.031293667906959005 -0.2707327920080305 0.17762183368395862
P 7.422590393506571 7.763915654293349 0.8694199283836004 -0.2693359116605039 -0.5203881945204715 0.13097379480811638
P 0.1310749927176397 9.274592318801924 7.899050483597709 1.1889068981340039 0.3838253356603519 -2.301559247379643
P 7.183550825695563 7.533497833008564 4.6341812361467225 -0.16883663129216084 2.092139809569113 0.5680911570233893
P 1.3934886070354622 9.189888595296207 4.91490511499809 0.39744112667157355 0.7752158852624713 -1.0748507050168328
P 4.7892814730284385 2.546668359693896 3.5270709445611788 -0.14762065933617802 -1.0290899538419502 -0.6777546203895037
P 2.9604933887071803 1.4742152326343183 1.4040302670193239 -0.22419016836180097 -0.3521092355039936 -0.1352053163909607
P 5.623061715062746 0.9084669440034524 11.466000531638688 -0.41331460336872045 -0.7550476378447125 1.1503907443366768
P 1.4857704414464536 4.741622113005074 2.753939095075837 -1.6028426800264912 -2.789953405492021 -0.03867144842826888
Ni 3.4194109982436545 8.509541593786908 2.2316145101869136 -0.9811471074140845 2.7210887213098234 1.202399019083168
Ni 4.016652637108148 6.389936451883746 12.609880644723416 0.4567585334849682 -0.44242617602269607 1.5442390114506694
Ni 0.0019076906981141304 7.624209512926775 5.5384275672650904 0.311694836242689 -0.7500123894136502 0.7295489793529758
Ni 8.46993045080438 4.456164265368588 6.408808392589782 -0.13212384925215953 -1.3026830981169113 0.38691503032926916
Ni 1.5480783086539565 7.333608704167231 12.834211531764932 0.026732273788521704 0.5305594786265186 -1.1368137769831905
Ni 2.0568083643146733 8.978651104342386 8.81067277998306 0.4897540145743824 0.07764834391209852 -0.376223612053694
Ni 3.596612804982723 0.5003066939237009 10.59923952355783 0.8171824595022443 0.7294492205503179 -0.5162929414051753
Ni 4.066380464127989 6.247259239740416 9.17405824128726 0.8113892498592349 0.40244783585754557 -1.1847316837103918
Ni 0.718076779737303 3.231509575859175 1.1294675991806424 0.8905316618183567 -0.14731675494251403 0.29959368210378085
Ni 2.005134297893602 2.8282619348960556 4.445174124131399 -1.31457702134102 1.5587539172373928 -0.09329659197231674
Ni 6.595767722278594 3.28037240758958 12.242613987164008 -1.7503116442761533 0.10795316554322697 0.13164073896815393
Ni 6.9478208050789165 8.162744297582178 10.414690898132186 0.9648468275921642 0.1734301642001142 -0.7066792738436539
Ni 5.0114442305727405 1.774688270240683 1.0529719288018522 0.3015515771611 0.7643128651967224 0.31992416613101676
Ni 1.2388612969261226 0.7764160109483841 2.5706014630554015 0.18508857437464898 -0.4312699022955605 1.0095976494452934
Ni 3.4251368909748106 9.120858210350153 13.395245596068374 0.4448787513282467 -0.23327310449967567 0.25158810075877963
Ni 0.7074401583140576 6.691763395160532 3.124260502304133 -0.5206041671860195 0.14353594774384312 -0.09418362256296037
Ni 5.652509163394405 0.04017621055747408 4.817862045646118 1.056146186628794 -0.07667929513060988 -0.40292220439080284
Ni 3.2723053863033207 1.1310283515507114 3.9026490785973387 0.9155808914775005 -1.9654245329270346 -0.42084870696223653
Ni 7.628017372624835 1.4216855730465232 10.918026015781182 -0.6465792232279638 -1.7454792558845165 1.7962904249991127
Ni 3.905312699961438 2.4599243755598352 5.969475404660857 -0.46475183610308995 0.1460052352199421 -0.27483215888838475
Ni 1.6379343954054437 8.964040205649091 11.183144251356405 0.81331089236198 -0.7058560066114102 1.7263286510979945
Ni 6.681016768901565 5.754061490798696 5.659854101656438 0.8009706256290722 2.3235866594933277 -0.2631652640734177
Ni 4.98273954993527 7.323933919897348 1.0181182599112208 1.4955338329354824 -1.1778748086895585 -0.969606967984969
Ni 8.21532096778353 4.734072208467935 4.102195970171982 1.4763706297434702 0.9004229527901396 -0.6048155090276164
P 3.550551805820273 4.129882400919821 12.881232487656204 0.5857032136781977 -0.1937213103489825 1.410705683445493
P 3.005595371353082 7.2715358900275096 10.85718864056572 -1.4899671374809824 -0.3810932814411695 -0.4235213686983932
P 0.5843654318114267 1.3602050926376108 11.611110072927422 -1.0007803082639795 -1.0958992981570157 0.10763820540596947
P 5.287076859975962 5.370116407761787 2.3062259951743678 -1.759533162874421 -0.5584975997976833 -0.6045105761926879
P 7.525797494508044 2.6043973931410163 4.998350834485042 -0.22753440224368557 1.9480711292502513 -0.292510035784122
P 7.666105371728138 2.8251122237877846 7.955498007719286 0.5082075932938795 0.6922024203837175 0.5159167890126792
P 3.6822473386368557 5.035955564480988 6.963980233382754 0.8438003192000887 0.78570650038115 0.36445464444322395
P 5.069417719210353 4.7055649724074025 10.213630264801031 1.2922336206488132 -0.03759081376958042 1.2576412273859243
Ni 1.8093821030452228 2.088258464783829 9.021806847587056 1.1092178696427928 -0.311534913626057 -0.5981481243097698
Ni 3.739600287175526 0.07456541458616922 6.069077731814833 -1.1134059395822116 -0.5538739849827429 0.9753878363328041
Ni 8.186108572519652 2.125688315297345 13.525575940667283 0.4684102587912836 -0.05235948743832273 -0.9236865513037706
Ni 1.303190620516546 0.8415952864319051 0.08814396020576719 -0.947943366968606 0.2801090910166079 -0.9697293524954462
Ni 9.164747319166302 5.269541901119467 10.837399992895335 -0.571817456835041 -1.3045607747555985 0.47301253344998534
Ni 6.017988477426403 1.7325385541261158 6.885377547304372 0.8187765434622415 -0.6781503131660257 -0.1382423034450716
Ni 4.572261676607194 8.633123094703675 8.315223222651994 -0.6918067276071957 0.35257794761029604 0.25173131120486325
Ni 1.212798612770517 5.1265544189266645 4.973126819675281 -0.10141716419692211 0.2037460415748362 0.4964702502522934
Ni 1.6997627543546725 6.234378331625992 9.227863768926975 -0.8040929733081379 -0.04072344586129115 0.733150323550989
Ni 8.356898131569643 0.8573814504641063 5.625368995976088 0.2692945168996072 -1.724172009766308 -0.39415808504492766
Ni 7.205485977980927 8.434352818464982 6.698723786603676 -0.34568996224121107 -1.0139826658868665 -1.3812205295021824
Ni 5.423708507215955 4.858377672833469 0.14590308044556377 0.5530481466473378 -0.44518265572191074 0.07498390970605795
Ni 6.5990302588594 3.241701476878178 9.93670484352501 0.48031935152404376 -0.15081422657281124 -0.9705595617062251
Ni 8.735709655606204 6.51169394099453 13.093550282509549 -0.5755738385536797 -1.6842574329595574 0.5637323658340614
Ni 4.823486395451992 8.04626139931241 11.36637187854112 2.1110623575052285 1.410355756305242 0.15673367738103974
Ni 3.1298350208596375 5.959582491144071 2.7746491507719235 1.1624379053091978 1.7620728985771397 -0.8135865146208698
Ni 8.357828941718058 4.947396970663654 1.4592667977356903 1.1571517172095942 0.7818665578097695 -0.5086999595492658
Ni 7.602518815831904 0.42769598064920217 8.391101173568655 -0.510331838725734 1.624120358458345 0.5557159232874881
Ni 9.268180071112846 0.0001410318406688613 9.998408154242178 -1.2275140689832407 -0.22307430958980293 -0.3548001520725954
Ni 6.7388962363120655 5.235233555346089 8.689328984271572 -0.6973870499084506 -0.1736407375490235 -0.6691578798594282
Ni 6.89244230230961 3.3252393371677003 1.8512751412097725 -0.7788948767759553 -0.912504566545022 -0.1357601604531662
Ni 2.9070893317072377 2.67568428753777 11.229532444389207 0.7481352269955954 0.476013010839206 0.4109376184961116
Ni 8.452978423555983 8.691397451268049 12.68336387498552 1.6365431576027298 0.911127226581521 -1.7065553251258097
Ni 0.2291071653788363 4.265630248624956 8.483396170951442 0.0007250510914826223 1.4015929225109474 -1.23499083697626
P 2.303059360245216 7.521322084097485 0.9586103448471305 -0.20570007997741346 -1.0802165973144364 -0.48575183539352473
P 1.5341725691640071 3.9709771249768595 10.198341473060253 -0.49046261060563273 0.1587008284097396 -0.7531887302591028
P 9.286984316535362 7.304405711026066 10.700616031267423 -0.6681770040033975 1.3709335457538776 0.9154477083337459
P 3.6642610778902203 1.4052130540564003 8.01956877293515 -0.24686472714118132 -2.5489605637505846 -0.8703986385139074
P 8.249478879593527 4.301960050781255 13.012168328957717 0.6067847169388453 1.2294642507310762 0.433484393448376
P 6.353155347837307 7.383167292978269 8.317342461111112 -0.4400337645311196 -0.583382535964821 0.6878171468318284
P 0.7023846369322144 5.915486535628274 7.079613179759425 0.7989070582318241 0.2041173088713259 -0.5528833389346994
P 8.877211602410629 1.3840770822014936 1.5290484122863717 -0.3080533828353598 -0.8677383180729249 1.4614268639494445
