# total energy = -340863.6619142191 ev
CRYSTAL
PRIMVEC
9.27470765346090 0.00000000000000 0.00000000000000
0.00000000000000 9.27470765346090 0.00000000000000
0.00000000000000 0.00000000000000 13.57447215265715
PRIMCOORD
 96 1
Ni 3.135741480896769 1.6927639506069072 8.518415318280201 0.5699770611921926 -0.742388040099173 1.6882449568523958
Ni 0.7275395842677156 4.107869939441664 10.212048308972646 -1.5523130467080555 -0.48665840636819413 -0.027860730966010085
Ni 4.7594366853243715 4.624025956948132 6.251573874839261 0.3764460124771452 0.5319285910599032 -0.38964425633497407
Ni 6.632538047064674 1.6424208387147 8.636880228723822 -0.4773983212225068 -1.4102791374310357 -0.1922017883806625
Ni 0.7330274286499225 7.545697915813944 3.9626873793245205 -0.3926622172256915 -3.0649547429684185 -1.2776230698244901
Ni 1.0827942675164897 0.3876169198599527 3.539638294696366 -0.9559230427399731 2.8303752609524935 -0.02330190795073406
Ni 1.2109614493953418 1.774195881781111 10.722068180048039 0.4542043996045468 0.21618940954451155 0.9955828232234403
Ni 4.018248441612925 6.9502802486702615 10.451013000668501 -0.06549242527585496 -0.04738106038712485 1.2868219627149389
Ni 3.029861420955458 7.780765375450641 0.4093299374080084 0.7167094043861463 -0.5148454103253713 0.4397892526204813
Ni 2.476458178438101 4.928551700475901 0.7500409519467288 1.2585765947160004 1.3515744245009755 -1.7129051786032372
Ni 3.7680075606321504 6.094206204109741 2.7225912915012143 0.8134656727722893 0.8279651519400449 0.2620558330593229
Ni 8.272232121797003 7.999360954704037 8.37185175422777 -2.2049096797746928 -0.2132061585464715 -0.6429480542332798
Ni 6.478939617431873 0.48360735927608683 6.001667810796459 1.2078538715501521 -1.2111883352400237 1.2395920831936973
Ni 0.7314971019251225 9.152819218076592 9.264224221229801 0.37983549777466846 -0.3512389170838983 2.0755163420798195
Ni 6.73980931311944 4.352072985890045 4.783250424103743 0.8166769806207355 0.6372530607310316 0.7330454225420084
Ni 7.850242208756559 6.521399228014506 4.641017220947123 -1.2790880844057908 -0.808490073934569 -0.7008027604582189
Ni 0.9319226018660597 5.495792806468419 7.893392785042206 1.2468587920584397 -1.5670531811317077 -5.197183964359249
Ni 8.929651208063643 2.6270237787435704 1.0407714956534828 -0.4577211545085536 -0.47891115832260744 0.39634377984233676
Ni 3.057045588412359 8.408199332618624 3.9294700146889383 1.2945774382906414 -0.3989858454508741 0.23365285643659758
Ni 5.6408306811497635 6.238288783926513 8.692236319978178 -0.5788262840527063 -1.0176007222554282 -0.4495884980990902
Ni 2.3501830368735463 2.7970477152225572 1.5867874337083965 -0.36990718291736296 0.21310202886843943 -0.3994836110228991
Ni 4.872272775832955 2.6234530163857035 7.497465727331219 0.5083160938472858 -0.3522948691522384 -1.3921418044003766
Ni 4.956607690430567 6.193798012418237 0.5718478531695371 0.5300755970115645 0.29192279582208436 0.30807292321938556
Ni 8.890270800345457 3.618656946999098 8.011897576727746 0.04441220756678803 -2.2119293056256355 -1.2998052623484841
P 6.6980824044232286 1.2717664312607269 0.3279425248294351 1.084306965333726 1.4342410475632719 -0.6804553071501184
P 2.071784144156453 7.403665046337662 8.65196090299367 2.8397335622389415 1.212264084802706 -1.51653100401244
P 1.3596350093865137 8.806640763511995 5.504488772148252 0.8516943772361848 0.13382514821398242 -0.47686327465464323
P 9.103876587005264 8.451994501070171 11.893680755730433 2.270450698900296 0.7293229793850988 -1.0123410165183855
P 1.635984191763117 2.4367531559601088 4.225407379142982 -1.2233365405667833 1.3187810321200384 -1.1548279541724242
P 4.706107117641948 1.6259025847942834 10.230943670405585 0.36709619583112907 0.7678563595736067 -0.027767142810939276
P 7.280051745803517 2.643848098008947 6.57998106251059 0.09230054660763458 0.19210562912243045 0.35930266792863924
P 0.4080630123740224 6.104065218100422 5.573718898236717 1.0065143825342795 -1.3044669294902116 1.3576111176133587
Ni 0.5180091040495899 6.653730753526298 9.498098953491898 -4.250815912297563 1.751918583751957 6.6200910749669415
Ni 1.4105809772612177 0.7552533375184718 1.4107673988804206 0.5157175285176796 0.32248524198997364 -2.0077063244143813
Ni 5.958136971506467 6.1082481111482085 12.009891912270257 0.12318309511910397 0.11128197280614383 0.9245265307065627
Ni 8.562354244696806 8.105945892409498 6.069159856713848 0.5537737119594527 1.0648449999543728 0.021930481524504167
Ni 2.9156341243334194 0.07916983003372684 10.660358914208908 0.9636777469847276 0.2513716138725993 -1.032906242264247
Ni 5.252851120229569 8.798414098027768 10.416465642988456 1.2382512528950866 2.1004727549148408 1.6336910328659155
Ni 1.6936264983972489 0.37707899728590594 7.272645891926229 0.5998933891356508 -0.7457592705642511 0.49350396853511785
Ni 9.218632541950413 4.818618593390726 0.625563248680758 -0.8479184551335204 1.284949171172258 -0.5769072126531225
Ni 5.927150174006124 7.121491347699395 6.450195444186419 0.10287472257905508 0.0449811926963806 -0.610085242066988
Ni 1.8114431067919998 9.20662179583759 12.487740605707385 -1.4971238031304215 1.636099385197092 1.4277821793118055
Ni 5.973032151627853 8.756770661698363 1.2081085493920178 -0.91558757634572 -1.4031826355955703 -0.3224489894353995
Ni 8.277286837342555 0.4595061045666009 1.6448461747058223 -0.617523443512588 -0.6765623998536154 0.9361294050528136
Ni 3.9778292666633592 8.48911188017714 6.479842046464135 -0.5929933195817079 0.44789311267453835 -2.8260817757834618
Ni 3.5321795749867655 6.251162077829679 7.437724554407256 0.05419294110263571 0.12594291725242823 2.6348737187746365
Ni 6.290449738473634 2.5747700771222193 11.851124688190602 0.9323007753353426 -0.5803360358290135 -1.1659063234737728
Ni 0.5064426164223291 8.114998006854375 0.6309926624061998 0.08653819020256064 -1.3352268363808875 -0.8429500553846515
Ni 3.5873455347389482 1.7573993866380035 3.3920294711173584 -0.842321163551401 -3.075488038399574 -0.024993693830860184
Ni 8.253719805780635 7.174728168307589 2.1147937448892704 0.0019542955128934087 0.4876032867799666 1.5254697012629663
Ni 6.385422742485462 3.8151879972931044 0.19263010835188038 -0.40564423130765626 0.2822333364484623 1.606861571377897
Ni 8.605722776606894 0.8790502772595923 7.4114446709241 -0.07319159369232556 0.9096845805977236 0.9512832299751166
Ni 5.405967265076373 4.5249628069627486 10.512627664491916 -0.37816710893331 -0.43783110045284596 -0.15807347923838583
Ni 3.7884397410850856 8.647904145966836 8.592423773633012 -0.39294478146311684 -0.02018187426451363 0.9929428144974318
Ni 1.185075740977665 3.4896364920373264 12.627435321442322 0.39282162562169126 -0.25869565833783836 -0.20454385488578322
Ni 6.708572098518675 5.45193271506491 2.7252113963482203 -3.398696274598502 0.3597922059705481 -1.495155109439825
P 7.975348737185811 8.905611166423148 3.7768250249792255 1.7819914918779374 0.5830557487530217 0.3784794979674062
P 4.786973291663347 0.3549597475527216 4.7438301351436385 -0.8636042412998932 0.38917554422867173 0.14412627302967437
P 7.225312422592794 6.522039182826695 0.44609766004512635 -1.1154425103962662 -0.19219741750528835 -0.9333348730268118
P 3.1813359425883845 5.345199382040681 11.974204693047922 0.5333840925595071 -1.1477913590406168 -0.056187345824845164
P 5.12860713959066 6.100717048720709 4.452019088022102 0.23005176934890056 -0.6218089582618195 0.5098546419789994
P 2.6217650196347124 1.827571823000649 12.950982562423983 -2.363799741377103 -1.4658213934727142 1.1256636739036419
P 5.943492208485503 8.470701585942424 8.434307634014454 1.8586885276203604 -0.3085732598945718 -1.7113789717666976
P 1.0648477086529264 6.184235789065093 1.8065859425145587 -0.28785248240745265 2.40751003778086 0.15042187623039902
Ni 5.551246282150715 2.473221305547463 5.17731697550567 -1.1479520529881972 -0.6866552653132433 -0.38413695336349973
Ni 4.864806636357415 0.9236449254910054 12.686415968357597 -0.18953581151272517 -2.7737127752634425 -1.646790803472667
Ni 7.122724883786659 8.45443374912243 12.306005496165337 -2.7458368747887807 0.2133437125656003 3.0140268457703
Ni 4.04275221862457 3.100089505562641 12.535603660834674 0.9539510066152666 3.8354678234385813 -0.31816604578932944
Ni 1.8905007128659077 4.793511960396583 3.081445488700866 -0.05162672303735625 -1.6588343649007624 1.9132218827815504
Ni 2.465745891364501 5.483689313281365 9.906731432901694 0.20006010808281674 0.6974572410247537 -0.8059739923809345
Ni 6.076083425805141 8.071100816621174 3.7720466957148804 -1.470489745482661 -0.869540147168354 0.07368087462391826
Ni 3.1722931028509302 3.446889365524581 10.249323358105803 0.1194159147671879 -2.000710095602206 0.8063735418121983
Ni 8.784029026814649 1.5674348291995022 5.1828558307787045 -0.468567096084122 0.025370360443988566 -1.3773055107184924
Ni 5.929088587857538 1.2120744142861055 2.9477236845463612 1.5736629731387415 0.08025929917238435 0.7337907853484653
Ni 2.2740098648082006 3.4220146002160146 7.185741883372437 -0.013944892215866308 0.9574181392282609 -0.09244915637035692
Ni 0.4344866538222351 3.924963434352088 5.229850773291197 -0.021506249502891994 0.39674847147992315 0.5834419284478468
Ni 7.649379870095997 0.22618878222063002 10.427271604607029 1.221706204052212 1.127329234531523 -1.6121171633498816
Ni 4.688160558778385 1.976050614135937 1.135911444398925 -0.4294935271214281 0.4538986954386699 0.620326460179022
Ni 7.418384007018011 3.3659860926734897 9.855175189278555 0.23831838023306698 -0.053922203939752306 1.7766034880931467
Ni 2.756155530194418 5.894660873903249 5.476403103129832 -1.2205895739492656 -0.18565781661455769 -2.38149227356086
Ni 7.305714861243042 5.280165133590394 7.227211882673031 0.5930879361780431 -0.15861855310857845 -0.3715717151039794
Ni 1.7347876499406563 6.989985271148253 12.12679496198384 -0.5006236102990346 -1.2496373832448413 -0.8828512624549634
Ni 8.737469995551038 4.722430602706481 2.9856776422628846 1.1706263546572613 -0.8765353475392645 0.4177700680369128
Ni 6.962903125473005 7.220535948269934 10.226518707494058 1.2319245393461105 -0.9688824311141184 -0.8220966089744098
Ni 4.288847305387249 3.731808377560064 3.440055761095292 1.0319101968995648 3.215963859160855 -0.12289256046187866
Ni 8.363430319887659 6.385227973629577 11.963046292547276 0.9368282308920511 -0.9472170303255429 0.7944130270162125
Ni 8.681793926890588 1.6399352171253279 12.220608627567788 -0.5973657376177907 -0.313432387759086 0.9487956876665725
Ni 2.8288228628538583 1.6102005051270936 5.664980164337848 1.7109881640861826 -0.5655444793421357 1.020724355486074
P 1.0413826988726604 2.011266678221182 8.662155661393063 -1.314836959870626 1.3055586198924936 -0.9696861579623365
P 4.563601238087092 4.216003753286771 1.3199949098604833 -0.7654423508154753 -0.14683878686483098 0.9211416733947297
P 4.741369555264308 7.907031242307772 12.462926125997068 -0.6480506655671678 -0.010794519512342698 0.3196035495668044
P 8.160221480249069 5.259992644945303 9.34434099889142 -1.1048621637772584 1.0069455565344272 -0.6441947821561873
P 4.361598110413497 4.265317372655022 8.641454514424861 -0.5226901031807708 1.7740318707112284 -0.9824313734431468
P 7.434429250859853 2.8835992848942738 3.3379217554821436 0.6099587437914528 0.26821696756471225 -0.11442283242797067
P 3.4054221486362137 9.275356652549664 1.9031820203254168 0.3797833043804943 0.25140323844148316 0.3666058864582718
P 8.00720735718392 4.207174231820047 12.46531529062924 0.9430181617528469 -0.9415544327231269 -1.6922697617410727
