# total energy = -340870.22075733903 ev
CRYSTAL
PRIMVEC
9.22079545498871 0.00000000000000 0.00000000000000
0.00000000000000 9.22079545498871 0.00000000000000
0.00000000000000 0.00000000000000 13.49556620066352
PRIMCOORD
 96 1
Ni 1.9750298244471198 8.385262225818158 -0.4738714277593414 -1.0639435711860257 0.17876905991452438 0.5780734650470818
Ni 3.4287527613911823 8.333819408403066 5.06017610062569 -0.1548364603583269 -1.1405184795282874 -0.43622081854293254
Ni 7.114415323610336 5.672531887931908 13.03535359487242 -0.4292682984844994 0.3170391312737379 1.3643571780879407
Ni 1.2465408855908329 8.942613202454677 5.681268591552771 -1.2271579711954028 1.1616442057633092 0.0667484091701431
Ni 2.7682487468585126 8.306129359882272 1.8222384787913977 -1.3252432428056145 0.15437931821625026 1.8567159772750217
Ni 1.7919324906218013 3.280307176597215 11.770644054068343 0.07768845312141459 1.0966066086366857 -0.25862289611837397
Ni 0.5996034272981385 1.6130951642612206 13.111360611175089 -1.1696585914273534 -0.20249674254876737 -0.8425818734119553
Ni 0.17812916927553352 5.921594791893014 10.246886409988086 0.23330935705424982 -0.37924208716504365 1.0476800581393118
Ni 4.284285818968588 4.331966551869364 9.511149003884979 -0.6242605051261054 0.9567591654880232 0.5339890731333578
Ni 2.12226748504654 1.319375948283394 1.2765020160132838 0.5246222872064771 0.3615850362049128 0.3802247627932871
Ni 4.9761682001733405 0.9529784231344361 0.9030017121844827 0.13268563529290053 0.4892889020125058 -0.2534950879735054
Ni 3.5285863129511723 3.2103582228580367 1.7456653056525058 0.39543669464703507 -0.5506801606357935 -0.20737001148066866
Ni 9.227065519077392 3.5389689285470483 9.438758383529647 -0.24399383335128944 0.5434625598414318 -2.020578809501675
Ni 8.244755745844838 8.391947302467367 9.642406104014405 1.3401528129275952 -1.4446830688322023 0.9903709400051977
Ni 6.463344182749586 3.0651214748556903 2.184203567602045 -0.29190196988647793 -0.30316005929880047 -0.8820943296842808
Ni 2.974610147423081 6.272233977740594 0.7304990722487391 0.22494812957374807 -0.5637686183886356 0.5661692574103282
Ni 6.328001348188069 8.384238717531176 7.632498621049168 1.3030805906656462 1.0901649667764 -0.7186634427887235
Ni 2.063927512688541 6.908081585431902 6.250822368792829 0.540659800285314 -1.3245413316425834 0.9570772109490743
Ni 6.176383809783995 9.382159297339056 9.796431192091733 -1.4313411003076575 0.5791756969723251 -0.3503739979804418
Ni 3.2600951931281568 4.923923173560344 7.2123945732197665 1.2765758595068981 0.27833580116626905 2.4819087644074096
Ni 1.3101182697236609 4.05559165199797 0.6460218333116369 2.3846948396585574 0.5374608337320421 0.4634595996542276
Ni 6.312510411952659 8.160071961091264 -0.0343871122039966 0.7242234533750044 1.1633545035861965 0.23598124745945806
Ni 4.1386525767649776 3.0461542987626915 5.874808476143924 0.3172828718534278 -0.6323507383334078 -0.3747611685755546
Ni 6.2209847970284455 7.2674344229119 11.303750924251238 0.6200292406535773 1.2343552602747903 -1.3975886864475606
P 7.612412040397253 1.3554938037798827 0.4378052087169709 -0.07662273086106158 -0.5952744023064006 0.11820441095758996
P 1.9131306250731277 4.625621222279542 9.383871599040791 0.6261253262489862 -1.1687227098766453 0.9081002668297393
P 0.280323244452348 8.876158930163845 11.65168011833716 1.3921711149764153 0.1966030027721517 -0.8689968730703743
P 3.9605160308531415 0.6575579704093282 9.485453413404493 -1.2156851946691127 -1.0779275441699436 0.9925314379916261
P 4.186619154322479 6.951354778141891 3.6593501005278646 0.8513614193767983 -0.7156799346803674 -2.862782473638605
P 4.1980898237729845 6.293128300067641 10.833943101015079 -0.5562221734999453 -1.4873178727835934 0.2691783030367171
P -0.2012558461636476 5.088827878104435 12.579527263668256 3.179545211322505 1.0389892152335332 -1.9177187422106392
P 7.924831029402109 7.268098320179131 1.551383147033406 -0.26916030531458807 0.2088548235563113 1.6278556571310612
Ni 4.76163717490367 4.9108388649186505 2.7579943003183938 -0.0737117278618537 0.3934132364591031 1.0629002175231759
Ni 6.2199520679460845 2.6422557988105115 12.97438108543394 -0.6399097816275883 -0.425412415073519 1.0090176085721074
Ni 9.610835022718916 8.968827923714958 1.1926757652298838 -1.0332212024015044 -0.34445403295158095 1.7924659090467003
Ni 3.1679610057089804 1.450689295264628 3.6140317354029876 -1.208467850985067 0.41370309705639075 0.3211999475196468
Ni 0.7929257011183656 6.351348402085723 1.6813318162986635 -0.9069622965705542 1.0562017224570777 0.573616971937625
Ni 4.306000792084296 2.5348335326542464 11.12872731885909 0.8964979067041204 0.6330616483575032 0.020884813868809193
Ni 7.685772688426373 6.6238413471028865 3.729486236413221 0.8655024867638708 -0.28134219209276057 -1.2809251376145294
Ni 4.229025592266914 5.502546525134419 5.241489210545324 1.0284047548494675 1.6311230150284233 -0.33811292122490155
Ni 6.316097301354787 4.872185290693151 4.69405519933808 0.8718315143056921 -0.6860333154585282 -0.12454989355964356
Ni 8.82835832692315 2.0795752024453806 2.063134524286014 -0.2153052071673453 0.30242755200815014 -0.5260124826857844
Ni 4.811613885853623 0.21900403310764585 11.80639399982924 0.33599587488189875 0.011264260059909633 0.7577205566911854
Ni 1.0733374652063443 4.405161225581676 6.95093154363403 -1.8243594153211873 -0.9218039895690769 2.0027505230710023
Ni 1.8248322885312909 6.4630675588882385 8.556229603323427 0.009371156802254829 1.8061770879852057 -0.5556634727829978
Ni 8.25862382209368 7.684712296957877 5.828721096684505 -0.673960186344078 0.9262247443445919 0.17559631861349756
Ni 5.112700517338648 2.1772971918637585 8.494473326277797 0.3486991813811801 -0.3249894964690661 0.791046938757457
Ni 2.569642035207028 1.0482476809822074 11.242157855283804 -0.21938374811209313 -0.8102165697073723 1.3872132567505076
Ni 2.9769522294491484 8.028168483205823 11.120319797633229 1.0195267356335473 -1.1462708086310323 -2.314209074933169
Ni 4.907399508242573 7.1331980837957705 9.022420108532712 -0.799196564447785 0.423740940908367 1.5550003637322316
Ni 8.406193431326717 3.852337659475862 0.5906472687472734 -3.4523891361362673 -1.3670216122939813 0.8608053383985176
Ni 0.5771609334270884 1.7152339146657656 10.54142719883411 -2.774368149459254 -2.846856289326652 0.4438906763833646
Ni 7.767146207639166 3.51766889122336 7.146482483697172 -0.354155576510061 -0.8704868273523395 0.8061303154531407
Ni 6.950653997693145 4.341666828607251 9.242276143133303 -0.9222927562800374 -0.5944056265482021 -0.01806894168656888
Ni 0.3871987174426849 5.812890835179177 5.126075281034755 -1.9481678027291156 0.6862940253190826 -1.6218811847151806
Ni 6.236438850082343 6.0725299914391 7.468648775496346 -1.2532664953569963 -2.027467309091392 -1.3747058683121163
P 2.269366833715287 4.924900577870436 5.23663077346054 -0.08589052931623271 -1.4386957409005157 -0.5978359923859897
P 0.9014996446173705 2.183309150450358 7.476907841916618 -0.3379324297829793 0.3585907294632792 0.4299455270571821
P 3.443524475587091 2.056928928996472 13.175789074721328 -0.030621838650915004 0.7209486392784745 -0.8341627961103246
P 5.5059305570382255 4.4821640877851925 0.7969284483920509 -0.013593936634350781 0.5430236725318002 -1.3073720189521483
P 7.0142774858028645 0.2762052372364349 4.648021300491854 2.242475810953925 -0.9666525133423352 0.40597564650514595
P 4.616833804284099 7.29230290804696 6.882792632027595 -0.7605287155639419 -0.41632665072216685 -2.028596794710145
P 1.435327450164513 7.957823035265381 3.477267976273688 -1.2548585224344646 0.17316225525070822 1.0023635935906996
P 8.211754519186188 4.109173693940807 5.246023075632795 1.1625818870862301 0.7687845278148308 -1.0834014228003213
Ni 7.378093188245921 2.3863234022926316 4.245151841303883 -0.7408752029990725 0.19150579075490243 -0.425434526560706
Ni 6.440605701346894 1.3044659221568122 6.753316067485703 0.28431670134005227 0.29214108248047754 -0.08308134200221176
Ni 5.001949544050843 0.7535897880348781 5.035385070171809 0.7527657837890713 2.2653763697011824 -0.19946026971528874
Ni 8.30691312748942 5.8276994325565985 7.814513433497083 3.5586595146604325 0.9587841663378519 0.30332255301859373
Ni 5.853637529955531 6.8479435579751495 1.8762612747533143 -0.8397024949816312 -0.2366250516910441 0.37813934101916813
Ni 3.508060822439254 4.411966172570803 12.946080620259105 0.946699467259176 -2.1921202413195084 0.062027349545389944
Ni 7.2685685807434215 0.05235567615753431 2.3883104836966385 -0.5967533008447722 -0.010739240794375052 -0.42716076522319335
Ni 1.5595500054998959 8.811816220014624 9.248214335356879 -1.2355770484970334 0.5056601442816775 1.1445173162750355
Ni 6.157481179258643 4.20510684905581 11.426736048846864 -1.3539550089180101 1.4521703783481827 -0.8233767612384142
Ni 4.705906687637706 9.000418368680739 2.905001441033359 1.1648465147506906 -1.1005835910065624 -0.09068872203582447
Ni 7.630669215246129 0.614335492073921 11.795489487214958 -1.0344175367024508 0.5665412960377663 0.27607708703907935
Ni 8.799893731590585 7.344916766475085 13.220904582347885 1.1203124368940578 -0.48046976105897893 -2.9674415418115925
Ni 4.963572593686691 6.144101805164846 12.795469992710332 -1.404548919815478 0.7833994495145282 1.5700495447558704
Ni 5.94782795474405 7.605837613292581 4.874827970648549 -0.7531866733765737 -0.29690867907244994 1.0015583240805848
Ni 3.1389616042444777 8.558733049268614 7.638638748691525 0.5568076136897702 1.3015446136370938 -0.19933608543259862
Ni 8.704744344082732 1.480712205016113 5.981127013093417 0.1645027798034973 -0.9045696279686614 -0.2102941271059991
Ni 8.301482079011649 1.0065604650772737 8.306885465103285 0.41567564740172935 1.134708814825046 -0.0627274609362081
Ni 1.9782202196479841 6.025577701373203 12.055022604328032 -0.8338882022926993 -0.5983005907272341 -0.2159616098044216
Ni 1.0076024149550127 3.068081350172099 5.002806155941481 0.6874600206027257 -0.6097769667979499 -0.7625256913893126
Ni 9.061865749081198 4.454584688808936 3.075086388420933 -0.23338546170782387 -0.5987747021501753 -0.1820569866371768
Ni 0.05206983150080949 0.64196468334522 3.708527368518526 0.6006966017632365 -1.1537295789019228 0.9196810296888032
Ni 2.294161552487321 2.4376740117539404 9.321941048962513 1.2182791806485342 0.6856193678495611 -1.5546296106563742
Ni 2.2791593184069567 5.142363816070381 2.986717051754684 0.22351422534069892 -0.6233472492832168 0.5409850448352167
Ni 8.30769689509657 3.2345904731119997 11.66590503936714 -0.19091957923412925 -0.13756764597555018 -0.25297983889998366
P 5.3595227680228446 4.051765021916008 7.588367894369005 -0.12162706348589375 0.3616737392639771 -1.2790749717796681
P 1.461320872335716 2.808792584136547 2.823137375506444 0.8738752842085982 0.7704336333824797 -0.28354151373692454
P 7.367599923105506 6.407558370711354 9.76331286133178 -0.7116769841685614 -0.18297975556176227 -0.7859396994378787
P 7.054102101041397 2.1347893251701633 9.765809852720203 0.961857405946537 0.37230242262241686 1.0792763448883542
P 4.8933470160861665 2.7760310981577305 3.712724674574692 0.5432854108336191 0.7051360977262501 0.11751278420720405
P 0.220023853076477 7.915564130046998 7.602471100899994 0.6359816502177756 0.12005869055750935 0.5617415606562777
P 3.02466062473606 1.0058781262192855 5.896631332565558 -0.7129211409883077 1.6490824277203213 1.011022297706962
P 4.088675865815024 8.213552574284941 0.25700108670221566 1.9902585612515789 -0.3698148803138728 -1.6000023823642187
