# total energy = -381171.71961546486 ev
CRYSTAL
PRIMVEC
9.24506623256397 0.00000000000000 0.00000000000000
0.00000000000000 9.24506623256397 0.00000000000000
0.00000000000000 0.00000000000000 13.53108893697032
PRIMCOORD
 96 1
Ni 0.29526799630395906 9.183336784592523 11.344383926428563 -0.7675236588245362 -0.6060192995277305 0.0042808867635410145
Ni 7.365497929274707 5.4056086334705 1.7450367333719525 0.16013961773879518 0.45016391098658604 -0.7049643480350762
Ni 2.419692657834191 4.207401842761824 11.271234189997681 1.5199189466480663 -1.538223658494525 -0.7933331636884725
Ni 2.6114630637573426 8.68745917467592 9.609995660180088 0.740284620602925 1.014859412064865 -0.3050030260448102
Ni 3.179526149711546 5.57595822126108 6.266017350337335 -1.151138678246295 -1.0735432990593188 0.3417070663340631
Ni 7.61497603773714 4.421554553690999 10.149115217723569 2.8655165847403166 2.3429840901833328 0.49877113047132815
Ni 6.004254398053339 6.664500037999721 9.477945607684202 -0.9065154388411226 1.5070562317527851 1.4380593928680976
Ni 4.409119939798764 3.3625877033770877 11.917709304001695 -0.3113281969318896 -0.4778534064820545 1.497022758776183
Ni 5.419836790184366 2.2907424759985777 7.958458902718264 -1.7661529821837842 -3.0128418243232633 -0.09847787906294007
Ni 4.333264172523083 5.315561689745316 10.299282826237754 -0.3255317421257813 0.04893349247590927 1.1155571815972596
Ni 7.092676028932799 3.6008238114730085 8.208689559560494 0.8861769843940867 1.4365745807924548 -2.445531768440272
Ni 9.255882818207668 2.899437627422205 5.544255040622229 -2.1065783535919462 1.2205425227614142 0.6409485073047477
Ni 4.586190690637414 1.1429582757495689 10.70372673251554 -0.24622143713022757 -0.22105573649787735 -1.5052163503305689
Ni 2.9803596909156895 1.6744201450499734 6.9208814373122145 3.1994478637837025 -2.4381673576554013 1.271837059270332
Ni 4.775649830037845 4.490217659547975 8.158205027158019 -0.22379267581306622 1.0873007578547274 -0.9022129548110267
Ni 7.56389704758502 7.925323661341936 13.08200519228902 0.7606950659384771 0.17776324435782934 -0.0013811966182427826
Ni 5.223517811744501 5.134201228240496 0.29243345904049484 -1.0758408368442438 -2.622150614781013 1.1055201090762314
Ni 7.048706494604567 7.19831015408721 5.356457239598329 1.5649209652800533 0.018438152100529532 -0.9328985568203417
Ni 2.237823717694373 1.6934372459989164 -0.220128721650321 0.633393063554993 -1.1175623849527463 0.15404044681959278
Ni 2.8768704210943636 0.09935487626548356 4.802305204591075 -0.37148095516238605 -1.822355754627597 0.8825519860469897
Ni 0.4753655817807639 2.389747888765826 1.4703824609308314 -0.1905118022727493 0.047023162827073854 -0.7529509032166839
Ni 2.430731266746703 4.952794541405222 8.746170891392671 -0.41843161288031167 0.679568790780107 0.33198726794313793
Ni 7.884682350806421 1.142569982973752 6.76298680255927 -0.21060651614009537 -0.5558671041533717 0.7477400484397058
Ni 6.946326632714148 3.89224678478977 12.236136190863315 -0.6371417319641479 -0.34311654508708006 1.505769908841194
P 8.255612892504763 1.135479017282046 13.23287727483933 0.3244583065559444 0.280897134135542 0.028427144992441363
Ni 0.26890476583920186 2.714388384547124 12.107726845394016 0.940837094941128 0.0805637177866806 0.8685415307005107
P 3.291946153376663 6.405887804239497 12.688832870589238 0.09909442960101643 -0.12576396847240276 0.7497372813753926
Ni 5.756042863645357 3.402923926731603 10.19993719503836 -0.9758218385464292 -1.6560514028389868 -1.0348412545034307
P 0.5375025954841864 8.216700409328242 9.277077132221013 -1.2424580918875827 -0.8513812168711401 -0.060208551169096305
P 7.98421473234085 5.658673827576195 12.355061023029975 0.8623893950561857 1.6878173823966738 0.6071822094875801
P 7.20231326770456 1.7019149716042545 4.810883701416803 0.76871485091916 -0.8523422952328289 -0.98652482678623
Ni 1.1317532556474206 0.9990588220450008 6.131599636415575 -2.1072260144782744 -0.9498693803467253 -0.3056581431303058
Ni 2.5679650277997457 8.53062587351021 7.2258447344256815 -0.17119716110453745 -0.24947439684988645 -0.8076704062467509
Ni 6.124884020407158 3.392319835925362 5.771509859215401 0.7342947215680774 0.3287587337035112 0.3975041186990251
Ni 6.126122859263337 9.013911703411031 3.847619001755868 0.4907996822300773 -0.10461510230892952 -0.1960461018274172
Ni 3.6773822037715966 8.163189966794222 2.96418822130952 1.0166522422992297 0.12346977312158736 -0.8340627801973506
Ni 4.500609113834126 7.895841145578116 11.201076156953812 0.0869336258687664 -1.0639430569653936 -1.390867051453011
Ni 2.733202094042068 3.166675507845221 2.1964742350962974 0.7534059884762315 -0.7260049707554594 1.0194133499841347
Ni 7.9815983786371305 1.67186850680889 10.831622976816794 -0.1687402149236126 0.7939054912521747 -1.370418296680356
Ni 6.848744960124895 2.5563624698556895 0.9588030307654762 1.0223624053101295 -0.1472761315125657 0.18264216971668545
Ni 3.778162669228294 6.935870462965361 8.499079858994904 0.9198458374014417 -0.6622526680991627 -0.02252800589918701
Ni 4.31183410932442 4.299168368779912 3.9334871756079735 -0.8963492969413983 0.7717310120376645 0.246770110544846
Ni 8.947541373944594 5.722695910255548 4.170051775754663 0.313664301264234 -0.5875649494772849 -0.15386561180462532
Ni 5.905045593832091 6.396226710174527 12.201794468362126 0.9899207398416565 0.2117079767343902 -1.9691971125955894
Ni 0.5993345220066099 5.1335540736141345 11.321638290325167 -3.209833835003717 0.7549715331911384 -0.6067770036293614
Ni 1.5908355025223153 4.138655531310031 4.3753042615581474 0.83964413093987 -0.2521691700732302 0.7097167751183971
Ni 0.6070088513686505 6.492153515933511 1.4632924197457347 0.3437433800378015 -0.06170776142244211 0.9614164617543765
Ni 5.108499944507846 0.3413195195158572 1.5000702171618696 0.3429399102998997 0.6395603687079695 1.3185630025719615
Ni 8.857189343038412 8.813303014304998 4.78655530999865 0.17248374112644488 1.4964144357682228 1.4971939942467247
Ni 3.409774520704946 2.8293600264533243 9.41164369170684 -0.4334525117691761 0.44888170184005277 -0.29361715280537176
Ni 2.444487925089934 3.98980072218075 13.624183017695364 0.09964207457437033 1.288611964735826 -0.7900262108024265
Ni 5.031109496261078 1.0649206728764395 5.7446640363007 0.6867784211546688 -0.44581797531306444 -0.10036275479047876
Ni 0.19198858948289638 5.948552874855778 8.91509304097882 0.5093293656031487 -0.12095857666395941 -0.0669075604558267
Ni 6.529854895452125 9.054700935004 11.06116410025424 -0.4890886130762416 -1.4603696263295236 1.2626152835617481
Ni 4.45429133271881 2.47444193922439 0.641566908416365 0.11672037021289576 0.5457822091135439 -0.2466335849669817
Ni 2.7657817069463335 8.310315948564508 0.6436618403925586 -0.1578143120397282 -0.49061430569214853 0.6423057926635906
P 8.347721485968213 2.119089333889184 8.763139285695877 0.06556595882626771 -2.444087579794578 -0.5221460577518426
Ni 2.5602916229443142 8.755613801897898 11.890241288139078 -1.1826745440710469 0.40088331958390316 1.7667818740170345
P 4.519801871038795 7.896802632451567 5.121029782580818 0.9621875355924462 0.08671173966594745 0.28318387328718975
Ni 2.1538877626552613 1.4613398617873405 10.870146242710886 -0.5223108654644811 1.597439506733049 -0.044132214432524
P 4.652524039839488 9.083046307638641 8.751407296826546 0.2941388296367966 0.008701127318423724 -0.07112879762602589
P 6.734799520554782 8.111926075320286 1.5656953943013816 0.9322115580556462 0.2941725110882095 1.402295605004927
P 5.595539271241566 3.8990141731682955 2.1072639698523377 -0.38709629310213983 1.1030613631230937 -0.30763223613754115
Ni 6.6125797468333305 4.826201851422785 3.8707843638597894 0.44619155660239923 0.44258944107343773 1.742352794440393
Ni 1.1701665052550325 1.021173020134389 8.524301323797438 -0.8295754338499584 0.35507371744895627 0.191464910214638
Ni 5.305456832507982 6.61225616952015 3.48046691856887 -0.121009741616869 0.2984094319876925 -0.45160347164659
Ni 4.9725882279058 7.349809052118482 0.7381279257091842 -0.2314386223940982 0.05447550534006102 -0.055817621190252256
Ni 8.29545912735646 7.692218564926454 3.0644130582941553 -1.366041507768899 -1.0487745767550714 -2.414970093603331
Ni 6.28696851911249 1.7362419019996969 12.299366895885287 -0.8361332895731342 -0.43263207275040977 1.2817736016577537
Ni 7.633826727496447 9.100565707880863 9.19885370351946 1.1468464786288444 0.19489116228736758 -1.720908508523688
Ni 0.5705694233714418 9.09162572897098 0.5632177468159729 -0.9567959322632296 0.21057874822595346 0.13993280377361708
Ni 2.434318352389965 6.281319783730962 4.037298173729262 -0.17279947259465078 0.8855565772012685 0.3704962226516135
Ni 6.047096034318484 8.02419039811782 7.249064642419539 -1.2286908629001614 1.8695223850110705 0.7916573186479463
Ni 0.6075487632283579 3.2679459618047355 9.549240783857252 1.045719077758199 0.7368105460113956 1.0528281779991544
Ni 0.02909792101443992 4.489792386507795 0.1883645235752709 -0.25087359119025826 0.17515357464912415 0.1647686318703743
Ni 3.3059339383721666 5.84198499802619 1.7058099179483428 -0.578855594628745 -0.09205320648351888 -0.048862530028657786
Ni 1.4137370164853924 8.35818690078309 3.0440212160174984 -1.783884338025276 0.05809638992209995 -0.5915504164875941
Ni 0.7129822704485961 5.13182524625514 6.754029258023815 -0.49222895847743614 1.5651595636534206 -1.0825922966354646
Ni 1.6583059948535672 3.2325743389410233 7.406201181753031 -1.1120321991631363 0.6333897211208834 0.14478190433580226
Ni 5.56998590856637 2.217096279518617 3.465298538633561 -0.10791177078233027 -0.4944424211889872 -0.40525470917872136
Ni 4.528464497965952 0.2514473075397906 12.86791627231587 -0.009566560642512557 0.6634261195819736 0.05709211702730167
Ni 8.05721377419445 6.8663475659619335 10.477690413633146 0.34746556608439516 1.2124463760168411 1.2877655575751308
Ni 0.86579766589121 7.095578979685336 12.590177845826831 -0.42010591525894103 0.03469343761712735 1.0334088929322782
Ni 6.933096943138096 5.956106093852029 7.7338287583882925 2.3056298179045904 -1.1443157417871905 -0.6899002546131021
Ni 3.134964931153498 2.2339500350022936 4.435991648898519 1.2876817396120726 1.2588594160637416 0.45172714170864786
Ni 8.07536183893085 0.9207494142287996 2.449871327074655 -0.36605669882302116 -1.229465536282657 0.4181588188348992
Ni 2.2853156222032305 6.715689968944931 10.752059938038668 0.44274062193932145 -1.447309964932088 -1.0491281034397482
Ni 8.630897860331908 7.830145705936312 7.263326081371333 0.7162404351695278 -0.013171247274635383 -0.016970309305751417
P 1.1144834721896544 7.592196194889208 5.780481271349992 0.47977067810942536 -0.35016625284500985 -0.3906670411725336
Ni 0.9867166588136743 1.727033816173179 3.8452374727308567 -0.6229749535454625 -0.9584473518237235 -1.5551561725838055
P 4.0159457690857625 3.2990278740022783 6.287951269637951 0.46149399128742463 1.994354585697823 -0.4087735209652573
Ni 5.393275715305264 5.883060826667975 6.064268744582296 -1.1257253803795129 -0.2900104092907199 -0.6740463182999811
P 0.9673852256176414 4.3884109917551894 2.3945701152388295 -1.2040823203228619 1.2163719363234924 -1.2409696802675143
P 7.876565182778628 5.0321911689937115 6.023053315442537 -0.3223024365552062 -0.23283550274162484 -0.8215111687845852
P 2.605407545467815 0.8506644172070464 2.3898200002813352 -0.06911588096105517 0.33074002579959816 -0.34192586721308854
Ni 8.016748119914661 3.208037933535824 3.1744478349078253 1.162030128347818 -0.3512047214118532 -0.024462761028054645
