# total energy = -340889.1081073142 ev
CRYSTAL
PRIMVEC
9.11871227927471 0.00000000000000 0.00000000000000
0.00000000000000 9.11871227927471 0.00000000000000
0.00000000000000 0.00000000000000 13.34615715428155
PRIMCOORD
 96 1
Ni 6.295896386461553 1.8663542091548477 11.21784538221856 0.7740159514170993 -0.14447208640486733 1.5728355921414394
Ni 4.746572448958006 0.15690750684149493 6.150710072451783 -0.37242017914720377 -0.7229538426339613 -0.6407986119904447
Ni 2.895555913945808 1.2934984630255302 4.890245968591875 0.05198667747993628 0.8455815794702277 0.7427785906693725
Ni 3.0681913758177677 4.351258031935337 4.87677945421978 1.532528922102593 1.0899099133428003 -0.8505183546502126
Ni 5.056107139072292 4.371811609531966 2.389322391986294 0.5605681091734668 0.8470339956460381 0.5503492596589361
Ni 7.45541360919104 6.274978060371638 2.4860691942165354 -0.73632743572739 -0.7016206283738239 -0.7568674646622706
Ni 5.095600282182765 4.449721887697718 11.748088473748583 0.1358907724937595 0.03057530168369573 -0.39600696532820834
Ni 5.848286154214096 8.219662008459517 12.635527941010489 -0.44335794380834614 -0.801334436726394 0.09904223620684233
Ni 1.865214370113331 6.53206191715149 0.3012722248701397 1.1225639519323956 0.5390865422609231 0.2989699324768529
Ni 2.718990287058699 1.6613929120654733 0.49009340113163696 -0.5272728374554467 -1.0725505961287465 0.823292429054724
Ni 0.512105060830175 9.133211084742022 5.11504867184474 0.08859044474589904 0.22962445200349485 -1.7287460022902355
Ni 8.926872862090496 2.6021887007963955 1.415746656163817 -0.6314791343617319 -1.6179885345289942 0.47956241875336114
Ni 6.972769284163523 0.82367687127946 4.965798147748538 -0.8385534689788525 -0.6566929146231981 0.1760341774818646
Ni 0.45886637075024433 7.33896765270969 2.1299670639645076 1.1688173264729806 0.13893033065103172 0.7212016358295451
Ni 7.885142046555184 4.013108822522814 3.559112756029162 0.4777359070675837 -0.8102263398993852 -0.020845990211073778
Ni 7.65078202090701 3.7321612955697674 12.587334634463929 0.2546088898629744 -1.2275377231323246 -0.6332863627737997
Ni 8.30859680983482 9.05393299972645 6.923879307994788 -2.394039771208567 -0.10880394357929649 1.1438133482294752
Ni 6.8350858466606335 0.9411058249502144 0.5638355158903708 0.7954923761233202 1.416221985278032 -1.1975329492401183
Ni 1.8176055730272598 6.687326232030735 9.287070206050887 0.3025795042049821 -0.6571156039829135 0.40785229470256856
Ni -0.10760901236027928 4.981671090305084 1.0566362627134183 0.5869589404621698 0.5463252261012075 0.6360549266578723
Ni 5.96919116102586 2.06600841566692 7.047331171160916 0.9938015629533015 0.5688969407541364 0.21221936915317
Ni 3.4443564969429565 4.397918482938866 0.37469062534108283 0.11851320044726041 1.5743409730423725 0.9303647346548944
Ni 6.198526776179028 5.413259744984983 4.703119049081689 -0.22262488075721013 1.6912212658719001 -1.0902372147752322
Ni 5.214490053569127 2.8597740867545145 9.433157448839069 -0.17271179797685093 -0.9373990157938565 -1.3921775427343186
P 0.33671665970514425 5.652671537265158 12.290609911433823 -0.6376143007251921 -0.44857934010828554 0.5613091011045495
P 4.3098864340844445 6.32510362206138 12.736585158560128 -0.8290799822707787 -0.5331388093179205 0.8766911563908385
P 2.374111467945061 8.560236795352386 1.4387422249229926 0.17069810998093182 -0.19831972835294234 0.131546893702767
P 6.416263389245722 7.745188049681593 6.004956574534955 0.5238144465932011 0.9921696837768332 -0.03992691810192479
P 4.736122404625381 1.1198508240847036 12.571665951063622 0.05601379636145838 0.6370687126343673 0.21043090979417953
P 3.8736381174028254 6.31237389964572 8.382907932243079 0.45925173222046717 -1.7220441647900278 -0.4406395164359186
P 4.872529222401773 1.0671173106679732 3.877939414009893 0.24395989478956048 -1.1873166708287488 1.186109537894525
P 0.10407004010417811 5.747870894012636 3.7726921481436366 0.9662676191990905 -0.4800211035573347 -1.2665693831134897
Ni 1.4295587697333003 0.8626493359157672 2.9716688939108966 0.1617103046600247 -1.4290481905084227 -1.7805383043711784
Ni 1.72611753219896 6.718867857987586 4.882464971358865 0.21937783457482218 -0.7542333694735334 -0.5805034146448131
Ni 5.962087684119127 5.783014411340681 9.383296329806962 -0.7715186389165422 -0.8696072529608636 -0.007377009190361489
Ni 8.668931846351423 2.44439850260115 10.373207326901223 -0.16140460049414784 0.7622935207738485 0.4754519961294134
Ni 2.4593805469628456 5.200775510221598 6.9804809791828095 -0.7187408329938784 0.6931169617781869 1.1420002062801367
Ni 0.4676075683918279 -0.05082496692561488 9.20312334032126 0.39485125445721025 -1.0906606754658958 1.2759081440159121
Ni 1.5101864241740288 1.3830715742640816 11.654504952826358 0.39264447661387863 -0.6579129030732283 -1.1127899032647675
Ni 4.384240414440665 6.876493919360853 1.696990541267658 -0.01147611896039959 0.7215286801516606 -0.6424276629534355
Ni 5.547186273007034 7.793498987617237 8.139875099295812 0.3264483404027797 0.6815151158732006 -0.07377986209562779
Ni 5.216395864446542 3.0871309413316097 4.664562397727727 -0.022228472380897202 0.07429099740409141 1.0221580026088075
Ni 0.992763330311753 7.53686194774166 7.180126066982549 -0.1583079638466951 -0.49665562679022207 -0.23152475435000125
Ni 5.199590077618421 4.5355289707430995 6.859778407784819 -1.5236377902605502 -0.6032839028744384 0.818529460448442
Ni 8.131629959605096 6.932017758751217 9.381147049310277 0.02921313122884646 1.2114968676193778 -0.6050469083121321
Ni 4.565948995083098 0.27891770158791335 10.254533668997134 0.6851480846400975 0.38314502176387566 0.12017259042755433
Ni 8.126514361986768 7.289626300280513 4.691054080795042 0.36170382117096417 0.8285025125007538 1.0580387756658165
Ni 6.94339791174172 5.929916867011359 7.059156317313228 1.6509863296112532 1.7849127792897903 0.041497090802522084
Ni 2.4448817943547527 5.341796396438049 2.50542092552779 -0.47368204871318426 0.22335096028995727 0.8422849109968268
Ni 2.338119910370129 5.328419245446809 11.412245386684857 -0.14086457155926707 0.14202053954058122 1.3077204034305026
Ni 1.5435882674466352 2.984809870252735 3.7535665608982187 -2.1620977268154893 1.3436392288142989 0.24289057298478164
Ni 3.6200193713091844 2.441498752079531 2.757049056719326 -0.41711546517204934 1.432884019314745 -0.391345555296797
Ni 0.8684688981261351 3.31429630294973 8.027633781070808 0.4409071682750084 0.2449420561971717 0.14952764655090375
Ni 3.5332912983182587 3.0240020958562464 7.320407425628864 0.0036849050507549446 -0.9102815907517743 0.5996216235315028
Ni 4.425894692373853 6.675243938190658 6.112206309629348 -0.7126439760675211 0.3978812995327857 -0.6549479069076333
Ni 1.1082062284365686 7.540600619797836 11.459744759222943 -0.6044007900877011 0.6235243982910293 0.11117784312811176
P 0.35459389523229284 5.621002249335658 8.065522942682058 -0.631277559873887 -0.33871893024001665 -1.3878431770250228
P 8.51286508478695 1.5804187465561241 8.433796730155018 0.11726055898708193 0.6857101277911545 -2.3371556564270133
P 1.7037037372865749 3.429684488800553 10.35617721974973 0.5349154416023691 -0.521620781375992 0.4705365611056671
P 4.329427834612208 6.044566437163279 3.7745204499662295 -0.8867297715737632 0.2023301350639161 -0.1705099052295257
P 6.807912083910874 3.96843625080769 10.386539796202037 0.8451185237908799 -0.1099668535391461 0.02837829403237693
P 6.307349489150714 7.81821069803732 10.535856886898262 0.5395771087440966 -0.3909200377236042 -1.5463167199153045
P 2.488733681959985 8.49589516113685 5.8044169410554325 0.5268025826872476 -0.1660166453448625 0.8153160957174669
P 7.066272560417225 3.9095020130051084 1.3202710024326754 -0.5283398452673803 -0.5667719239913336 1.9374211057355732
Ni 5.244718584950151 2.78211001382173 0.520642911186752 -0.15888414806513929 0.2361763941893997 -0.13795433989100758
Ni 1.4006524516404357 0.8953709232483966 7.179298087902792 0.7235811918053151 1.2532227866032546 -0.8796006167281497
Ni 6.832787931152935 0.5446205652640982 9.185105676624197 -0.3089506978386486 -0.3505688876000672 0.2074116633518815
Ni 2.3462811579073883 1.6684143205612165 9.231923881351072 1.0737104207648025 -0.136069721273785 0.635730196328602
Ni 6.3660466404326606 2.0972217679798146 2.8377669864121424 1.6422283809129654 0.4118215637629617 -1.7052407200794437
Ni 4.064994295692656 6.8787462413068905 10.681676951415117 0.3048541591717717 0.7103487522754411 -0.8521983134557969
Ni 8.252471135430536 7.1405262349377905 -0.01552643148792444 -0.5080666968406412 0.5859664946419134 0.6651248474406353
Ni 7.664523920391535 3.9737980536589843 8.154181447073697 -0.24788776908905696 -0.7418082563363031 0.7474878232195836
Ni 3.379139466343535 8.53674699238481 12.414502208405594 -0.7933125948631822 -0.2832810609866863 1.4428521862710506
Ni 9.333184446185719 5.031121867282246 10.152875528304804 -0.6028941236351875 -1.2813604253797353 0.29163868892276223
Ni 8.829010841342035 2.446814961369165 5.792085706368688 -0.30611297127953735 -0.652263932317567 0.9327018674285035
Ni 3.2053094531560657 2.981271809867867 12.02906518058109 1.6786531993989025 -0.5422163461391565 -2.5756241890847
Ni 1.067509415298255 3.4982207306888715 12.793733040616846 -0.6833465126549845 0.3126224902632809 -0.30210950654709906
Ni 3.1440955372704504 8.357163071715764 8.379064394995083 -0.22842940325412917 1.2926233998880643 -0.8482868942165326
Ni 6.081314847861778 7.82008915277774 3.5971359627116946 -1.189802670475396 0.6061517113405368 0.1603702456923625
Ni 3.6143657696632614 8.34427833119046 3.825409247878169 -0.3789842055179667 -0.8786176839895901 -0.4531443337711486
Ni 3.6100890935794907 4.39776346482922 9.75255767382549 -0.12855901471903666 0.7346317931925219 -1.5903448046697963
Ni 7.299574815434871 5.852043063694936 11.48977359080389 0.06296528797862705 0.686846812498759 -0.5121223549672536
Ni 0.5510082232527581 9.1042318169505 0.1382688588346132 0.8572525880502527 -0.5724538048674592 1.2225847500024234
Ni 4.467585445156368 0.5407296107119767 1.7647225127282822 0.7263014189499556 -1.859041797194721 -0.9638314989537724
Ni 6.2033049814410655 5.543885299142801 0.2955803246324217 -0.30722471628647735 1.1917729068278895 0.39289567339273623
Ni 8.090595754110494 8.860333618202915 11.45472673182657 -0.2415505140171195 0.07811011403986547 -0.22103336790037414
Ni -0.07227582581572674 4.808160232049239 5.852116013393592 0.653639729619171 1.023952632615385 0.40010350399508515
Ni 8.208546298126645 9.234337604505388 2.5360370021829297 -0.2749216332783975 -0.46605949917091993 0.026686508152250814
P 8.558704851680588 1.7598020555538627 3.7948734158915522 0.49835692575204493 0.3706774854244842 -0.882584381946822
P 1.8466669092297707 3.433851740336338 1.5821467425430635 0.17623780885223841 0.27407548322801834 0.02237605370235501
P 4.248526618801516 1.1124829045203395 8.093817395177437 1.2610286558009187 0.46576613630021724 0.5225101259594808
P 8.713385568970576 1.5717012575666043 12.508512485064962 -1.84140068707419 1.4314493437507476 0.6031095820801032
P 6.659432091006737 8.171551682195178 1.373680212433217 -0.2930342837187082 -1.969914707487904 1.0963700671458472
P 1.9002667003180538 2.9732655804402537 5.986685410635059 -1.2206214556284656 0.07294862444358403 0.5468494740357936
P 7.007393034888636 3.926873159997823 5.902444922368338 0.4144016657853121 -1.8790912596464282 0.6671521622833091
P 2.480262398203432 8.903838994739525 10.470874207205776 -1.2442887173384183 -0.7766744720858688 -0.9027104632727356
