# total energy = -340865.72314661444 ev
CRYSTAL
PRIMVEC
9.20587480445376 0.00000000000000 0.00000000000000
0.00000000000000 9.20587480445376 0.00000000000000
0.00000000000000 0.00000000000000 13.47372832040286
PRIMCOORD
 96 1
Ni 3.5386185574069224 8.670055966751242 3.7090883421207206 -3.1212017383866053 -0.7387095628063213 0.3911781764809973
Ni 5.396216777398229 5.11174604336604 8.318383268013653 -0.9142246345599223 -0.08518064773340168 -0.36645239159954307
Ni 2.5014294787210973 2.311549107207297 0.5985475610920331 -0.7794309517850835 0.26968506746980647 -0.23535595517063337
Ni 8.06675817431522 1.1765752274829966 5.427985330392362 0.11627582647630942 -0.8686068367208074 -1.006405624870557
Ni 4.081700723445594 1.4095759160806056 10.014145893170092 -0.75647434298891 0.1326972052571263 1.3328295397933045
Ni 1.327588396023304 5.747236779619756 7.449112105575436 -0.9933629327539858 0.1612901864034706 -1.6309864894505588
Ni 8.360674135787203 8.601002700644145 9.548238415896789 -0.5611738610782657 -0.510833975173133 0.5615034765035426
Ni 7.654795281595229 4.680874284017067 11.820272226551877 1.0315314734039074 0.292086060872826 2.5533895460562155
Ni 1.5138968881544148 8.539719192781865 2.154206899812353 0.1428417498902959 -0.6281246160672022 3.5261342883392177
Ni 0.4453065708748934 1.3768950609039359 9.397157123883717 -0.4359300267753912 -0.7839735768504433 -1.1232620064406849
Ni 5.2461794315758725 0.9936544972406222 0.6066496514134379 0.06283621859993048 -1.8934547274569518 0.307326017751032
Ni 7.409283809283508 8.626622649927715 6.815967946782152 -0.8444801188759327 -0.254034248306427 0.2782764086832433
Ni 1.45977555080691 1.760255300938319 11.794955150545862 0.46105099021273505 1.4181523695315252 1.92906862000582
Ni 2.1391230741202474 7.035856708047893 0.43691633667545204 -1.0297504702440845 -3.4888064984230365 -0.03486081643292705
Ni 0.7520435540382977 6.290300533909032 2.505291343156763 -0.41911346943868466 0.37146038633709577 -1.7643462679923487
Ni 2.9075190233839865 9.023718055010995 0.5557236731734886 1.6488952514101796 3.0114655128010264 -0.11152211384140795
Ni 3.951391567100309 1.675809812336744 2.6452160356237466 0.1440134016008939 -1.96052889539763 0.3567973850082823
Ni 7.5670264722278 1.628463998766712 2.9358040733925272 -0.44628025966146373 0.9777277973198905 0.2651154458212531
Ni 7.521144392734695 4.005052610712931 7.312717866055002 -0.026508587813489828 -0.6903972488541787 -1.4050957934578834
Ni 1.056880444664106 2.747115862652073 4.900866151079422 -0.029533490682742688 -1.090113030492542 -0.6045116046339524
Ni 2.915620193117922 0.9927523215202521 5.739053677601012 -2.4332277542619387 -3.3124092811747983 2.384265979651255
Ni 7.051580342031484 2.4130438757489263 0.6269329551347778 1.052579295213142 3.168625221975891 -0.12756194091309
Ni 6.785917210006602 6.854804770369142 8.889103311069618 2.2310179468259705 -1.1681187577440593 1.9239379836474735
Ni 9.249142308732436 5.4505866733625705 0.23141635756214304 -0.1584923119433593 0.8892347973838041 0.4505269507529596
P 0.7143344501017694 1.1565432441409025 6.536698531954136 0.0021180747842673197 -1.0218137318955112 0.05367563514658498
P 3.7336634246261067 7.302090604304031 1.9811502643085142 -0.5231151065333314 1.9130910136306407 0.6730847257176601
P 8.947419765516845 7.21248982587177 7.83070205590546 -1.9635959643587277 0.22398499432953037 -1.485671852539738
P 0.8322976078900313 7.10244279973602 12.194061118663111 -0.14078383892000268 0.9351413301079314 -0.69602230835044
P 2.8863086880805935 6.135918015229382 8.745109621986273 2.0182046528425435 -0.2180424035928503 -0.10931687865997304
P 7.275476420553115 4.420265177201195 9.366127802627807 0.2718730762600608 0.10210879094730803 1.1469585787266763
P 7.045541288229824 6.948990074400835 11.215167320912705 -0.9106155770524252 -0.19247175421259755 -1.7874715411559021
P 5.723909093135902 3.820023735164794 12.901445133368151 -0.6173977165680012 -0.7849040590845128 -1.142668950212387
Ni 5.778536753591777 2.801568611488693 8.801470748647716 0.02764244430761691 -1.166180917291398 -0.09563475318719014
Ni 3.4181504811134293 4.0032482592721905 9.639023990402638 -0.1860668791275183 -0.749000146099052 -2.0175929874004734
Ni 3.368668904613542 8.169035442206152 9.52429577698313 1.5860502910595007 -0.6788062015824696 0.6927955738830263
Ni 4.814985466612483 8.7184788676609 5.598886870629479 1.811036987180668 -0.5097551402866576 0.6492246312706109
Ni 8.191350482473263 0.9582026737799586 12.228931130842883 0.7209944049147453 0.6218382688378581 -0.4291088900884996
Ni 7.969286373016466 1.3496456717988814 7.83968883078531 -0.1363602559310103 1.3390600940840487 0.7616340328129786
Ni 6.03059360281353 1.7567478626785131 6.523049902127395 -0.13238944420872037 -0.10932767729325044 -1.470773852381983
Ni 5.714408630447924 4.920650496392149 5.77892247974161 0.5434797862326125 -2.8049169687803888 0.31736566137522115
Ni 1.119443569109359 7.4667008497727725 9.234704735444106 2.6269686049949468 -0.6683510676874167 0.20648915153761213
Ni 7.909208834739579 8.575143398618437 3.1277373549639043 1.3085616683848753 -1.7298070965648986 -0.5977051232350803
Ni 8.056972329511614 5.808962169467522 4.09093421576734 -0.935094536030396 -1.2471387851927038 -0.857593259219123
Ni 9.010848242183677 6.1139712099501775 10.603810705766358 -0.6355458482319377 0.1358925722659724 -0.9069126742795414
Ni 4.7531496062683445 5.53211389968499 2.055956281514176 -0.9578158888873117 -0.5089838093382718 0.3337564440284188
Ni 4.101088295558852 5.429394749808573 12.978892316024572 -0.5433885120703867 -0.7409849891040593 1.6151088989883537
Ni 4.373232363370883 0.4384942235986299 7.826564935816334 0.3983548967350946 1.5922808453502448 -0.1133933627221918
Ni 5.48503505648119 3.8558622053627585 3.3972255279256633 0.24879922515973282 -1.1452850476789953 0.6447678810508379
Ni 5.940247148530759 8.966669249509637 9.526653401493201 -0.3931543263707616 1.0706754905932208 0.8005178543623698
Ni 3.7718125693731825 2.54147503365589 4.822193666500745 2.61786587136273 3.6918686265569707 -1.0612827365244109
Ni 1.481455385719884 4.845475323611111 11.738850867788482 1.1091993577000314 -0.49709065744511166 0.18259588985978228
Ni 5.564334461126777 8.685659924363765 2.885937691330278 1.0016837939148557 -0.25426307648778146 -0.8371614737273325
Ni 8.881588555553925 3.184892028024286 10.698234441952719 -1.2678801315051134 -0.8010107348383882 1.4701153928623778
Ni 1.6768500761775789 2.902142792560557 7.329316978722342 -0.7584484359961453 -1.55207033456963 1.1896540607126738
Ni 2.2219667405244308 0.3021018252531356 8.089855713931634 -2.569914540294432 0.9567794772029973 0.038874822688326593
Ni 6.330880029576288 2.6567049672464185 11.196843027327027 -0.8053641267110775 -0.16709753711386705 0.3319301894529574
P 7.485839863269194 1.264353242725122 10.18312064383299 0.30917464092399655 -0.40348013377680186 -1.3832573574265532
P 1.804461911236451 7.169544420407216 4.302201675378728 -0.24764325717841867 1.3476900018449047 -0.2286695442893933
P 2.1536591502678424 4.656193333952658 0.8169643029936196 0.3548965684411436 -0.013774428076273054 0.13985798467162364
P 3.657742575994558 4.773310471856206 4.680315487422919 -0.29388557597541 -0.01901716453245112 -0.14279547003339277
P 0.10396286354807036 4.461111643234684 5.970936773010326 -1.1475594455354687 -0.5019328160287614 1.3904626169257408
P 5.716047276144106 1.1769618742202979 4.134791002826961 -0.34813276735474885 1.2720237213598415 1.305483543680184
P 3.8496758575659356 0.9306402849351841 12.457121749910968 -0.487279842002277 0.6684515978210229 -1.684412213369867
P 7.603187148040183 0.45830526594798016 0.8264417509948538 -1.4343377210421362 -1.9209143663298016 0.8876499693951874
Ni 7.504380494910269 3.2262079936673547 4.887042609633426 -0.23424292461211269 1.8745715173992041 -0.2077194244002874
Ni 0.20417801550672598 8.663897236578514 0.297310167473007 0.7528066643293357 -3.4030393820585454 -2.776893229873953
Ni -0.008589081092910683 7.2766915960132055 5.583391542338389 0.3906361879345982 -0.07919460535329587 -0.05260811311401908
Ni 4.112061698198454 6.361811768560404 6.609604456622202 -0.2900212079239973 2.6757745707540566 1.2086020625700862
Ni 3.7339396008670365 5.9645506577325635 10.753800181040287 -1.7003096013264136 1.7506276328546753 0.06444084408288903
Ni 4.97718377291044 6.444425288097146 4.406825520730091 -0.015228386913980225 2.1466222568877096 -2.0954539615440106
Ni 1.5256435842686207 9.07893489144752 10.70588728558888 0.4420793342062386 -1.7819320993949115 1.3059789952593637
Ni 7.486346186377565 7.3775419533259985 13.182668955394478 2.0047953214151732 -0.31622691978508766 1.1726464704110837
Ni 6.471812765322665 5.326390217816528 0.5756405830818618 1.8517555479459527 -0.3071884637319032 0.9730769288114404
Ni 5.723062152663718 5.097311231840119 10.936611361373759 -0.7975816545521812 0.0189315467971803 -1.2408889476282499
Ni 4.558905650147857 3.192450051151059 1.1093594539655496 1.2975349782570686 1.934990127696577 -0.7517172879198989
Ni 1.1369163192855052 5.014578035932307 4.233364747327025 1.8302282153971383 -0.22112438495228368 0.8184302158664162
Ni 0.35275162725215525 3.3681349638810785 2.232623461074435 0.23082541429013148 1.9338758115864758 -0.41038354576485453
Ni 3.855899028861549 3.3535528583599947 11.777789876584615 -0.2984793659936795 -1.1011975704414778 0.7235318266246185
Ni 2.148908918923853 7.867957310219394 6.340938368270944 0.7697432921836743 0.4073007930744728 -0.18530326148861634
Ni 0.29432101995867893 4.166017329801401 8.748343645767557 -0.4037390438651434 0.5179420469728242 -0.060844642091198435
Ni 3.956482415808111 7.6702059158391 12.517740593620076 -0.1247941483599657 1.1366240295698875 -2.5431195315887747
Ni 6.183945063527041 8.797051008205372 11.937736425931526 -1.3832038784807985 1.0390048989628171 -0.14383419571055228
Ni 0.46965518886271707 1.1626835625642373 1.4267062077179993 -1.143868626947443 2.6913024911863266 -0.012740844605436123
Ni 2.9247432149432964 3.79653954881108 2.808638723256491 -0.9074322942284372 1.040300477845789 -0.09849896210886262
Ni 3.143797003373961 4.383395649037093 6.8213984922662965 1.5368663731356822 0.13641861997277152 -0.7599610159859298
Ni 0.673895804317387 9.289003746173277 4.426348419201404 1.9084501724245195 0.6763284294659385 -0.2230156884377256
Ni 7.296576285360136 6.345609429092534 6.595107045148338 -0.07603189135459809 -1.9212185278337817 0.9389946424157505
Ni 5.4293763380591775 7.3926303819554535 0.7139643739389238 0.2728596085430462 1.1235818516739489 0.2726063548816595
P 1.7110959300528497 1.8272464511131434 2.9204707684961155 1.259080273825296 -0.794779923437328 1.5925978623700314
P 5.485716291208816 7.902046664224804 7.731588847148114 -1.4302226704324983 -1.0715013289286255 -2.0260290339829687
P 9.289924333643043 3.4444240475005325 12.991624961318896 -0.13090514635371003 -1.636325128054653 -0.26891399363173685
P 1.6226550918324927 2.8764031669059182 9.981431896844509 2.9104103599292137 1.7798585046953348 -0.43254619790482285
P 4.179918200594858 2.574726653063814 7.171997786014141 -0.45546963947021557 -0.458021716468108 0.7962734772637189
P 7.803525393210517 6.580478910253767 1.9109784844256505 0.19885631758270267 0.34468517512578056 -0.3357007122389831
P 7.015069842980591 7.5679654714469615 4.881006317594174 -1.2289250903981546 1.0643495483751928 -0.8877931798412709
P 7.535542380761825 3.9072678096744555 2.6954331615119766 -0.4994642998836108 0.11506123734291797 0.012237679716772473
